data_image0
_cell_length_a       9.927
_cell_length_b       11.242
_cell_length_c       25.381
_cell_angle_alpha    86.98
_cell_angle_beta     89.24
_cell_angle_gamma    77.75

_symmetry_space_group_name_H-M    "P 1"
_symmetry_int_tables_number       1

loop_
  _symmetry_equiv_pos_as_xyz
  'x, y, z'

loop_
  _atom_site_label
  _atom_site_occupancy
  _atom_site_fract_x
  _atom_site_fract_y
  _atom_site_fract_z
  _atom_site_thermal_displace_type
  _atom_site_B_iso_or_equiv
  _atom_site_type_symbol
  Cu1      1.0000 0.42018  0.27995  0.24398  Biso   1.000  Cu
  Cu2      1.0000 0.57982  0.72005  0.75602  Biso   1.000  Cu
  Cu3      1.0000 0.95100  0.22822  0.74509  Biso   1.000  Cu
  Cu4      1.0000 0.04900  0.77178  0.25491  Biso   1.000  Cu
  N1       1.0000 0.42350  0.32360  0.31974  Biso   1.000  N
  N2       1.0000 0.57650  0.67640  0.68026  Biso   1.000  N
  N3       1.0000 0.80100  0.25940  0.68893  Biso   1.000  N
  N4       1.0000 0.19900  0.74060  0.31107  Biso   1.000  N
  N5       1.0000 0.10240  0.19850  0.80077  Biso   1.000  N
  N6       1.0000 0.89760  0.80150  0.19923  Biso   1.000  N
  N7       1.0000 0.54340  0.33330  0.51431  Biso   1.000  N
  N8       1.0000 0.45660  0.66670  0.48569  Biso   1.000  N
  N9       1.0000 0.34890  0.15130  0.97730  Biso   1.000  N
  N10      1.0000 0.65110  0.84870  0.02270  Biso   1.000  N
  N11      1.0000 0.31630  0.35690  0.51654  Biso   1.000  N
  N12      1.0000 0.68370  0.64310  0.48346  Biso   1.000  N
  H1       1.0000 0.23220  0.36880  0.50610  Biso   1.000  H
  H2       1.0000 0.76780  0.63120  0.49390  Biso   1.000  H
  N13      1.0000 0.56850  0.16760  0.97716  Biso   1.000  N
  N14      1.0000 0.43150  0.83240  0.02284  Biso   1.000  N
  C1       1.0000 0.29620  0.16540  0.88170  Biso   1.000  C
  C2       1.0000 0.70380  0.83460  0.11830  Biso   1.000  C
  C3       1.0000 0.62630  0.17600  0.88262  Biso   1.000  C
  C4       1.0000 0.37370  0.82400  0.11738  Biso   1.000  C
  C5       1.0000 0.60450  0.30450  0.60872  Biso   1.000  C
  C6       1.0000 0.39550  0.69550  0.39128  Biso   1.000  C
  O1       1.0000 0.35360  0.12860  0.26722  Biso   1.000  O
  O2       1.0000 0.64640  0.87140  0.73278  Biso   1.000  O
  C7       1.0000 0.39530  0.15460  0.92584  Biso   1.000  C
  C8       1.0000 0.60470  0.84540  0.07416  Biso   1.000  C
  C9       1.0000 0.42760  0.35230  0.48569  Biso   1.000  C
  C10      1.0000 0.57240  0.64770  0.51431  Biso   1.000  C
  C11      1.0000 0.26620  0.31960  0.61102  Biso   1.000  C
  C12      1.0000 0.73380  0.68040  0.38898  Biso   1.000  C
  C13      1.0000 0.67420  0.32670  0.69684  Biso   1.000  C
  C14      1.0000 0.32580  0.67330  0.30316  Biso   1.000  C
  H3       1.0000 0.65310  0.35950  0.72960  Biso   1.000  H
  H4       1.0000 0.34690  0.64050  0.27040  Biso   1.000  H
  C15      1.0000 0.50260  0.32630  0.56620  Biso   1.000  C
  C16      1.0000 0.49740  0.67370  0.43380  Biso   1.000  C
  C17      1.0000 0.53020  0.16360  0.92592  Biso   1.000  C
  C18      1.0000 0.46980  0.83640  0.07408  Biso   1.000  C
  C19      1.0000 0.45730  0.16000  0.00669  Biso   1.000  C
  C20      1.0000 0.54270  0.84000  0.99331  Biso   1.000  C
  C21      1.0000 0.19250  0.27050  0.80318  Biso   1.000  C
  C22      1.0000 0.80750  0.72950  0.19682  Biso   1.000  C
  H5       1.0000 0.18900  0.33350  0.77760  Biso   1.000  H
  H6       1.0000 0.81100  0.66650  0.22240  Biso   1.000  H
  C23      1.0000 0.29070  0.25490  0.84212  Biso   1.000  C
  C24      1.0000 0.70930  0.74510  0.15788  Biso   1.000  C
  H7       1.0000 0.35390  0.30530  0.84170  Biso   1.000  H
  H8       1.0000 0.64610  0.69470  0.15830  Biso   1.000  H
  C25      1.0000 0.62920  0.11590  0.83585  Biso   1.000  C
  C26      1.0000 0.37080  0.88410  0.16415  Biso   1.000  C
  H9       1.0000 0.56770  0.06580  0.83060  Biso   1.000  H
  H10      1.0000 0.43230  0.93420  0.16940  Biso   1.000  H
  C27      1.0000 0.42650  0.35180  0.42833  Biso   1.000  C
  C28      1.0000 0.57350  0.64820  0.57167  Biso   1.000  C
  C29      1.0000 0.36080  0.33940  0.56728  Biso   1.000  C
  C30      1.0000 0.63920  0.66060  0.43272  Biso   1.000  C
  C31      1.0000 0.45180  0.17380  0.06395  Biso   1.000  C
  C32      1.0000 0.54820  0.82620  0.93605  Biso   1.000  C
  C33      1.0000 0.14130  0.40000  0.61852  Biso   1.000  C
  C34      1.0000 0.85870  0.60000  0.38148  Biso   1.000  C
  H11      1.0000 0.11610  0.47090  0.59720  Biso   1.000  H
  H12      1.0000 0.88390  0.52910  0.40280  Biso   1.000  H
  C35      1.0000 0.30480  0.37620  0.40025  Biso   1.000  C
  C36      1.0000 0.69520  0.62380  0.59975  Biso   1.000  C
  H13      1.0000 0.22130  0.40250  0.41750  Biso   1.000  H
  H14      1.0000 0.77870  0.59750  0.58250  Biso   1.000  H
  C37      1.0000 0.20170  0.09120  0.88010  Biso   1.000  C
  C38      1.0000 0.79830  0.90880  0.11990  Biso   1.000  C
  H15      1.0000 0.20060  0.03010  0.90620  Biso   1.000  H
  H16      1.0000 0.79940  0.96990  0.09380  Biso   1.000  H
  O3       1.0000 0.18800  0.35960  0.23426  Biso   1.000  O
  O4       1.0000 0.81200  0.64040  0.76574  Biso   1.000  O
  C39      1.0000 0.72000  0.25000  0.88662  Biso   1.000  C
  C40      1.0000 0.28000  0.75000  0.11338  Biso   1.000  C
  H17      1.0000 0.72330  0.29050  0.91740  Biso   1.000  H
  H18      1.0000 0.27670  0.70950  0.08260  Biso   1.000  H
  C41      1.0000 0.53960  0.30540  0.34650  Biso   1.000  C
  C42      1.0000 0.46040  0.69460  0.65350  Biso   1.000  C
  H19      1.0000 0.62180  0.28170  0.32810  Biso   1.000  H
  H20      1.0000 0.37820  0.71830  0.67190  Biso   1.000  H
  C43      1.0000 0.73630  0.23690  0.60102  Biso   1.000  C
  C44      1.0000 0.26370  0.76310  0.39898  Biso   1.000  C
  H21      1.0000 0.76160  0.20570  0.56830  Biso   1.000  H
  H22      1.0000 0.23840  0.79430  0.43170  Biso   1.000  H
  C45      1.0000 0.57500  0.34880  0.65877  Biso   1.000  C
  C46      1.0000 0.42500  0.65120  0.34123  Biso   1.000  C
  H23      1.0000 0.48750  0.39360  0.66620  Biso   1.000  H
  H24      1.0000 0.51250  0.60640  0.33380  Biso   1.000  H
  C47      1.0000 0.56590  0.18860  0.09070  Biso   1.000  C
  C48      1.0000 0.43410  0.81140  0.90930  Biso   1.000  C
  H25      1.0000 0.65040  0.18210  0.07360  Biso   1.000  H
  H26      1.0000 0.34960  0.81790  0.92640  Biso   1.000  H
  C49      1.0000 0.82750  0.21610  0.64064  Biso   1.000  C
  C50      1.0000 0.17250  0.78390  0.35936  Biso   1.000  C
  H27      1.0000 0.91460  0.16890  0.63440  Biso   1.000  H
  H28      1.0000 0.08540  0.83110  0.36560  Biso   1.000  H
  C51      1.0000 0.30690  0.36130  0.34643  Biso   1.000  C
  C52      1.0000 0.69310  0.63870  0.65357  Biso   1.000  C
  H29      1.0000 0.22380  0.37820  0.32820  Biso   1.000  H
  H30      1.0000 0.77620  0.62180  0.67180  Biso   1.000  H
  C53      1.0000 0.54700  0.31930  0.40007  Biso   1.000  C
  C54      1.0000 0.45300  0.68070  0.59993  Biso   1.000  C
  H31      1.0000 0.63200  0.30700  0.41680  Biso   1.000  H
  H32      1.0000 0.36800  0.69300  0.58320  Biso   1.000  H
  C55      1.0000 0.33010  0.18140  0.09127  Biso   1.000  C
  C56      1.0000 0.66990  0.81860  0.90873  Biso   1.000  C
  H33      1.0000 0.25180  0.16840  0.07480  Biso   1.000  H
  H34      1.0000 0.74820  0.83160  0.92520  Biso   1.000  H
  C57      1.0000 0.30050  0.21880  0.64513  Biso   1.000  C
  C58      1.0000 0.69950  0.78120  0.35487  Biso   1.000  C
  H35      1.0000 0.38570  0.16580  0.64240  Biso   1.000  H
  H36      1.0000 0.61430  0.83420  0.35760  Biso   1.000  H
  C59      1.0000 0.10980  0.11000  0.83913  Biso   1.000  C
  C60      1.0000 0.89020  0.89000  0.16087  Biso   1.000  C
  H37      1.0000 0.04850  0.05820  0.83780  Biso   1.000  H
  H38      1.0000 0.95150  0.94180  0.16220  Biso   1.000  H
  N15      1.0000 0.45460  0.04690  0.28136  Biso   1.000  N
  N16      1.0000 0.54540  0.95310  0.71864  Biso   1.000  N
  O5       1.0000 0.01170  0.02320  0.72262  Biso   1.000  O
  O6       1.0000 0.98830  0.97680  0.27738  Biso   1.000  O
  N17      1.0000 0.13160  0.46520  0.21654  Biso   1.000  N
  N18      1.0000 0.86840  0.53480  0.78346  Biso   1.000  N
  O7       1.0000 0.44890  0.45150  0.21918  Biso   1.000  O
  O8       1.0000 0.55110  0.54850  0.78082  Biso   1.000  O
  O9       1.0000 0.57020  0.07050  0.27532  Biso   1.000  O
  O10      1.0000 0.42980  0.92950  0.72468  Biso   1.000  O
  N19      1.0000 0.57480  0.45580  0.22555  Biso   1.000  N
  N20      1.0000 0.42520  0.54420  0.77445  Biso   1.000  N
  C61      1.0000 0.02690  0.91400  0.72170  Biso   1.000  C
  C62      1.0000 0.97310  0.08600  0.27830  Biso   1.000  C
  N21      1.0000 0.05450  0.84770  0.68090  Biso   1.000  N
  N22      1.0000 0.94550  0.15230  0.31910  Biso   1.000  N
  O11      1.0000 0.43770  0.94850  0.29873  Biso   1.000  O
  O12      1.0000 0.56230  0.05150  0.70127  Biso   1.000  O
  O13      1.0000 0.63960  0.35030  0.23538  Biso   1.000  O
  O14      1.0000 0.36040  0.64970  0.76462  Biso   1.000  O
  O15      1.0000 0.09630  0.47890  0.17122  Biso   1.000  O
  O16      1.0000 0.90370  0.52110  0.82878  Biso   1.000  O
  O17      1.0000 0.61670  0.54090  0.22610  Biso   1.000  O
  O18      1.0000 0.38330  0.45910  0.77390  Biso   1.000  O
  C63      1.0000 0.06600  0.71470  0.68100  Biso   1.000  C
  C64      1.0000 0.93400  0.28530  0.31900  Biso   1.000  C
  H39      1.0000 0.03570  0.68610  0.71450  Biso   1.000  H
  H40      1.0000 0.96430  0.31390  0.28550  Biso   1.000  H
  H41      1.0000 0.16030  0.67540  0.67520  Biso   1.000  H
  H42      1.0000 0.83970  0.32460  0.32480  Biso   1.000  H
  H43      1.0000 0.00950  0.69620  0.65350  Biso   1.000  H
  H44      1.0000 0.99050  0.30380  0.34650  Biso   1.000  H
  C65      1.0000 0.02080  0.83680  0.77440  Biso   1.000  C
  C66      1.0000 0.97920  0.16320  0.22560  Biso   1.000  C
  H45      1.0000 0.00010  0.89020  0.80300  Biso   1.000  H
  H46      1.0000 0.99990  0.10980  0.19700  Biso   1.000  H
  H47      1.0000 0.10830  0.78220  0.78050  Biso   1.000  H
  H48      1.0000 0.89170  0.21780  0.21950  Biso   1.000  H
  H49      1.0000 0.95030  0.79060  0.77200  Biso   1.000  H
  H50      1.0000 0.04970  0.20940  0.22800  Biso   1.000  H
  C67      1.0000 0.08870  0.91490  0.62980  Biso   1.000  C
  C68      1.0000 0.91130  0.08510  0.37020  Biso   1.000  C
  H51      1.0000 0.07510  0.00050  0.63530  Biso   1.000  H
  H52      1.0000 0.92490  0.99950  0.36470  Biso   1.000  H
  H53      1.0000 0.02940  0.90240  0.60200  Biso   1.000  H
  H54      1.0000 0.97060  0.09760  0.39800  Biso   1.000  H
  H55      1.0000 0.18300  0.88390  0.62020  Biso   1.000  H
  H56      1.0000 0.81700  0.11610  0.37980  Biso   1.000  H
  O19      1.0000 0.11010  0.54860  0.24434  Biso   1.000  O
  O20      1.0000 0.88990  0.45140  0.75566  Biso   1.000  O
  N23      1.0000 0.08630  0.27200  0.69021  Biso   1.000  N
  N24      1.0000 0.91370  0.72800  0.30979  Biso   1.000  N
  C69      1.0000 0.05630  0.37250  0.65797  Biso   1.000  C
  C70      1.0000 0.94370  0.62750  0.34203  Biso   1.000  C
  H57      1.0000 0.97270  0.42670  0.66280  Biso   1.000  H
  H58      1.0000 0.02730  0.57330  0.33720  Biso   1.000  H
  C71      1.0000 0.20800  0.19680  0.68346  Biso   1.000  C
  C72      1.0000 0.79200  0.80320  0.31654  Biso   1.000  C
  H59      1.0000 0.23120  0.12680  0.70550  Biso   1.000  H
  H60      1.0000 0.76880  0.87320  0.29450  Biso   1.000  H
  N25      1.0000 0.43630  0.22600  0.16972  Biso   1.000  N
  N26      1.0000 0.56370  0.77400  0.83028  Biso   1.000  N
  C73      1.0000 0.55330  0.21300  0.14301  Biso   1.000  C
  C74      1.0000 0.44670  0.78700  0.85699  Biso   1.000  C
  H61      1.0000 0.63190  0.22090  0.16090  Biso   1.000  H
  H62      1.0000 0.36810  0.77910  0.83910  Biso   1.000  H
  C75      1.0000 0.32660  0.20920  0.14407  Biso   1.000  C
  C76      1.0000 0.67340  0.79080  0.85593  Biso   1.000  C
  H63      1.0000 0.24360  0.21630  0.16230  Biso   1.000  H
  H64      1.0000 0.75640  0.78370  0.83770  Biso   1.000  H
  N27      1.0000 0.81230  0.20490  0.80203  Biso   1.000  N
  N28      1.0000 0.18770  0.79510  0.19797  Biso   1.000  N
  C77      1.0000 0.72440  0.13160  0.79765  Biso   1.000  C
  C78      1.0000 0.27560  0.86840  0.20235  Biso   1.000  C
  H65      1.0000 0.72740  0.08870  0.76720  Biso   1.000  H
  H66      1.0000 0.27260  0.91130  0.23280  Biso   1.000  H
  C79      1.0000 0.80790  0.26460  0.84622  Biso   1.000  C
  C80      1.0000 0.19210  0.73540  0.15378  Biso   1.000  C
  H67      1.0000 0.86670  0.31800  0.84960  Biso   1.000  H
  H68      1.0000 0.13330  0.68200  0.15040  Biso   1.000  H
