data_image0
_cell_length_a       24.8326
_cell_length_b       33.3574
_cell_length_c       18.3852
_cell_angle_alpha    90
_cell_angle_beta     90
_cell_angle_gamma    90

_symmetry_space_group_name_H-M    "P 1"
_symmetry_int_tables_number       1

loop_
  _symmetry_equiv_pos_as_xyz
  'x, y, z'

loop_
  _atom_site_label
  _atom_site_occupancy
  _atom_site_fract_x
  _atom_site_fract_y
  _atom_site_fract_z
  _atom_site_thermal_displace_type
  _atom_site_B_iso_or_equiv
  _atom_site_type_symbol
  C1       1.0000 0.19910  0.17667  0.50380  Biso   1.000  C
  C2       1.0000 0.80090  0.82333  0.00380  Biso   1.000  C
  C3       1.0000 0.80090  0.17667  0.50380  Biso   1.000  C
  C4       1.0000 0.19910  0.82333  0.00380  Biso   1.000  C
  C5       1.0000 0.69910  0.67667  0.50380  Biso   1.000  C
  C6       1.0000 0.30090  0.32333  0.00380  Biso   1.000  C
  C7       1.0000 0.30090  0.67667  0.50380  Biso   1.000  C
  C8       1.0000 0.69910  0.32333  0.00380  Biso   1.000  C
  C9       1.0000 0.21460  0.81005  0.45970  Biso   1.000  C
  C10      1.0000 0.78540  0.18995  0.95970  Biso   1.000  C
  C11      1.0000 0.78540  0.81005  0.45970  Biso   1.000  C
  C12      1.0000 0.21460  0.18995  0.95970  Biso   1.000  C
  C13      1.0000 0.71460  0.31005  0.45970  Biso   1.000  C
  C14      1.0000 0.28540  0.68995  0.95970  Biso   1.000  C
  C15      1.0000 0.28540  0.31005  0.45970  Biso   1.000  C
  C16      1.0000 0.71460  0.68995  0.95970  Biso   1.000  C
  C17      1.0000 0.30980  0.24382  0.86220  Biso   1.000  C
  C18      1.0000 0.69020  0.75618  0.36220  Biso   1.000  C
  C19      1.0000 0.69020  0.24382  0.86220  Biso   1.000  C
  C20      1.0000 0.30980  0.75618  0.36220  Biso   1.000  C
  C21      1.0000 0.80980  0.74382  0.86220  Biso   1.000  C
  C22      1.0000 0.19020  0.25618  0.36220  Biso   1.000  C
  C23      1.0000 0.19020  0.74382  0.86220  Biso   1.000  C
  C24      1.0000 0.80980  0.25618  0.36220  Biso   1.000  C
  C25      1.0000 0.39910  0.19601  0.72380  Biso   1.000  C
  C26      1.0000 0.60090  0.80399  0.22380  Biso   1.000  C
  C27      1.0000 0.60090  0.19601  0.72380  Biso   1.000  C
  C28      1.0000 0.39910  0.80399  0.22380  Biso   1.000  C
  C29      1.0000 0.89910  0.69601  0.72380  Biso   1.000  C
  C30      1.0000 0.10090  0.30399  0.22380  Biso   1.000  C
  C31      1.0000 0.10090  0.69601  0.72380  Biso   1.000  C
  C32      1.0000 0.89910  0.30399  0.22380  Biso   1.000  C
  C33      1.0000 0.29230  0.23440  0.59460  Biso   1.000  C
  C34      1.0000 0.70770  0.76560  0.09460  Biso   1.000  C
  C35      1.0000 0.70770  0.23440  0.59460  Biso   1.000  C
  C36      1.0000 0.29230  0.76560  0.09460  Biso   1.000  C
  C37      1.0000 0.79230  0.73440  0.59460  Biso   1.000  C
  C38      1.0000 0.20770  0.26560  0.09460  Biso   1.000  C
  C39      1.0000 0.20770  0.73440  0.59460  Biso   1.000  C
  C40      1.0000 0.79230  0.26560  0.09460  Biso   1.000  C
  C41      1.0000 0.37290  0.20401  0.66450  Biso   1.000  C
  C42      1.0000 0.62710  0.79599  0.16450  Biso   1.000  C
  C43      1.0000 0.62710  0.20401  0.66450  Biso   1.000  C
  C44      1.0000 0.37290  0.79599  0.16450  Biso   1.000  C
  C45      1.0000 0.87290  0.70401  0.66450  Biso   1.000  C
  C46      1.0000 0.12710  0.29599  0.16450  Biso   1.000  C
  C47      1.0000 0.12710  0.70401  0.66450  Biso   1.000  C
  C48      1.0000 0.87290  0.29599  0.16450  Biso   1.000  C
  H1       1.0000 0.38656  0.19513  0.62024  Biso   1.000  H
  H2       1.0000 0.61344  0.80487  0.12024  Biso   1.000  H
  H3       1.0000 0.61344  0.19513  0.62024  Biso   1.000  H
  H4       1.0000 0.38656  0.80487  0.12024  Biso   1.000  H
  H5       1.0000 0.88656  0.69513  0.62024  Biso   1.000  H
  H6       1.0000 0.11344  0.30487  0.12024  Biso   1.000  H
  H7       1.0000 0.11344  0.69513  0.62024  Biso   1.000  H
  H8       1.0000 0.88656  0.30487  0.12024  Biso   1.000  H
  C49      1.0000 0.45130  0.13655  0.68290  Biso   1.000  C
  C50      1.0000 0.54870  0.86345  0.18290  Biso   1.000  C
  C51      1.0000 0.54870  0.13655  0.68290  Biso   1.000  C
  C52      1.0000 0.45130  0.86345  0.18290  Biso   1.000  C
  C53      1.0000 0.95130  0.63655  0.68290  Biso   1.000  C
  C54      1.0000 0.04870  0.36345  0.18290  Biso   1.000  C
  C55      1.0000 0.04870  0.63655  0.68290  Biso   1.000  C
  C56      1.0000 0.95130  0.36345  0.18290  Biso   1.000  C
  H9       1.0000 0.41948  0.12418  0.66824  Biso   1.000  H
  H10      1.0000 0.58052  0.87582  0.16824  Biso   1.000  H
  H11      1.0000 0.58052  0.12418  0.66824  Biso   1.000  H
  H12      1.0000 0.41948  0.87582  0.16824  Biso   1.000  H
  H13      1.0000 0.91948  0.62418  0.66824  Biso   1.000  H
  H14      1.0000 0.08052  0.37582  0.16824  Biso   1.000  H
  H15      1.0000 0.08052  0.62418  0.66824  Biso   1.000  H
  H16      1.0000 0.91948  0.37582  0.16824  Biso   1.000  H
  C57      1.0000 0.07190  0.09618  0.65330  Biso   1.000  C
  C58      1.0000 0.92810  0.90382  0.15330  Biso   1.000  C
  C59      1.0000 0.92810  0.09618  0.65330  Biso   1.000  C
  C60      1.0000 0.07190  0.90382  0.15330  Biso   1.000  C
  C61      1.0000 0.57190  0.59618  0.65330  Biso   1.000  C
  C62      1.0000 0.42810  0.40382  0.15330  Biso   1.000  C
  C63      1.0000 0.42810  0.59618  0.65330  Biso   1.000  C
  C64      1.0000 0.57190  0.40382  0.15330  Biso   1.000  C
  C65      1.0000 0.50000  0.18970  0.73900  Biso   1.000  C
  C66      1.0000 0.50000  0.81030  0.23900  Biso   1.000  C
  C67      1.0000 0.00000  0.68970  0.73900  Biso   1.000  C
  C68      1.0000 0.00000  0.31030  0.23900  Biso   1.000  C
  H17      1.0000 0.50000  0.21269  0.76770  Biso   1.000  H
  H18      1.0000 0.50000  0.78731  0.26770  Biso   1.000  H
  H19      1.0000 0.00000  0.71269  0.76770  Biso   1.000  H
  H20      1.0000 0.00000  0.28731  0.26770  Biso   1.000  H
  C69      1.0000 0.22400  0.95954  0.48120  Biso   1.000  C
  C70      1.0000 0.77600  0.04046  0.98120  Biso   1.000  C
  C71      1.0000 0.77600  0.95954  0.48120  Biso   1.000  C
  C72      1.0000 0.22400  0.04046  0.98120  Biso   1.000  C
  C73      1.0000 0.72400  0.45954  0.48120  Biso   1.000  C
  C74      1.0000 0.27600  0.54046  0.98120  Biso   1.000  C
  C75      1.0000 0.27600  0.45954  0.48120  Biso   1.000  C
  C76      1.0000 0.72400  0.54046  0.98120  Biso   1.000  C
  C77      1.0000 0.07580  0.89631  0.34100  Biso   1.000  C
  C78      1.0000 0.92420  0.10369  0.84100  Biso   1.000  C
  C79      1.0000 0.92420  0.89631  0.34100  Biso   1.000  C
  C80      1.0000 0.07580  0.10369  0.84100  Biso   1.000  C
  C81      1.0000 0.57580  0.39631  0.34100  Biso   1.000  C
  C82      1.0000 0.42420  0.60369  0.84100  Biso   1.000  C
  C83      1.0000 0.42420  0.39631  0.34100  Biso   1.000  C
  C84      1.0000 0.57580  0.60369  0.84100  Biso   1.000  C
  C85      1.0000 0.19000  0.85069  0.44690  Biso   1.000  C
  C86      1.0000 0.81000  0.14931  0.94690  Biso   1.000  C
  C87      1.0000 0.81000  0.85069  0.44690  Biso   1.000  C
  C88      1.0000 0.19000  0.14931  0.94690  Biso   1.000  C
  C89      1.0000 0.69000  0.35069  0.44690  Biso   1.000  C
  C90      1.0000 0.31000  0.64931  0.94690  Biso   1.000  C
  C91      1.0000 0.31000  0.35069  0.44690  Biso   1.000  C
  C92      1.0000 0.69000  0.64931  0.94690  Biso   1.000  C
  C93      1.0000 0.44960  0.17402  0.71930  Biso   1.000  C
  C94      1.0000 0.55040  0.82598  0.21930  Biso   1.000  C
  C95      1.0000 0.55040  0.17402  0.71930  Biso   1.000  C
  C96      1.0000 0.44960  0.82598  0.21930  Biso   1.000  C
  C97      1.0000 0.94960  0.67402  0.71930  Biso   1.000  C
  C98      1.0000 0.05040  0.32598  0.21930  Biso   1.000  C
  C99      1.0000 0.05040  0.67402  0.71930  Biso   1.000  C
  C100     1.0000 0.94960  0.32598  0.21930  Biso   1.000  C
  C101     1.0000 0.50000  0.11870  0.66930  Biso   1.000  C
  C102     1.0000 0.50000  0.88130  0.16930  Biso   1.000  C
  C103     1.0000 0.00000  0.61870  0.66930  Biso   1.000  C
  C104     1.0000 0.00000  0.38130  0.16930  Biso   1.000  C
  C105     1.0000 0.33340  0.23223  0.79430  Biso   1.000  C
  C106     1.0000 0.66660  0.76777  0.29430  Biso   1.000  C
  C107     1.0000 0.66660  0.23223  0.79430  Biso   1.000  C
  C108     1.0000 0.33340  0.76777  0.29430  Biso   1.000  C
  C109     1.0000 0.83340  0.73223  0.79430  Biso   1.000  C
  C110     1.0000 0.16660  0.26777  0.29430  Biso   1.000  C
  C111     1.0000 0.16660  0.73223  0.79430  Biso   1.000  C
  C112     1.0000 0.83340  0.26777  0.29430  Biso   1.000  C
  C113     1.0000 0.19530  0.92364  0.45310  Biso   1.000  C
  C114     1.0000 0.80470  0.07636  0.95310  Biso   1.000  C
  C115     1.0000 0.80470  0.92364  0.45310  Biso   1.000  C
  C116     1.0000 0.19530  0.07636  0.95310  Biso   1.000  C
  C117     1.0000 0.69530  0.42364  0.45310  Biso   1.000  C
  C118     1.0000 0.30470  0.57636  0.95310  Biso   1.000  C
  C119     1.0000 0.30470  0.42364  0.45310  Biso   1.000  C
  C120     1.0000 0.69530  0.57636  0.95310  Biso   1.000  C
  C121     1.0000 0.38090  0.21165  0.78890  Biso   1.000  C
  C122     1.0000 0.61910  0.78835  0.28890  Biso   1.000  C
  C123     1.0000 0.61910  0.21165  0.78890  Biso   1.000  C
  C124     1.0000 0.38090  0.78835  0.28890  Biso   1.000  C
  C125     1.0000 0.88090  0.71165  0.78890  Biso   1.000  C
  C126     1.0000 0.11910  0.28835  0.28890  Biso   1.000  C
  C127     1.0000 0.11910  0.71165  0.78890  Biso   1.000  C
  C128     1.0000 0.88090  0.28835  0.28890  Biso   1.000  C
  H21      1.0000 0.40174  0.20808  0.83046  Biso   1.000  H
  H22      1.0000 0.59826  0.79192  0.33046  Biso   1.000  H
  H23      1.0000 0.59826  0.20808  0.83046  Biso   1.000  H
  H24      1.0000 0.40174  0.79192  0.33046  Biso   1.000  H
  H25      1.0000 0.90174  0.70808  0.83046  Biso   1.000  H
  H26      1.0000 0.09826  0.29192  0.33046  Biso   1.000  H
  H27      1.0000 0.09826  0.70808  0.83046  Biso   1.000  H
  H28      1.0000 0.90174  0.29192  0.33046  Biso   1.000  H
  C129     1.0000 0.27990  0.95980  0.48310  Biso   1.000  C
  C130     1.0000 0.72010  0.04020  0.98310  Biso   1.000  C
  C131     1.0000 0.72010  0.95980  0.48310  Biso   1.000  C
  C132     1.0000 0.27990  0.04020  0.98310  Biso   1.000  C
  C133     1.0000 0.77990  0.45980  0.48310  Biso   1.000  C
  C134     1.0000 0.22010  0.54020  0.98310  Biso   1.000  C
  C135     1.0000 0.22010  0.45980  0.48310  Biso   1.000  C
  C136     1.0000 0.77990  0.54020  0.98310  Biso   1.000  C
  H29      1.0000 0.29961  0.93764  0.46784  Biso   1.000  H
  H30      1.0000 0.70039  0.06236  0.96784  Biso   1.000  H
  H31      1.0000 0.70039  0.93764  0.46784  Biso   1.000  H
  H32      1.0000 0.29961  0.06236  0.96784  Biso   1.000  H
  H33      1.0000 0.79961  0.43764  0.46784  Biso   1.000  H
  H34      1.0000 0.20039  0.56236  0.96784  Biso   1.000  H
  H35      1.0000 0.20039  0.43764  0.46784  Biso   1.000  H
  H36      1.0000 0.79961  0.56236  0.96784  Biso   1.000  H
  C137     1.0000 0.22200  0.02842  0.52260  Biso   1.000  C
  C138     1.0000 0.77800  0.97158  0.02260  Biso   1.000  C
  C139     1.0000 0.77800  0.02842  0.52260  Biso   1.000  C
  C140     1.0000 0.22200  0.97158  0.02260  Biso   1.000  C
  C141     1.0000 0.72200  0.52842  0.52260  Biso   1.000  C
  C142     1.0000 0.27800  0.47158  0.02260  Biso   1.000  C
  C143     1.0000 0.27800  0.52842  0.52260  Biso   1.000  C
  C144     1.0000 0.72200  0.47158  0.02260  Biso   1.000  C
  C145     1.0000 0.14100  0.85379  0.40570  Biso   1.000  C
  C146     1.0000 0.85900  0.14621  0.90570  Biso   1.000  C
  C147     1.0000 0.85900  0.85379  0.40570  Biso   1.000  C
  C148     1.0000 0.14100  0.14621  0.90570  Biso   1.000  C
  C149     1.0000 0.64100  0.35379  0.40570  Biso   1.000  C
  C150     1.0000 0.35900  0.64621  0.90570  Biso   1.000  C
  C151     1.0000 0.35900  0.35379  0.40570  Biso   1.000  C
  C152     1.0000 0.64100  0.64621  0.90570  Biso   1.000  C
  H37      1.0000 0.12156  0.83122  0.39179  Biso   1.000  H
  H38      1.0000 0.87844  0.16878  0.89179  Biso   1.000  H
  H39      1.0000 0.87844  0.83122  0.39179  Biso   1.000  H
  H40      1.0000 0.12156  0.16878  0.89179  Biso   1.000  H
  H41      1.0000 0.62156  0.33122  0.39179  Biso   1.000  H
  H42      1.0000 0.37844  0.66878  0.89179  Biso   1.000  H
  H43      1.0000 0.37844  0.33122  0.39179  Biso   1.000  H
  H44      1.0000 0.62156  0.66878  0.89179  Biso   1.000  H
  C153     1.0000 0.18130  0.13537  0.52990  Biso   1.000  C
  C154     1.0000 0.81870  0.86463  0.02990  Biso   1.000  C
  C155     1.0000 0.81870  0.13537  0.52990  Biso   1.000  C
  C156     1.0000 0.18130  0.86463  0.02990  Biso   1.000  C
  C157     1.0000 0.68130  0.63537  0.52990  Biso   1.000  C
  C158     1.0000 0.31870  0.36463  0.02990  Biso   1.000  C
  C159     1.0000 0.31870  0.63537  0.52990  Biso   1.000  C
  C160     1.0000 0.68130  0.36463  0.02990  Biso   1.000  C
  C161     1.0000 0.14810  0.92509  0.41470  Biso   1.000  C
  C162     1.0000 0.85190  0.07491  0.91470  Biso   1.000  C
  C163     1.0000 0.85190  0.92509  0.41470  Biso   1.000  C
  C164     1.0000 0.14810  0.07491  0.91470  Biso   1.000  C
  C165     1.0000 0.64810  0.42509  0.41470  Biso   1.000  C
  C166     1.0000 0.35190  0.57491  0.91470  Biso   1.000  C
  C167     1.0000 0.35190  0.42509  0.41470  Biso   1.000  C
  C168     1.0000 0.64810  0.57491  0.91470  Biso   1.000  C
  H45      1.0000 0.13176  0.94977  0.40640  Biso   1.000  H
  H46      1.0000 0.86824  0.05023  0.90640  Biso   1.000  H
  H47      1.0000 0.86824  0.94977  0.40640  Biso   1.000  H
  H48      1.0000 0.13176  0.05023  0.90640  Biso   1.000  H
  H49      1.0000 0.63176  0.44977  0.40640  Biso   1.000  H
  H50      1.0000 0.36824  0.55023  0.90640  Biso   1.000  H
  H51      1.0000 0.36824  0.44977  0.40640  Biso   1.000  H
  H52      1.0000 0.63176  0.55023  0.90640  Biso   1.000  H
  C169     1.0000 0.20830  0.10151  0.50870  Biso   1.000  C
  C170     1.0000 0.79170  0.89849  0.00870  Biso   1.000  C
  C171     1.0000 0.79170  0.10151  0.50870  Biso   1.000  C
  C172     1.0000 0.20830  0.89849  0.00870  Biso   1.000  C
  C173     1.0000 0.70830  0.60151  0.50870  Biso   1.000  C
  C174     1.0000 0.29170  0.39849  0.00870  Biso   1.000  C
  C175     1.0000 0.29170  0.60151  0.50870  Biso   1.000  C
  C176     1.0000 0.70830  0.39849  0.00870  Biso   1.000  C
  H53      1.0000 0.23637  0.10321  0.47534  Biso   1.000  H
  H54      1.0000 0.76363  0.89679  0.97534  Biso   1.000  H
  H55      1.0000 0.76363  0.10321  0.47534  Biso   1.000  H
  H56      1.0000 0.23637  0.89679  0.97534  Biso   1.000  H
  H57      1.0000 0.73637  0.60321  0.47534  Biso   1.000  H
  H58      1.0000 0.26363  0.39679  0.97534  Biso   1.000  H
  H59      1.0000 0.26363  0.60321  0.47534  Biso   1.000  H
  H60      1.0000 0.73637  0.39679  0.97534  Biso   1.000  H
  C177     1.0000 0.14610  0.06277  0.58360  Biso   1.000  C
  C178     1.0000 0.85390  0.93723  0.08360  Biso   1.000  C
  C179     1.0000 0.85390  0.06277  0.58360  Biso   1.000  C
  C180     1.0000 0.14610  0.93723  0.08360  Biso   1.000  C
  C181     1.0000 0.64610  0.56277  0.58360  Biso   1.000  C
  C182     1.0000 0.35390  0.43723  0.08360  Biso   1.000  C
  C183     1.0000 0.35390  0.56277  0.58360  Biso   1.000  C
  C184     1.0000 0.64610  0.43723  0.08360  Biso   1.000  C
  H61      1.0000 0.13433  0.03824  0.60156  Biso   1.000  H
  H62      1.0000 0.86567  0.96176  0.10156  Biso   1.000  H
  H63      1.0000 0.86567  0.03824  0.60156  Biso   1.000  H
  H64      1.0000 0.13433  0.96176  0.10156  Biso   1.000  H
  H65      1.0000 0.63433  0.53824  0.60156  Biso   1.000  H
  H66      1.0000 0.36567  0.46176  0.10156  Biso   1.000  H
  H67      1.0000 0.36567  0.53824  0.60156  Biso   1.000  H
  H68      1.0000 0.63433  0.46176  0.10156  Biso   1.000  H
  C185     1.0000 0.12450  0.89130  0.38840  Biso   1.000  C
  C186     1.0000 0.87550  0.10870  0.88840  Biso   1.000  C
  C187     1.0000 0.87550  0.89130  0.38840  Biso   1.000  C
  C188     1.0000 0.12450  0.10870  0.88840  Biso   1.000  C
  C189     1.0000 0.62450  0.39130  0.38840  Biso   1.000  C
  C190     1.0000 0.37550  0.60870  0.88840  Biso   1.000  C
  C191     1.0000 0.37550  0.39130  0.38840  Biso   1.000  C
  C192     1.0000 0.62450  0.60870  0.88840  Biso   1.000  C
  C193     1.0000 0.19310  0.06350  0.53850  Biso   1.000  C
  C194     1.0000 0.80690  0.93650  0.03850  Biso   1.000  C
  C195     1.0000 0.80690  0.06350  0.53850  Biso   1.000  C
  C196     1.0000 0.19310  0.93650  0.03850  Biso   1.000  C
  C197     1.0000 0.69310  0.56350  0.53850  Biso   1.000  C
  C198     1.0000 0.30690  0.43650  0.03850  Biso   1.000  C
  C199     1.0000 0.30690  0.56350  0.53850  Biso   1.000  C
  C200     1.0000 0.69310  0.43650  0.03850  Biso   1.000  C
  C201     1.0000 0.30450  0.23890  0.73090  Biso   1.000  C
  C202     1.0000 0.69550  0.76110  0.23090  Biso   1.000  C
  C203     1.0000 0.69550  0.23890  0.73090  Biso   1.000  C
  C204     1.0000 0.30450  0.76110  0.23090  Biso   1.000  C
  C205     1.0000 0.80450  0.73890  0.73090  Biso   1.000  C
  C206     1.0000 0.19550  0.26110  0.23090  Biso   1.000  C
  C207     1.0000 0.19550  0.73890  0.73090  Biso   1.000  C
  C208     1.0000 0.80450  0.26110  0.23090  Biso   1.000  C
  H69      1.0000 0.27172  0.25230  0.73254  Biso   1.000  H
  H70      1.0000 0.72828  0.74770  0.23254  Biso   1.000  H
  H71      1.0000 0.72828  0.25230  0.73254  Biso   1.000  H
  H72      1.0000 0.27172  0.74770  0.23254  Biso   1.000  H
  H73      1.0000 0.77172  0.75230  0.73254  Biso   1.000  H
  H74      1.0000 0.22828  0.24770  0.23254  Biso   1.000  H
  H75      1.0000 0.22828  0.75230  0.73254  Biso   1.000  H
  H76      1.0000 0.77172  0.24770  0.23254  Biso   1.000  H
  C209     1.0000 0.13650  0.13359  0.57420  Biso   1.000  C
  C210     1.0000 0.86350  0.86641  0.07420  Biso   1.000  C
  C211     1.0000 0.86350  0.13359  0.57420  Biso   1.000  C
  C212     1.0000 0.13650  0.86641  0.07420  Biso   1.000  C
  C213     1.0000 0.63650  0.63359  0.57420  Biso   1.000  C
  C214     1.0000 0.36350  0.36641  0.07420  Biso   1.000  C
  C215     1.0000 0.36350  0.63359  0.57420  Biso   1.000  C
  C216     1.0000 0.63650  0.36641  0.07420  Biso   1.000  C
  H77      1.0000 0.11850  0.15709  0.58635  Biso   1.000  H
  H78      1.0000 0.88150  0.84291  0.08635  Biso   1.000  H
  H79      1.0000 0.88150  0.15709  0.58635  Biso   1.000  H
  H80      1.0000 0.11850  0.84291  0.08635  Biso   1.000  H
  H81      1.0000 0.61850  0.65709  0.58635  Biso   1.000  H
  H82      1.0000 0.38150  0.34291  0.08635  Biso   1.000  H
  H83      1.0000 0.38150  0.65709  0.58635  Biso   1.000  H
  H84      1.0000 0.61850  0.34291  0.08635  Biso   1.000  H
  C217     1.0000 0.19710  0.99389  0.50250  Biso   1.000  C
  C218     1.0000 0.80290  0.00611  0.00250  Biso   1.000  C
  C219     1.0000 0.80290  0.99389  0.50250  Biso   1.000  C
  C220     1.0000 0.19710  0.00611  0.00250  Biso   1.000  C
  C221     1.0000 0.69710  0.49389  0.50250  Biso   1.000  C
  C222     1.0000 0.30290  0.50611  0.00250  Biso   1.000  C
  C223     1.0000 0.30290  0.49389  0.50250  Biso   1.000  C
  C224     1.0000 0.69710  0.50611  0.00250  Biso   1.000  C
  H85      1.0000 0.15964  0.99331  0.50311  Biso   1.000  H
  H86      1.0000 0.84036  0.00669  0.00311  Biso   1.000  H
  H87      1.0000 0.84036  0.99331  0.50311  Biso   1.000  H
  H88      1.0000 0.15964  0.00669  0.00311  Biso   1.000  H
  H89      1.0000 0.65964  0.49331  0.50311  Biso   1.000  H
  H90      1.0000 0.34036  0.50669  0.00311  Biso   1.000  H
  H91      1.0000 0.34036  0.49331  0.50311  Biso   1.000  H
  H92      1.0000 0.65964  0.50669  0.00311  Biso   1.000  H
  C225     1.0000 0.21620  0.88560  0.46770  Biso   1.000  C
  C226     1.0000 0.78380  0.11440  0.96770  Biso   1.000  C
  C227     1.0000 0.78380  0.88560  0.46770  Biso   1.000  C
  C228     1.0000 0.21620  0.11440  0.96770  Biso   1.000  C
  C229     1.0000 0.71620  0.38560  0.46770  Biso   1.000  C
  C230     1.0000 0.28380  0.61440  0.96770  Biso   1.000  C
  C231     1.0000 0.28380  0.38560  0.46770  Biso   1.000  C
  C232     1.0000 0.71620  0.61440  0.96770  Biso   1.000  C
  H93      1.0000 0.24874  0.88355  0.49241  Biso   1.000  H
  H94      1.0000 0.75126  0.11645  0.99241  Biso   1.000  H
  H95      1.0000 0.75126  0.88355  0.49241  Biso   1.000  H
  H96      1.0000 0.24874  0.11645  0.99241  Biso   1.000  H
  H97      1.0000 0.74874  0.38355  0.49241  Biso   1.000  H
  H98      1.0000 0.25126  0.61645  0.99241  Biso   1.000  H
  H99      1.0000 0.25126  0.38355  0.49241  Biso   1.000  H
  H100     1.0000 0.74874  0.61645  0.99241  Biso   1.000  H
  C233     1.0000 0.27870  0.02764  0.52580  Biso   1.000  C
  C234     1.0000 0.72130  0.97236  0.02580  Biso   1.000  C
  C235     1.0000 0.72130  0.02764  0.52580  Biso   1.000  C
  C236     1.0000 0.27870  0.97236  0.02580  Biso   1.000  C
  C237     1.0000 0.77870  0.52764  0.52580  Biso   1.000  C
  C238     1.0000 0.22130  0.47236  0.02580  Biso   1.000  C
  C239     1.0000 0.22130  0.52764  0.52580  Biso   1.000  C
  C240     1.0000 0.77870  0.47236  0.02580  Biso   1.000  C
  H101     1.0000 0.29664  0.05082  0.54004  Biso   1.000  H
  H102     1.0000 0.70336  0.94918  0.04004  Biso   1.000  H
  H103     1.0000 0.70336  0.05082  0.54004  Biso   1.000  H
  H104     1.0000 0.29664  0.94918  0.04004  Biso   1.000  H
  H105     1.0000 0.79664  0.55082  0.54004  Biso   1.000  H
  H106     1.0000 0.20336  0.44918  0.04004  Biso   1.000  H
  H107     1.0000 0.20336  0.55082  0.54004  Biso   1.000  H
  H108     1.0000 0.79664  0.44918  0.04004  Biso   1.000  H
  C241     1.0000 0.11780  0.09656  0.60140  Biso   1.000  C
  C242     1.0000 0.88220  0.90344  0.10140  Biso   1.000  C
  C243     1.0000 0.88220  0.09656  0.60140  Biso   1.000  C
  C244     1.0000 0.11780  0.90344  0.10140  Biso   1.000  C
  C245     1.0000 0.61780  0.59656  0.60140  Biso   1.000  C
  C246     1.0000 0.38220  0.40344  0.10140  Biso   1.000  C
  C247     1.0000 0.38220  0.59656  0.60140  Biso   1.000  C
  C248     1.0000 0.61780  0.40344  0.10140  Biso   1.000  C
  C249     1.0000 0.32490  0.22548  0.66510  Biso   1.000  C
  C250     1.0000 0.67510  0.77452  0.16510  Biso   1.000  C
  C251     1.0000 0.67510  0.22548  0.66510  Biso   1.000  C
  C252     1.0000 0.32490  0.77452  0.16510  Biso   1.000  C
  C253     1.0000 0.82490  0.72548  0.66510  Biso   1.000  C
  C254     1.0000 0.17510  0.27452  0.16510  Biso   1.000  C
  C255     1.0000 0.17510  0.72548  0.66510  Biso   1.000  C
  C256     1.0000 0.82490  0.27452  0.16510  Biso   1.000  C
  C257     1.0000 0.30730  0.99600  0.50970  Biso   1.000  C
  C258     1.0000 0.69270  0.00400  0.00970  Biso   1.000  C
  C259     1.0000 0.69270  0.99600  0.50970  Biso   1.000  C
  C260     1.0000 0.30730  0.00400  0.00970  Biso   1.000  C
  C261     1.0000 0.80730  0.49600  0.50970  Biso   1.000  C
  C262     1.0000 0.19270  0.50400  0.00970  Biso   1.000  C
  C263     1.0000 0.19270  0.49600  0.50970  Biso   1.000  C
  C264     1.0000 0.80730  0.50400  0.00970  Biso   1.000  C
  Cu1      1.0000 0.28095  0.22603  0.44450  Biso   1.000  Cu
  Cu2      1.0000 0.71905  0.77397  0.94450  Biso   1.000  Cu
  Cu3      1.0000 0.71905  0.22603  0.44450  Biso   1.000  Cu
  Cu4      1.0000 0.28095  0.77397  0.94450  Biso   1.000  Cu
  Cu5      1.0000 0.78095  0.72603  0.44450  Biso   1.000  Cu
  Cu6      1.0000 0.21905  0.27397  0.94450  Biso   1.000  Cu
  Cu7      1.0000 0.21905  0.72603  0.44450  Biso   1.000  Cu
  Cu8      1.0000 0.78095  0.27397  0.94450  Biso   1.000  Cu
  Cu9      1.0000 0.20215  0.26097  0.51845  Biso   1.000  Cu
  Cu10     1.0000 0.79785  0.73903  0.01845  Biso   1.000  Cu
  Cu11     1.0000 0.79785  0.26097  0.51845  Biso   1.000  Cu
  Cu12     1.0000 0.20215  0.73903  0.01845  Biso   1.000  Cu
  Cu13     1.0000 0.70215  0.76097  0.51845  Biso   1.000  Cu
  Cu14     1.0000 0.29785  0.23903  0.01845  Biso   1.000  Cu
  Cu15     1.0000 0.29785  0.76097  0.51845  Biso   1.000  Cu
  Cu16     1.0000 0.70215  0.23903  0.01845  Biso   1.000  Cu
  N1       1.0000 0.36290  0.99516  0.51230  Biso   1.000  N
  N2       1.0000 0.63710  0.00484  0.01230  Biso   1.000  N
  N3       1.0000 0.63710  0.99516  0.51230  Biso   1.000  N
  N4       1.0000 0.36290  0.00484  0.01230  Biso   1.000  N
  N5       1.0000 0.86290  0.49516  0.51230  Biso   1.000  N
  N6       1.0000 0.13710  0.50484  0.01230  Biso   1.000  N
  N7       1.0000 0.13710  0.49516  0.51230  Biso   1.000  N
  N8       1.0000 0.86290  0.50484  0.01230  Biso   1.000  N
  H109     1.0000 0.37546  0.01058  0.47584  Biso   1.000  H
  H110     1.0000 0.62454  0.98942  0.97584  Biso   1.000  H
  H111     1.0000 0.62454  0.01058  0.47584  Biso   1.000  H
  H112     1.0000 0.37546  0.98942  0.97584  Biso   1.000  H
  H113     1.0000 0.87546  0.51058  0.47584  Biso   1.000  H
  H114     1.0000 0.12454  0.48942  0.97584  Biso   1.000  H
  H115     1.0000 0.12454  0.51058  0.47584  Biso   1.000  H
  H116     1.0000 0.87546  0.48942  0.97584  Biso   1.000  H
  H117     1.0000 0.38207  0.00782  0.54936  Biso   1.000  H
  H118     1.0000 0.61793  0.99218  0.04936  Biso   1.000  H
  H119     1.0000 0.61793  0.00782  0.54936  Biso   1.000  H
  H120     1.0000 0.38207  0.99218  0.04936  Biso   1.000  H
  H121     1.0000 0.88207  0.50782  0.54936  Biso   1.000  H
  H122     1.0000 0.11793  0.49218  0.04936  Biso   1.000  H
  H123     1.0000 0.11793  0.50782  0.54936  Biso   1.000  H
  H124     1.0000 0.88207  0.49218  0.04936  Biso   1.000  H
  N9       1.0000 0.50000  0.07980  0.63240  Biso   1.000  N
  N10      1.0000 0.50000  0.92020  0.13240  Biso   1.000  N
  N11      1.0000 0.00000  0.57980  0.63240  Biso   1.000  N
  N12      1.0000 0.00000  0.42020  0.13240  Biso   1.000  N
  H125     1.0000 0.46548  0.06451  0.61080  Biso   1.000  H
  H126     1.0000 0.53452  0.93549  0.11080  Biso   1.000  H
  H127     1.0000 0.53452  0.06451  0.61080  Biso   1.000  H
  H128     1.0000 0.46548  0.93549  0.11080  Biso   1.000  H
  H129     1.0000 0.96548  0.56451  0.61080  Biso   1.000  H
  H130     1.0000 0.03452  0.43549  0.11080  Biso   1.000  H
  H131     1.0000 0.03452  0.56451  0.61080  Biso   1.000  H
  H132     1.0000 0.96548  0.43549  0.11080  Biso   1.000  H
  O1       1.0000 0.05632  0.06462  0.67540  Biso   1.000  O
  O2       1.0000 0.94368  0.93538  0.17540  Biso   1.000  O
  O3       1.0000 0.94368  0.06462  0.67540  Biso   1.000  O
  O4       1.0000 0.05632  0.93538  0.17540  Biso   1.000  O
  O5       1.0000 0.55632  0.56462  0.67540  Biso   1.000  O
  O6       1.0000 0.44368  0.43538  0.17540  Biso   1.000  O
  O7       1.0000 0.44368  0.56462  0.67540  Biso   1.000  O
  O8       1.0000 0.55632  0.43538  0.17540  Biso   1.000  O
  O9       1.0000 0.17378  0.20701  0.52650  Biso   1.000  O
  O10      1.0000 0.82622  0.79299  0.02650  Biso   1.000  O
  O11      1.0000 0.82622  0.20701  0.52650  Biso   1.000  O
  O12      1.0000 0.17378  0.79299  0.02650  Biso   1.000  O
  O13      1.0000 0.67378  0.70701  0.52650  Biso   1.000  O
  O14      1.0000 0.32622  0.29299  0.02650  Biso   1.000  O
  O15      1.0000 0.32622  0.70701  0.52650  Biso   1.000  O
  O16      1.0000 0.67378  0.29299  0.02650  Biso   1.000  O
  O17      1.0000 0.19098  0.78101  0.43130  Biso   1.000  O
  O18      1.0000 0.80902  0.21899  0.93130  Biso   1.000  O
  O19      1.0000 0.80902  0.78101  0.43130  Biso   1.000  O
  O20      1.0000 0.19098  0.21899  0.93130  Biso   1.000  O
  O21      1.0000 0.69098  0.28101  0.43130  Biso   1.000  O
  O22      1.0000 0.30902  0.71899  0.93130  Biso   1.000  O
  O23      1.0000 0.30902  0.28101  0.43130  Biso   1.000  O
  O24      1.0000 0.69098  0.71899  0.93130  Biso   1.000  O
  O25      1.0000 0.05740  0.92916  0.32450  Biso   1.000  O
  O26      1.0000 0.94260  0.07084  0.82450  Biso   1.000  O
  O27      1.0000 0.94260  0.92916  0.32450  Biso   1.000  O
  O28      1.0000 0.05740  0.07084  0.82450  Biso   1.000  O
  O29      1.0000 0.55740  0.42916  0.32450  Biso   1.000  O
  O30      1.0000 0.44260  0.57084  0.82450  Biso   1.000  O
  O31      1.0000 0.44260  0.42916  0.32450  Biso   1.000  O
  O32      1.0000 0.55740  0.57084  0.82450  Biso   1.000  O
  O33      1.0000 0.24897  0.25070  0.59860  Biso   1.000  O
  O34      1.0000 0.75103  0.74930  0.09860  Biso   1.000  O
  O35      1.0000 0.75103  0.25070  0.59860  Biso   1.000  O
  O36      1.0000 0.24897  0.74930  0.09860  Biso   1.000  O
  O37      1.0000 0.74897  0.75070  0.59860  Biso   1.000  O
  O38      1.0000 0.25103  0.24930  0.09860  Biso   1.000  O
  O39      1.0000 0.25103  0.75070  0.59860  Biso   1.000  O
  O40      1.0000 0.74897  0.24930  0.09860  Biso   1.000  O
  O41      1.0000 0.33124  0.23282  0.92000  Biso   1.000  O
  O42      1.0000 0.66876  0.76718  0.42000  Biso   1.000  O
  O43      1.0000 0.66876  0.23282  0.92000  Biso   1.000  O
  O44      1.0000 0.33124  0.76718  0.42000  Biso   1.000  O
  O45      1.0000 0.83124  0.73282  0.92000  Biso   1.000  O
  O46      1.0000 0.16876  0.26718  0.42000  Biso   1.000  O
  O47      1.0000 0.16876  0.73282  0.92000  Biso   1.000  O
  O48      1.0000 0.83124  0.26718  0.42000  Biso   1.000  O
  O49      1.0000 0.05350  0.12958  0.66800  Biso   1.000  O
  O50      1.0000 0.94650  0.87042  0.16800  Biso   1.000  O
  O51      1.0000 0.94650  0.12958  0.66800  Biso   1.000  O
  O52      1.0000 0.05350  0.87042  0.16800  Biso   1.000  O
  O53      1.0000 0.55350  0.62958  0.66800  Biso   1.000  O
  O54      1.0000 0.44650  0.37042  0.16800  Biso   1.000  O
  O55      1.0000 0.44650  0.62958  0.66800  Biso   1.000  O
  O56      1.0000 0.55350  0.37042  0.16800  Biso   1.000  O
  O57      1.0000 0.24210  0.17753  0.46570  Biso   1.000  O
  O58      1.0000 0.75790  0.82247  0.96570  Biso   1.000  O
  O59      1.0000 0.75790  0.17753  0.46570  Biso   1.000  O
  O60      1.0000 0.24210  0.82247  0.96570  Biso   1.000  O
  O61      1.0000 0.74210  0.67753  0.46570  Biso   1.000  O
  O62      1.0000 0.25790  0.32247  0.96570  Biso   1.000  O
  O63      1.0000 0.25790  0.67753  0.46570  Biso   1.000  O
  O64      1.0000 0.74210  0.32247  0.96570  Biso   1.000  O
  O65      1.0000 0.05340  0.86183  0.31640  Biso   1.000  O
  O66      1.0000 0.94660  0.13817  0.81640  Biso   1.000  O
  O67      1.0000 0.94660  0.86183  0.31640  Biso   1.000  O
  O68      1.0000 0.05340  0.13817  0.81640  Biso   1.000  O
  O69      1.0000 0.55340  0.36183  0.31640  Biso   1.000  O
  O70      1.0000 0.44660  0.63817  0.81640  Biso   1.000  O
  O71      1.0000 0.44660  0.36183  0.31640  Biso   1.000  O
  O72      1.0000 0.55340  0.63817  0.81640  Biso   1.000  O
  O73      1.0000 0.26650  0.26337  0.86060  Biso   1.000  O
  O74      1.0000 0.73350  0.73663  0.36060  Biso   1.000  O
  O75      1.0000 0.73350  0.26337  0.86060  Biso   1.000  O
  O76      1.0000 0.26650  0.73663  0.36060  Biso   1.000  O
  O77      1.0000 0.76650  0.76337  0.86060  Biso   1.000  O
  O78      1.0000 0.23350  0.23663  0.36060  Biso   1.000  O
  O79      1.0000 0.23350  0.76337  0.86060  Biso   1.000  O
  O80      1.0000 0.76650  0.23663  0.36060  Biso   1.000  O
  O81      1.0000 0.31605  0.22279  0.53670  Biso   1.000  O
  O82      1.0000 0.68395  0.77721  0.03670  Biso   1.000  O
  O83      1.0000 0.68395  0.22279  0.53670  Biso   1.000  O
  O84      1.0000 0.31605  0.77721  0.03670  Biso   1.000  O
  O85      1.0000 0.81605  0.72279  0.53670  Biso   1.000  O
  O86      1.0000 0.18395  0.27721  0.03670  Biso   1.000  O
  O87      1.0000 0.18395  0.72279  0.53670  Biso   1.000  O
  O88      1.0000 0.81605  0.27721  0.03670  Biso   1.000  O
  O89      1.0000 0.25778  0.80981  0.49550  Biso   1.000  O
  O90      1.0000 0.74222  0.19019  0.99550  Biso   1.000  O
  O91      1.0000 0.74222  0.80981  0.49550  Biso   1.000  O
  O92      1.0000 0.25778  0.19019  0.99550  Biso   1.000  O
  O93      1.0000 0.75778  0.30981  0.49550  Biso   1.000  O
  O94      1.0000 0.24222  0.69019  0.99550  Biso   1.000  O
  O95      1.0000 0.24222  0.30981  0.49550  Biso   1.000  O
  O96      1.0000 0.75778  0.69019  0.99550  Biso   1.000  O
  O97      1.0000 0.14170  0.29480  0.57250  Biso   1.000  O
  O98      1.0000 0.85830  0.70520  0.07250  Biso   1.000  O
  O99      1.0000 0.85830  0.29480  0.57250  Biso   1.000  O
  O100     1.0000 0.14170  0.70520  0.07250  Biso   1.000  O
  O101     1.0000 0.64170  0.79480  0.57250  Biso   1.000  O
  O102     1.0000 0.35830  0.20520  0.07250  Biso   1.000  O
  O103     1.0000 0.35830  0.79480  0.57250  Biso   1.000  O
  O104     1.0000 0.64170  0.20520  0.07250  Biso   1.000  O
  O105     1.0000 0.34230  0.19060  0.39120  Biso   1.000  O
  O106     1.0000 0.65770  0.80940  0.89120  Biso   1.000  O
  O107     1.0000 0.65770  0.19060  0.39120  Biso   1.000  O
  O108     1.0000 0.34230  0.80940  0.89120  Biso   1.000  O
  O109     1.0000 0.84230  0.69060  0.39120  Biso   1.000  O
  O110     1.0000 0.15770  0.30940  0.89120  Biso   1.000  O
  O111     1.0000 0.15770  0.69060  0.39120  Biso   1.000  O
  O112     1.0000 0.84230  0.30940  0.89120  Biso   1.000  O
  Cu17     1.0000 0.00000  0.06094  0.75445  Biso   1.000  Cu
  Cu18     1.0000 0.00000  0.93906  0.25445  Biso   1.000  Cu
  Cu19     1.0000 0.50000  0.56094  0.75445  Biso   1.000  Cu
  Cu20     1.0000 0.50000  0.43906  0.25445  Biso   1.000  Cu
  Cu21     1.0000 0.00000  0.13987  0.74609  Biso   1.000  Cu
  Cu22     1.0000 0.00000  0.86013  0.24609  Biso   1.000  Cu
  Cu23     1.0000 0.50000  0.63987  0.74609  Biso   1.000  Cu
  Cu24     1.0000 0.50000  0.36013  0.24609  Biso   1.000  Cu
  O113     1.0000 0.00000  0.99826  0.76240  Biso   1.000  O
  O114     1.0000 0.00000  0.00174  0.26240  Biso   1.000  O
  O115     1.0000 0.50000  0.49826  0.76240  Biso   1.000  O
  O116     1.0000 0.50000  0.50174  0.26240  Biso   1.000  O
  O117     1.0000 0.00000  0.20487  0.73010  Biso   1.000  O
  O118     1.0000 0.00000  0.79513  0.23010  Biso   1.000  O
  O119     1.0000 0.50000  0.70487  0.73010  Biso   1.000  O
  O120     1.0000 0.50000  0.29513  0.23010  Biso   1.000  O
  H133     1.0000 0.51357  0.05074  0.65567  Biso   1.000  H
  H134     1.0000 0.48643  0.94926  0.15567  Biso   1.000  H
  H135     1.0000 0.48643  0.05074  0.65567  Biso   1.000  H
  H136     1.0000 0.51357  0.94926  0.15567  Biso   1.000  H
  H137     1.0000 0.01357  0.55074  0.65567  Biso   1.000  H
  H138     1.0000 0.98643  0.44926  0.15567  Biso   1.000  H
  H139     1.0000 0.98643  0.55074  0.65567  Biso   1.000  H
  H140     1.0000 0.01357  0.44926  0.15567  Biso   1.000  H
