data_image0
_cell_length_a       7.4455
_cell_length_b       9.2175
_cell_length_c       15.23
_cell_angle_alpha    79.32
_cell_angle_beta     87.31
_cell_angle_gamma    72.85

_symmetry_space_group_name_H-M    "P 1"
_symmetry_int_tables_number       1

loop_
  _symmetry_equiv_pos_as_xyz
  'x, y, z'

loop_
  _atom_site_label
  _atom_site_occupancy
  _atom_site_fract_x
  _atom_site_fract_y
  _atom_site_fract_z
  _atom_site_thermal_displace_type
  _atom_site_B_iso_or_equiv
  _atom_site_type_symbol
  Mo1      1.0000 0.29767  0.31446  0.49413  Biso   1.000  Mo
  Mo2      1.0000 0.70233  0.68554  0.50587  Biso   1.000  Mo
  Mo3      1.0000 0.85327  0.02697  0.60104  Biso   1.000  Mo
  Mo4      1.0000 0.14673  0.97303  0.39896  Biso   1.000  Mo
  Cu1      1.0000 0.37489  0.95805  0.58656  Biso   1.000  Cu
  Cu2      1.0000 0.62511  0.04195  0.41344  Biso   1.000  Cu
  Cu3      1.0000 0.18810  0.68290  0.56293  Biso   1.000  Cu
  Cu4      1.0000 0.81190  0.31710  0.43707  Biso   1.000  Cu
  O1       1.0000 0.28330  0.17750  0.59180  Biso   1.000  O
  O2       1.0000 0.71670  0.82250  0.40820  Biso   1.000  O
  O3       1.0000 0.08470  0.90050  0.58590  Biso   1.000  O
  O4       1.0000 0.91530  0.09950  0.41410  Biso   1.000  O
  O5       1.0000 0.67860  0.97760  0.54640  Biso   1.000  O
  O6       1.0000 0.32140  0.02240  0.45360  Biso   1.000  O
  O7       1.0000 0.51320  0.25600  0.43510  Biso   1.000  O
  O8       1.0000 0.48680  0.74400  0.56490  Biso   1.000  O
  O9       1.0000 0.29800  0.48410  0.52950  Biso   1.000  O
  O10      1.0000 0.70200  0.51590  0.47050  Biso   1.000  O
  O11      1.0000 0.10780  0.35500  0.42200  Biso   1.000  O
  O12      1.0000 0.89220  0.64500  0.57800  Biso   1.000  O
  O13      1.0000 0.84200  0.22410  0.56620  Biso   1.000  O
  O14      1.0000 0.15800  0.77590  0.43380  Biso   1.000  O
  N1       1.0000 0.75940  0.41290  0.30820  Biso   1.000  N
  N2       1.0000 0.24060  0.58710  0.69180  Biso   1.000  N
  N3       1.0000 0.42780  0.89750  0.71660  Biso   1.000  N
  N4       1.0000 0.57220  0.10250  0.28340  Biso   1.000  N
  C1       1.0000 0.86680  0.35040  0.24380  Biso   1.000  C
  C2       1.0000 0.13320  0.64960  0.75620  Biso   1.000  C
  O15      1.0000 0.80930  0.00090  0.71250  Biso   1.000  O
  O16      1.0000 0.19070  0.99910  0.28750  Biso   1.000  O
  C3       1.0000 0.61450  0.54210  0.28430  Biso   1.000  C
  C4       1.0000 0.38550  0.45790  0.71570  Biso   1.000  C
  C5       1.0000 0.57500  0.61370  0.19520  Biso   1.000  C
  C6       1.0000 0.42500  0.38630  0.80480  Biso   1.000  C
  C7       1.0000 0.68820  0.54740  0.12810  Biso   1.000  C
  C8       1.0000 0.31180  0.45260  0.87190  Biso   1.000  C
  C9       1.0000 0.83480  0.41560  0.15350  Biso   1.000  C
  C10      1.0000 0.16520  0.58440  0.84650  Biso   1.000  C
  C11      1.0000 0.56060  0.76380  0.74740  Biso   1.000  C
  C12      1.0000 0.43940  0.23620  0.25260  Biso   1.000  C
  C13      1.0000 0.49960  0.79460  0.90080  Biso   1.000  C
  C14      1.0000 0.50040  0.20540  0.09920  Biso   1.000  C
  C15      1.0000 0.32970  0.97990  0.77580  Biso   1.000  C
  C16      1.0000 0.67030  0.02010  0.22420  Biso   1.000  C
  C17      1.0000 0.60160  0.71050  0.83850  Biso   1.000  C
  C18      1.0000 0.39840  0.28950  0.16150  Biso   1.000  C
  C19      1.0000 0.53340  0.74270  0.99660  Biso   1.000  C
  C20      1.0000 0.46660  0.25730  0.00340  Biso   1.000  C
  C21      1.0000 0.36490  0.93430  0.86800  Biso   1.000  C
  C22      1.0000 0.63510  0.06570  0.13200  Biso   1.000  C
  C23      1.0000 0.65570  0.61050  0.03140  Biso   1.000  C
  C24      1.0000 0.34430  0.38950  0.96860  Biso   1.000  C
  O17      1.0000 0.08750  0.63310  0.27960  Biso   1.000  O
  O18      1.0000 0.91250  0.36690  0.72040  Biso   1.000  O
  O19      1.0000 0.84100  0.98790  0.90830  Biso   1.000  O
  O20      1.0000 0.15900  0.01210  0.09170  Biso   1.000  O
  O21      1.0000 0.94230  0.26300  0.91860  Biso   1.000  O
  O22      1.0000 0.05770  0.73700  0.08140  Biso   1.000  O
