data_image0
_cell_length_a       11.461
_cell_length_b       7.7829
_cell_length_c       19.295
_cell_angle_alpha    90
_cell_angle_beta     100.81
_cell_angle_gamma    90

_symmetry_space_group_name_H-M    "P 1"
_symmetry_int_tables_number       1

loop_
  _symmetry_equiv_pos_as_xyz
  'x, y, z'

loop_
  _atom_site_label
  _atom_site_occupancy
  _atom_site_fract_x
  _atom_site_fract_y
  _atom_site_fract_z
  _atom_site_thermal_displace_type
  _atom_site_B_iso_or_equiv
  _atom_site_type_symbol
  Cu1      1.0000 0.74932  0.17479  0.12237  Biso   1.000  Cu
  Cu2      1.0000 0.25068  0.67479  0.37763  Biso   1.000  Cu
  Cu3      1.0000 0.25068  0.82521  0.87763  Biso   1.000  Cu
  Cu4      1.0000 0.74932  0.32521  0.62237  Biso   1.000  Cu
  N1       1.0000 0.81720  0.17200  0.22789  Biso   1.000  N
  N2       1.0000 0.18280  0.67200  0.27211  Biso   1.000  N
  N3       1.0000 0.18280  0.82800  0.77211  Biso   1.000  N
  N4       1.0000 0.81720  0.32800  0.72789  Biso   1.000  N
  N5       1.0000 0.92520  0.16690  0.12054  Biso   1.000  N
  N6       1.0000 0.07480  0.66690  0.37946  Biso   1.000  N
  N7       1.0000 0.07480  0.83310  0.87946  Biso   1.000  N
  N8       1.0000 0.92520  0.33310  0.62054  Biso   1.000  N
  C1       1.0000 0.75360  0.17390  0.27916  Biso   1.000  C
  C2       1.0000 0.24640  0.67390  0.22084  Biso   1.000  C
  C3       1.0000 0.24640  0.82610  0.72084  Biso   1.000  C
  C4       1.0000 0.75360  0.32610  0.77916  Biso   1.000  C
  H1       1.0000 0.67130  0.18270  0.26740  Biso   1.000  H
  H2       1.0000 0.32870  0.68270  0.23260  Biso   1.000  H
  H3       1.0000 0.32870  0.81730  0.73260  Biso   1.000  H
  H4       1.0000 0.67130  0.31730  0.76740  Biso   1.000  H
  C5       1.0000 0.93550  0.15920  0.24443  Biso   1.000  C
  C6       1.0000 0.06450  0.65920  0.25557  Biso   1.000  C
  C7       1.0000 0.06450  0.84080  0.75557  Biso   1.000  C
  C8       1.0000 0.93550  0.34080  0.74443  Biso   1.000  C
  C9       1.0000 0.97310  0.17040  0.06253  Biso   1.000  C
  C10      1.0000 0.02690  0.67040  0.43747  Biso   1.000  C
  C11      1.0000 0.02690  0.82960  0.93747  Biso   1.000  C
  C12      1.0000 0.97310  0.32960  0.56253  Biso   1.000  C
  H5       1.0000 0.92340  0.17550  0.01860  Biso   1.000  H
  H6       1.0000 0.07660  0.67550  0.48140  Biso   1.000  H
  H7       1.0000 0.07660  0.82450  0.98140  Biso   1.000  H
  H8       1.0000 0.92340  0.32450  0.51860  Biso   1.000  H
  C13      1.0000 0.99710  0.15890  0.18410  Biso   1.000  C
  C14      1.0000 0.00290  0.65890  0.31590  Biso   1.000  C
  C15      1.0000 0.00290  0.84110  0.81590  Biso   1.000  C
  C16      1.0000 0.99710  0.34110  0.68410  Biso   1.000  C
  C17      1.0000 0.11880  0.15340  0.19090  Biso   1.000  C
  C18      1.0000 0.88120  0.65340  0.30910  Biso   1.000  C
  C19      1.0000 0.88120  0.84660  0.80910  Biso   1.000  C
  C20      1.0000 0.11880  0.34660  0.69090  Biso   1.000  C
  H9       1.0000 0.16740  0.14730  0.23520  Biso   1.000  H
  H10      1.0000 0.83260  0.64730  0.26480  Biso   1.000  H
  H11      1.0000 0.83260  0.85270  0.76480  Biso   1.000  H
  H12      1.0000 0.16740  0.35270  0.73520  Biso   1.000  H
  C21      1.0000 0.80770  0.16300  0.34999  Biso   1.000  C
  C22      1.0000 0.19230  0.66300  0.15001  Biso   1.000  C
  C23      1.0000 0.19230  0.83700  0.65001  Biso   1.000  C
  C24      1.0000 0.80770  0.33700  0.84999  Biso   1.000  C
  H13      1.0000 0.76260  0.16640  0.38530  Biso   1.000  H
  H14      1.0000 0.23740  0.66640  0.11470  Biso   1.000  H
  H15      1.0000 0.23740  0.83360  0.61470  Biso   1.000  H
  H16      1.0000 0.76260  0.33360  0.88530  Biso   1.000  H
  C25      1.0000 0.99400  0.14690  0.31394  Biso   1.000  C
  C26      1.0000 0.00600  0.64690  0.18606  Biso   1.000  C
  C27      1.0000 0.00600  0.85310  0.68606  Biso   1.000  C
  C28      1.0000 0.99400  0.35310  0.81394  Biso   1.000  C
  H17      1.0000 0.07630  0.13840  0.32490  Biso   1.000  H
  H18      1.0000 0.92370  0.63840  0.17510  Biso   1.000  H
  H19      1.0000 0.92370  0.86160  0.67510  Biso   1.000  H
  H20      1.0000 0.07630  0.36160  0.82490  Biso   1.000  H
  C29      1.0000 0.16670  0.15690  0.13120  Biso   1.000  C
  C30      1.0000 0.83330  0.65690  0.36880  Biso   1.000  C
  C31      1.0000 0.83330  0.84310  0.86880  Biso   1.000  C
  C32      1.0000 0.16670  0.34310  0.63120  Biso   1.000  C
  H21      1.0000 0.24870  0.15260  0.13470  Biso   1.000  H
  H22      1.0000 0.75130  0.65260  0.36530  Biso   1.000  H
  H23      1.0000 0.75130  0.84740  0.86530  Biso   1.000  H
  H24      1.0000 0.24870  0.34740  0.63470  Biso   1.000  H
  C33      1.0000 0.09440  0.16680  0.06620  Biso   1.000  C
  C34      1.0000 0.90560  0.66680  0.43380  Biso   1.000  C
  C35      1.0000 0.90560  0.83320  0.93380  Biso   1.000  C
  C36      1.0000 0.09440  0.33320  0.56620  Biso   1.000  C
  H25      1.0000 0.12650  0.17090  0.02540  Biso   1.000  H
  H26      1.0000 0.87350  0.67090  0.47460  Biso   1.000  H
  H27      1.0000 0.87350  0.82910  0.97460  Biso   1.000  H
  H28      1.0000 0.12650  0.32910  0.52540  Biso   1.000  H
  C37      1.0000 0.92760  0.14750  0.36636  Biso   1.000  C
  C38      1.0000 0.07240  0.64750  0.13364  Biso   1.000  C
  C39      1.0000 0.07240  0.85250  0.63364  Biso   1.000  C
  C40      1.0000 0.92760  0.35250  0.86636  Biso   1.000  C
  H29      1.0000 0.96510  0.13710  0.41330  Biso   1.000  H
  H30      1.0000 0.03490  0.63710  0.08670  Biso   1.000  H
  H31      1.0000 0.03490  0.86290  0.58670  Biso   1.000  H
  H32      1.0000 0.96510  0.36290  0.91330  Biso   1.000  H
  O1       1.0000 0.75559  0.46840  0.12408  Biso   1.000  O
  O2       1.0000 0.24441  0.96840  0.37592  Biso   1.000  O
  O3       1.0000 0.24441  0.53160  0.87592  Biso   1.000  O
  O4       1.0000 0.75559  0.03160  0.62408  Biso   1.000  O
  O5       1.0000 0.74070  0.87880  0.12660  Biso   1.000  O
  O6       1.0000 0.25930  0.37880  0.37340  Biso   1.000  O
  O7       1.0000 0.25930  0.12120  0.87340  Biso   1.000  O
  O8       1.0000 0.74070  0.62120  0.62660  Biso   1.000  O
  O9       1.0000 0.61770  0.46330  0.96080  Biso   1.000  O
  O10      1.0000 0.38230  0.96330  0.53920  Biso   1.000  O
  O11      1.0000 0.38230  0.53670  0.03920  Biso   1.000  O
  O12      1.0000 0.61770  0.03670  0.46080  Biso   1.000  O
  O13      1.0000 0.60167  0.88200  0.96404  Biso   1.000  O
  O14      1.0000 0.39833  0.38200  0.53596  Biso   1.000  O
  O15      1.0000 0.39833  0.11800  0.03596  Biso   1.000  O
  O16      1.0000 0.60167  0.61800  0.46404  Biso   1.000  O
  C41      1.0000 0.64930  0.58050  0.00600  Biso   1.000  C
  C42      1.0000 0.35070  0.08050  0.49400  Biso   1.000  C
  C43      1.0000 0.35070  0.41950  0.99400  Biso   1.000  C
  C44      1.0000 0.64930  0.91950  0.50600  Biso   1.000  C
  C45      1.0000 0.71290  0.57910  0.07982  Biso   1.000  C
  C46      1.0000 0.28710  0.07910  0.42018  Biso   1.000  C
  C47      1.0000 0.28710  0.42090  0.92018  Biso   1.000  C
  C48      1.0000 0.71290  0.92090  0.57982  Biso   1.000  C
  C49      1.0000 0.64230  0.76550  0.00742  Biso   1.000  C
  C50      1.0000 0.35770  0.26550  0.49258  Biso   1.000  C
  C51      1.0000 0.35770  0.23450  0.99258  Biso   1.000  C
  C52      1.0000 0.64230  0.73450  0.50742  Biso   1.000  C
  C53      1.0000 0.70620  0.76670  0.08063  Biso   1.000  C
  C54      1.0000 0.29380  0.26670  0.41937  Biso   1.000  C
  C55      1.0000 0.29380  0.23330  0.91937  Biso   1.000  C
  C56      1.0000 0.70620  0.73330  0.58063  Biso   1.000  C
  O17      1.0000 0.58388  0.18610  0.13855  Biso   1.000  O
  O18      1.0000 0.41612  0.68610  0.36145  Biso   1.000  O
  O19      1.0000 0.41612  0.81390  0.86145  Biso   1.000  O
  O20      1.0000 0.58388  0.31390  0.63855  Biso   1.000  O
  O21      1.0000 0.70260  0.16980  0.01710  Biso   1.000  O
  O22      1.0000 0.29740  0.66980  0.48290  Biso   1.000  O
  O23      1.0000 0.29740  0.83020  0.98290  Biso   1.000  O
  O24      1.0000 0.70260  0.33020  0.51710  Biso   1.000  O
  H33      1.0000 0.56470  0.31180  0.15470  Biso   1.000  H
  H34      1.0000 0.43530  0.81180  0.34530  Biso   1.000  H
  H35      1.0000 0.43530  0.68820  0.84530  Biso   1.000  H
  H36      1.0000 0.56470  0.18820  0.65470  Biso   1.000  H
  H37      1.0000 0.66160  0.28240  0.00090  Biso   1.000  H
  H38      1.0000 0.33840  0.78240  0.49910  Biso   1.000  H
  H39      1.0000 0.33840  0.71760  0.99910  Biso   1.000  H
  H40      1.0000 0.66160  0.21760  0.50090  Biso   1.000  H
  H41      1.0000 0.65970  0.06590  0.00170  Biso   1.000  H
  H42      1.0000 0.34030  0.56590  0.49830  Biso   1.000  H
  H43      1.0000 0.34030  0.93410  0.99830  Biso   1.000  H
  H44      1.0000 0.65970  0.43410  0.50170  Biso   1.000  H
  H45      1.0000 0.52350  0.16450  0.10730  Biso   1.000  H
  H46      1.0000 0.47650  0.66450  0.39270  Biso   1.000  H
  H47      1.0000 0.47650  0.83550  0.89270  Biso   1.000  H
  H48      1.0000 0.52350  0.33550  0.60730  Biso   1.000  H
  O25      1.0000 0.49013  0.48180  0.17693  Biso   1.000  O
  O26      1.0000 0.50987  0.98180  0.32307  Biso   1.000  O
  O27      1.0000 0.50987  0.51820  0.82307  Biso   1.000  O
  O28      1.0000 0.49013  0.01820  0.67693  Biso   1.000  O
  H49      1.0000 0.54360  0.57350  0.19390  Biso   1.000  H
  H50      1.0000 0.45640  0.07350  0.30610  Biso   1.000  H
  H51      1.0000 0.45640  0.42650  0.80610  Biso   1.000  H
  H52      1.0000 0.54360  0.92650  0.69390  Biso   1.000  H
  H53      1.0000 0.46200  0.50300  0.13390  Biso   1.000  H
  H54      1.0000 0.53800  0.00300  0.36610  Biso   1.000  H
  H55      1.0000 0.53800  0.49700  0.86610  Biso   1.000  H
  H56      1.0000 0.46200  0.99700  0.63390  Biso   1.000  H
  O29      1.0000 0.60800  0.76940  0.23116  Biso   1.000  O
  O30      1.0000 0.39200  0.26940  0.26884  Biso   1.000  O
  O31      1.0000 0.39200  0.23060  0.76884  Biso   1.000  O
  O32      1.0000 0.60800  0.73060  0.73116  Biso   1.000  O
  H57      1.0000 0.65070  0.81960  0.20270  Biso   1.000  H
  H58      1.0000 0.34930  0.31960  0.29730  Biso   1.000  H
  H59      1.0000 0.34930  0.18040  0.79730  Biso   1.000  H
  H60      1.0000 0.65070  0.68040  0.70270  Biso   1.000  H
  H61      1.0000 0.56840  0.85950  0.24440  Biso   1.000  H
  H62      1.0000 0.43160  0.35950  0.25560  Biso   1.000  H
  H63      1.0000 0.43160  0.14050  0.75560  Biso   1.000  H
  H64      1.0000 0.56840  0.64050  0.74440  Biso   1.000  H
