data_image0
_cell_length_a       11.125
_cell_length_b       9.149
_cell_length_c       15.18
_cell_angle_alpha    90
_cell_angle_beta     90
_cell_angle_gamma    90

_symmetry_space_group_name_H-M    "P 1"
_symmetry_int_tables_number       1

loop_
  _symmetry_equiv_pos_as_xyz
  'x, y, z'

loop_
  _atom_site_label
  _atom_site_occupancy
  _atom_site_fract_x
  _atom_site_fract_y
  _atom_site_fract_z
  _atom_site_thermal_displace_type
  _atom_site_B_iso_or_equiv
  _atom_site_type_symbol
  Cu1      1.0000 0.08430  0.63270  0.59900  Biso   1.000  Cu
  Cu2      1.0000 0.91570  0.36730  0.09900  Biso   1.000  Cu
  Cu3      1.0000 0.41570  0.63270  0.09900  Biso   1.000  Cu
  Cu4      1.0000 0.58430  0.36730  0.59900  Biso   1.000  Cu
  N1       1.0000 0.94650  0.48930  0.60500  Biso   1.000  N
  N2       1.0000 0.05350  0.51070  0.10500  Biso   1.000  N
  N3       1.0000 0.55350  0.48930  0.10500  Biso   1.000  N
  N4       1.0000 0.44650  0.51070  0.60500  Biso   1.000  N
  N5       1.0000 0.76710  0.38390  0.60730  Biso   1.000  N
  N6       1.0000 0.23290  0.61610  0.10730  Biso   1.000  N
  N7       1.0000 0.73290  0.38390  0.10730  Biso   1.000  N
  N8       1.0000 0.26710  0.61610  0.60730  Biso   1.000  N
  N9       1.0000 0.08790  0.59750  0.46980  Biso   1.000  N
  N10      1.0000 0.91210  0.40250  0.96980  Biso   1.000  N
  N11      1.0000 0.41210  0.59750  0.96980  Biso   1.000  N
  N12      1.0000 0.58790  0.40250  0.46980  Biso   1.000  N
  N13      1.0000 0.04980  0.86860  0.57530  Biso   1.000  N
  N14      1.0000 0.95020  0.13140  0.07530  Biso   1.000  N
  N15      1.0000 0.45020  0.86860  0.07530  Biso   1.000  N
  N16      1.0000 0.54980  0.13140  0.57530  Biso   1.000  N
  N17      1.0000 0.06510  0.64820  0.72970  Biso   1.000  N
  N18      1.0000 0.93490  0.35180  0.22970  Biso   1.000  N
  N19      1.0000 0.43490  0.64820  0.22970  Biso   1.000  N
  N20      1.0000 0.56510  0.35180  0.72970  Biso   1.000  N
  C1       1.0000 0.95750  0.35550  0.64180  Biso   1.000  C
  C2       1.0000 0.04250  0.64450  0.14180  Biso   1.000  C
  C3       1.0000 0.54250  0.35550  0.14180  Biso   1.000  C
  C4       1.0000 0.45750  0.64450  0.64180  Biso   1.000  C
  C5       1.0000 0.84910  0.29250  0.64450  Biso   1.000  C
  C6       1.0000 0.15090  0.70750  0.14450  Biso   1.000  C
  C7       1.0000 0.65090  0.29250  0.14450  Biso   1.000  C
  C8       1.0000 0.34910  0.70750  0.64450  Biso   1.000  C
  C9       1.0000 0.83040  0.50000  0.58590  Biso   1.000  C
  C10      1.0000 0.16960  0.50000  0.08590  Biso   1.000  C
  C11      1.0000 0.66960  0.50000  0.08590  Biso   1.000  C
  C12      1.0000 0.33040  0.50000  0.58590  Biso   1.000  C
  C13      1.0000 0.15860  0.69460  0.41430  Biso   1.000  C
  C14      1.0000 0.84140  0.30540  0.91430  Biso   1.000  C
  C15      1.0000 0.34140  0.69460  0.91430  Biso   1.000  C
  C16      1.0000 0.65860  0.30540  0.41430  Biso   1.000  C
  C17      1.0000 0.11190  0.84410  0.41630  Biso   1.000  C
  C18      1.0000 0.88810  0.15590  0.91630  Biso   1.000  C
  C19      1.0000 0.38810  0.84410  0.91630  Biso   1.000  C
  C20      1.0000 0.61190  0.15590  0.41630  Biso   1.000  C
  C21      1.0000 0.12210  0.92510  0.50160  Biso   1.000  C
  C22      1.0000 0.87790  0.07490  0.00160  Biso   1.000  C
  C23      1.0000 0.37790  0.92510  0.00160  Biso   1.000  C
  C24      1.0000 0.62210  0.07490  0.50160  Biso   1.000  C
  C25      1.0000 0.07740  0.96100  0.65220  Biso   1.000  C
  C26      1.0000 0.92260  0.03900  0.15220  Biso   1.000  C
  C27      1.0000 0.42260  0.96100  0.15220  Biso   1.000  C
  C28      1.0000 0.57740  0.03900  0.65220  Biso   1.000  C
  C29      1.0000 0.02820  0.91180  0.73720  Biso   1.000  C
  C30      1.0000 0.97180  0.08820  0.23720  Biso   1.000  C
  C31      1.0000 0.47180  0.91180  0.23720  Biso   1.000  C
  C32      1.0000 0.52820  0.08820  0.73720  Biso   1.000  C
  C33      1.0000 0.08910  0.78600  0.77900  Biso   1.000  C
  C34      1.0000 0.91090  0.21400  0.27900  Biso   1.000  C
  C35      1.0000 0.41090  0.78600  0.27900  Biso   1.000  C
  C36      1.0000 0.58910  0.21400  0.77900  Biso   1.000  C
  C37      1.0000 0.92180  0.88230  0.55450  Biso   1.000  C
  C38      1.0000 0.07820  0.11770  0.05450  Biso   1.000  C
  C39      1.0000 0.57820  0.88230  0.05450  Biso   1.000  C
  C40      1.0000 0.42180  0.11770  0.55450  Biso   1.000  C
  Cl1      1.0000 0.26010  0.29590  0.33600  Biso   1.000  Cl
  Cl2      1.0000 0.73990  0.70410  0.83600  Biso   1.000  Cl
  Cl3      1.0000 0.23990  0.29590  0.83600  Biso   1.000  Cl
  Cl4      1.0000 0.76010  0.70410  0.33600  Biso   1.000  Cl
  O1       1.0000 0.35540  0.38320  0.36110  Biso   1.000  O
  O2       1.0000 0.64460  0.61680  0.86110  Biso   1.000  O
  O3       1.0000 0.14460  0.38320  0.86110  Biso   1.000  O
  O4       1.0000 0.85540  0.61680  0.36110  Biso   1.000  O
  O5       1.0000 0.17240  0.29520  0.40190  Biso   1.000  O
  O6       1.0000 0.82760  0.70480  0.90190  Biso   1.000  O
  O7       1.0000 0.32760  0.29520  0.90190  Biso   1.000  O
  O8       1.0000 0.67240  0.70480  0.40190  Biso   1.000  O
  O9       1.0000 0.29250  0.15460  0.32730  Biso   1.000  O
  O10      1.0000 0.70750  0.84540  0.82730  Biso   1.000  O
  O11      1.0000 0.20750  0.15460  0.82730  Biso   1.000  O
  O12      1.0000 0.79250  0.84540  0.32730  Biso   1.000  O
  O13      1.0000 0.21350  0.35310  0.26350  Biso   1.000  O
  O14      1.0000 0.78650  0.64690  0.76350  Biso   1.000  O
  O15      1.0000 0.28650  0.35310  0.76350  Biso   1.000  O
  O16      1.0000 0.71350  0.64690  0.26350  Biso   1.000  O
  H1       1.0000 0.01160  0.59870  0.45020  Biso   1.000  H
  H2       1.0000 0.98840  0.40130  0.95020  Biso   1.000  H
  H3       1.0000 0.48840  0.59870  0.95020  Biso   1.000  H
  H4       1.0000 0.51160  0.40130  0.45020  Biso   1.000  H
  H5       1.0000 0.11630  0.50650  0.46120  Biso   1.000  H
  H6       1.0000 0.88370  0.49350  0.96120  Biso   1.000  H
  H7       1.0000 0.38370  0.50650  0.96120  Biso   1.000  H
  H8       1.0000 0.61630  0.49350  0.46120  Biso   1.000  H
  H9       1.0000 0.11200  0.57870  0.75360  Biso   1.000  H
  H10      1.0000 0.88800  0.42130  0.25360  Biso   1.000  H
  H11      1.0000 0.38800  0.57870  0.25360  Biso   1.000  H
  H12      1.0000 0.61200  0.42130  0.75360  Biso   1.000  H
  H13      1.0000 0.98860  0.62310  0.74170  Biso   1.000  H
  H14      1.0000 0.01140  0.37690  0.24170  Biso   1.000  H
  H15      1.0000 0.51140  0.62310  0.24170  Biso   1.000  H
  H16      1.0000 0.48860  0.37690  0.74170  Biso   1.000  H
  H17      1.0000 0.03120  0.31180  0.66140  Biso   1.000  H
  H18      1.0000 0.96880  0.68820  0.16140  Biso   1.000  H
  H19      1.0000 0.46880  0.31180  0.16140  Biso   1.000  H
  H20      1.0000 0.53120  0.68820  0.66140  Biso   1.000  H
  H21      1.0000 0.83130  0.19860  0.66960  Biso   1.000  H
  H22      1.0000 0.16870  0.80140  0.16960  Biso   1.000  H
  H23      1.0000 0.66870  0.19860  0.16960  Biso   1.000  H
  H24      1.0000 0.33130  0.80140  0.66960  Biso   1.000  H
  H25      1.0000 0.79550  0.58570  0.55980  Biso   1.000  H
  H26      1.0000 0.20450  0.41430  0.05980  Biso   1.000  H
  H27      1.0000 0.70450  0.58570  0.05980  Biso   1.000  H
  H28      1.0000 0.29550  0.41430  0.55980  Biso   1.000  H
  H29      1.0000 0.15730  0.66070  0.35450  Biso   1.000  H
  H30      1.0000 0.84270  0.33930  0.85450  Biso   1.000  H
  H31      1.0000 0.34270  0.66070  0.85450  Biso   1.000  H
  H32      1.0000 0.65730  0.33930  0.35450  Biso   1.000  H
  H33      1.0000 0.24050  0.69460  0.43410  Biso   1.000  H
  H34      1.0000 0.75950  0.30540  0.93410  Biso   1.000  H
  H35      1.0000 0.25950  0.69460  0.93410  Biso   1.000  H
  H36      1.0000 0.74050  0.30540  0.43410  Biso   1.000  H
  H37      1.0000 0.02820  0.83990  0.40100  Biso   1.000  H
  H38      1.0000 0.97180  0.16010  0.90100  Biso   1.000  H
  H39      1.0000 0.47180  0.83990  0.90100  Biso   1.000  H
  H40      1.0000 0.52820  0.16010  0.40100  Biso   1.000  H
  H41      1.0000 0.15180  0.89980  0.37140  Biso   1.000  H
  H42      1.0000 0.84820  0.10020  0.87140  Biso   1.000  H
  H43      1.0000 0.34820  0.89980  0.87140  Biso   1.000  H
  H44      1.0000 0.65180  0.10020  0.37140  Biso   1.000  H
  H45      1.0000 0.20520  0.92650  0.51860  Biso   1.000  H
  H46      1.0000 0.79480  0.07350  0.01860  Biso   1.000  H
  H47      1.0000 0.29480  0.92650  0.01860  Biso   1.000  H
  H48      1.0000 0.70520  0.07350  0.51860  Biso   1.000  H
  H49      1.0000 0.09770  0.02450  0.49200  Biso   1.000  H
  H50      1.0000 0.90230  0.97550  0.99200  Biso   1.000  H
  H51      1.0000 0.40230  0.02450  0.99200  Biso   1.000  H
  H52      1.0000 0.59770  0.97550  0.49200  Biso   1.000  H
  H53      1.0000 0.04800  0.05770  0.64020  Biso   1.000  H
  H54      1.0000 0.95200  0.94230  0.14020  Biso   1.000  H
  H55      1.0000 0.45200  0.05770  0.14020  Biso   1.000  H
  H56      1.0000 0.54800  0.94230  0.64020  Biso   1.000  H
  H57      1.0000 0.16310  0.96730  0.65830  Biso   1.000  H
  H58      1.0000 0.83690  0.03270  0.15830  Biso   1.000  H
  H59      1.0000 0.33690  0.96730  0.15830  Biso   1.000  H
  H60      1.0000 0.66310  0.03270  0.65830  Biso   1.000  H
  H61      1.0000 0.94560  0.88500  0.72830  Biso   1.000  H
  H62      1.0000 0.05440  0.11500  0.22830  Biso   1.000  H
  H63      1.0000 0.55440  0.88500  0.22830  Biso   1.000  H
  H64      1.0000 0.44560  0.11500  0.72830  Biso   1.000  H
  H65      1.0000 0.02930  0.99240  0.77770  Biso   1.000  H
  H66      1.0000 0.97070  0.00760  0.27770  Biso   1.000  H
  H67      1.0000 0.47070  0.99240  0.27770  Biso   1.000  H
  H68      1.0000 0.52930  0.00760  0.77770  Biso   1.000  H
  H69      1.0000 0.17400  0.80410  0.78090  Biso   1.000  H
  H70      1.0000 0.82600  0.19590  0.28090  Biso   1.000  H
  H71      1.0000 0.32600  0.80410  0.28090  Biso   1.000  H
  H72      1.0000 0.67400  0.19590  0.78090  Biso   1.000  H
  H73      1.0000 0.06060  0.77650  0.83840  Biso   1.000  H
  H74      1.0000 0.93940  0.22350  0.33840  Biso   1.000  H
  H75      1.0000 0.43940  0.77650  0.33840  Biso   1.000  H
  H76      1.0000 0.56060  0.22350  0.83840  Biso   1.000  H
  H77      1.0000 0.90200  0.98280  0.54380  Biso   1.000  H
  H78      1.0000 0.09800  0.01720  0.04380  Biso   1.000  H
  H79      1.0000 0.59800  0.98280  0.04380  Biso   1.000  H
  H80      1.0000 0.40200  0.01720  0.54380  Biso   1.000  H
  H81      1.0000 0.90430  0.82550  0.50290  Biso   1.000  H
  H82      1.0000 0.09570  0.17450  0.00290  Biso   1.000  H
  H83      1.0000 0.59570  0.82550  0.00290  Biso   1.000  H
  H84      1.0000 0.40430  0.17450  0.50290  Biso   1.000  H
  H85      1.0000 0.87520  0.84650  0.60320  Biso   1.000  H
  H86      1.0000 0.12480  0.15350  0.10320  Biso   1.000  H
  H87      1.0000 0.62480  0.84650  0.10320  Biso   1.000  H
  H88      1.0000 0.37520  0.15350  0.60320  Biso   1.000  H
