data_image0
_cell_length_a       10.419
_cell_length_b       15.5925
_cell_length_c       18.4105
_cell_angle_alpha    99.271
_cell_angle_beta     102.7
_cell_angle_gamma    90.104

_symmetry_space_group_name_H-M    "P 1"
_symmetry_int_tables_number       1

loop_
  _symmetry_equiv_pos_as_xyz
  'x, y, z'

loop_
  _atom_site_label
  _atom_site_occupancy
  _atom_site_fract_x
  _atom_site_fract_y
  _atom_site_fract_z
  _atom_site_thermal_displace_type
  _atom_site_B_iso_or_equiv
  _atom_site_type_symbol
  C1       1.0000 0.99880  0.21810  0.89640  Biso   1.000  C
  C2       1.0000 0.00120  0.78190  0.10360  Biso   1.000  C
  H1       1.0000 0.04390  0.16350  0.88820  Biso   1.000  H
  H2       1.0000 0.95610  0.83650  0.11180  Biso   1.000  H
  H3       1.0000 0.02870  0.24620  0.94910  Biso   1.000  H
  H4       1.0000 0.97130  0.75380  0.05090  Biso   1.000  H
  H5       1.0000 0.90350  0.20600  0.88530  Biso   1.000  H
  H6       1.0000 0.09650  0.79400  0.11470  Biso   1.000  H
  C3       1.0000 0.93150  0.35270  0.84290  Biso   1.000  C
  C4       1.0000 0.06850  0.64730  0.15710  Biso   1.000  C
  H7       1.0000 0.95370  0.39340  0.89070  Biso   1.000  H
  H8       1.0000 0.04630  0.60660  0.10930  Biso   1.000  H
  H9       1.0000 0.93730  0.38330  0.80120  Biso   1.000  H
  H10      1.0000 0.06270  0.61670  0.19880  Biso   1.000  H
  H11      1.0000 0.84180  0.32860  0.83540  Biso   1.000  H
  H12      1.0000 0.15820  0.67140  0.16460  Biso   1.000  H
  C5       1.0000 0.16270  0.33150  0.87350  Biso   1.000  C
  C6       1.0000 0.83730  0.66850  0.12650  Biso   1.000  C
  H13      1.0000 0.23560  0.29210  0.88210  Biso   1.000  H
  H14      1.0000 0.76440  0.70790  0.11790  Biso   1.000  H
  H15      1.0000 0.17460  0.36620  0.83540  Biso   1.000  H
  H16      1.0000 0.82540  0.63380  0.16460  Biso   1.000  H
  H17      1.0000 0.16130  0.37030  0.92080  Biso   1.000  H
  H18      1.0000 0.83870  0.62970  0.07920  Biso   1.000  H
  C7       1.0000 0.03000  0.27750  0.84530  Biso   1.000  C
  C8       1.0000 0.97000  0.72250  0.15470  Biso   1.000  C
  C9       1.0000 0.95090  0.79900  0.10130  Biso   1.000  C
  C10      1.0000 0.04910  0.20100  0.89870  Biso   1.000  C
  H19      1.0000 0.03860  0.82580  0.10750  Biso   1.000  H
  H20      1.0000 0.96140  0.17420  0.89250  Biso   1.000  H
  H21      1.0000 0.89040  0.84380  0.11500  Biso   1.000  H
  H22      1.0000 0.10960  0.15620  0.88500  Biso   1.000  H
  H23      1.0000 0.91860  0.77150  0.04860  Biso   1.000  H
  H24      1.0000 0.08140  0.22850  0.95140  Biso   1.000  H
  C11      1.0000 0.06290  0.66720  0.14210  Biso   1.000  C
  C12      1.0000 0.93710  0.33280  0.85790  Biso   1.000  C
  H25      1.0000 0.14810  0.69870  0.15170  Biso   1.000  H
  H26      1.0000 0.85190  0.30130  0.84830  Biso   1.000  H
  H27      1.0000 0.04190  0.63540  0.09030  Biso   1.000  H
  H28      1.0000 0.95810  0.36460  0.90970  Biso   1.000  H
  H29      1.0000 0.06740  0.62610  0.17760  Biso   1.000  H
  H30      1.0000 0.93260  0.37390  0.82240  Biso   1.000  H
  C13      1.0000 0.81840  0.68880  0.12660  Biso   1.000  C
  C14      1.0000 0.18160  0.31120  0.87340  Biso   1.000  C
  H31      1.0000 0.80440  0.66010  0.07390  Biso   1.000  H
  H32      1.0000 0.19560  0.33990  0.92610  Biso   1.000  H
  H33      1.0000 0.75410  0.73410  0.13090  Biso   1.000  H
  H34      1.0000 0.24590  0.26590  0.86910  Biso   1.000  H
  H35      1.0000 0.80750  0.64590  0.15850  Biso   1.000  H
  H36      1.0000 0.19250  0.35410  0.84150  Biso   1.000  H
  C15      1.0000 0.95870  0.73030  0.15260  Biso   1.000  C
  C16      1.0000 0.04130  0.26970  0.84740  Biso   1.000  C
  C17      1.0000 0.01770  0.22940  0.76407  Biso   1.000  C
  C18      1.0000 0.98230  0.77060  0.23593  Biso   1.000  C
  C19      1.0000 0.92360  0.16250  0.73260  Biso   1.000  C
  C20      1.0000 0.07640  0.83750  0.26740  Biso   1.000  C
  H37      1.0000 0.87110  0.14520  0.76420  Biso   1.000  H
  H38      1.0000 0.12890  0.85480  0.23580  Biso   1.000  H
  C21      1.0000 0.90030  0.11900  0.65830  Biso   1.000  C
  C22      1.0000 0.09970  0.88100  0.34170  Biso   1.000  C
  C23      1.0000 0.78920  0.05290  0.62872  Biso   1.000  C
  C24      1.0000 0.21080  0.94710  0.37128  Biso   1.000  C
  C25      1.0000 0.67970  0.05080  0.66060  Biso   1.000  C
  C26      1.0000 0.32030  0.94920  0.33940  Biso   1.000  C
  H39      1.0000 0.67430  0.09220  0.70370  Biso   1.000  H
  H40      1.0000 0.32570  0.90780  0.29630  Biso   1.000  H
  C27      1.0000 0.57930  0.98890  0.62990  Biso   1.000  C
  C28      1.0000 0.42070  0.01110  0.37010  Biso   1.000  C
  H41      1.0000 0.50530  0.98790  0.65210  Biso   1.000  H
  H42      1.0000 0.49470  0.01210  0.34790  Biso   1.000  H
  C29      1.0000 0.58550  0.92840  0.56740  Biso   1.000  C
  C30      1.0000 0.41450  0.07160  0.43260  Biso   1.000  C
  H43      1.0000 0.51590  0.88590  0.54700  Biso   1.000  H
  H44      1.0000 0.48410  0.11410  0.45300  Biso   1.000  H
  C31      1.0000 0.69310  0.92890  0.53370  Biso   1.000  C
  C32      1.0000 0.30690  0.07110  0.46630  Biso   1.000  C
  C33      1.0000 0.79300  0.99220  0.56498  Biso   1.000  C
  C34      1.0000 0.20700  0.00780  0.43502  Biso   1.000  C
  H45      1.0000 0.86610  0.99390  0.54210  Biso   1.000  H
  H46      1.0000 0.13390  0.00610  0.45790  Biso   1.000  H
  C35      1.0000 0.70760  0.86400  0.46670  Biso   1.000  C
  C36      1.0000 0.29240  0.13600  0.53330  Biso   1.000  C
  C37      1.0000 0.60360  0.80710  0.42760  Biso   1.000  C
  C38      1.0000 0.39640  0.19290  0.57240  Biso   1.000  C
  H47      1.0000 0.52350  0.81130  0.44440  Biso   1.000  H
  H48      1.0000 0.47650  0.18870  0.55560  Biso   1.000  H
  C39      1.0000 0.60860  0.74360  0.36490  Biso   1.000  C
  C40      1.0000 0.39140  0.25640  0.63510  Biso   1.000  C
  C41      1.0000 0.48970  0.68720  0.32100  Biso   1.000  C
  C42      1.0000 0.51030  0.31280  0.67900  Biso   1.000  C
  C43      1.0000 0.37030  0.69870  0.35280  Biso   1.000  C
  C44      1.0000 0.62970  0.30130  0.64720  Biso   1.000  C
  H49      1.0000 0.34900  0.76030  0.35920  Biso   1.000  H
  H50      1.0000 0.65100  0.23970  0.64080  Biso   1.000  H
  H51      1.0000 0.29620  0.66430  0.31830  Biso   1.000  H
  H52      1.0000 0.70380  0.33570  0.68170  Biso   1.000  H
  H53      1.0000 0.38690  0.67920  0.40190  Biso   1.000  H
  H54      1.0000 0.61310  0.32080  0.59810  Biso   1.000  H
  C45      1.0000 0.52750  0.59450  0.30600  Biso   1.000  C
  C46      1.0000 0.47250  0.40550  0.69400  Biso   1.000  C
  H55      1.0000 0.45420  0.55990  0.27090  Biso   1.000  H
  H56      1.0000 0.54580  0.44010  0.72910  Biso   1.000  H
  H57      1.0000 0.60500  0.59140  0.28380  Biso   1.000  H
  H58      1.0000 0.39500  0.40860  0.71620  Biso   1.000  H
  H59      1.0000 0.54800  0.57140  0.35350  Biso   1.000  H
  H60      1.0000 0.45200  0.42860  0.64650  Biso   1.000  H
  C47      1.0000 0.45610  0.71670  0.24140  Biso   1.000  C
  C48      1.0000 0.54390  0.28330  0.75860  Biso   1.000  C
  H61      1.0000 0.43310  0.77790  0.24730  Biso   1.000  H
  H62      1.0000 0.56690  0.22210  0.75270  Biso   1.000  H
  H63      1.0000 0.53280  0.70950  0.21860  Biso   1.000  H
  H64      1.0000 0.46720  0.29050  0.78140  Biso   1.000  H
  H65      1.0000 0.38150  0.68100  0.20880  Biso   1.000  H
  H66      1.0000 0.61850  0.31900  0.79120  Biso   1.000  H
  C49      1.0000 0.08750  0.11470  0.22820  Biso   1.000  C
  C50      1.0000 0.91250  0.88530  0.77180  Biso   1.000  C
  H67      1.0000 0.99120  0.11040  0.21230  Biso   1.000  H
  H68      1.0000 0.00880  0.88960  0.78770  Biso   1.000  H
  H69      1.0000 0.11440  0.16850  0.26430  Biso   1.000  H
  H70      1.0000 0.88560  0.83150  0.73570  Biso   1.000  H
  H71      1.0000 0.11890  0.06470  0.25230  Biso   1.000  H
  H72      1.0000 0.88110  0.93530  0.74770  Biso   1.000  H
  C51      1.0000 0.08960  0.04230  0.09470  Biso   1.000  C
  C52      1.0000 0.91040  0.95770  0.90530  Biso   1.000  C
  H73      1.0000 0.11230  0.98610  0.11030  Biso   1.000  H
  H74      1.0000 0.88770  0.01390  0.88970  Biso   1.000  H
  H75      1.0000 0.12690  0.04840  0.05130  Biso   1.000  H
  H76      1.0000 0.87310  0.95160  0.94870  Biso   1.000  H
  H77      1.0000 0.99370  0.04570  0.08070  Biso   1.000  H
  H78      1.0000 0.00630  0.95430  0.91930  Biso   1.000  H
  C53      1.0000 0.29210  0.09960  0.17700  Biso   1.000  C
  C54      1.0000 0.70790  0.90040  0.82300  Biso   1.000  C
  H79      1.0000 0.30590  0.03950  0.18550  Biso   1.000  H
  H80      1.0000 0.69410  0.96050  0.81450  Biso   1.000  H
  H81      1.0000 0.33620  0.13970  0.22230  Biso   1.000  H
  H82      1.0000 0.66380  0.86030  0.77770  Biso   1.000  H
  H83      1.0000 0.32860  0.10920  0.13420  Biso   1.000  H
  H84      1.0000 0.67140  0.89080  0.86580  Biso   1.000  H
  C55      1.0000 0.14590  0.11560  0.16010  Biso   1.000  C
  C56      1.0000 0.85410  0.88440  0.83990  Biso   1.000  C
  C57      1.0000 0.12510  0.15690  0.26300  Biso   1.000  C
  C58      1.0000 0.87490  0.84310  0.73700  Biso   1.000  C
  H85      1.0000 0.14750  0.10920  0.29160  Biso   1.000  H
  H86      1.0000 0.85250  0.89080  0.70840  Biso   1.000  H
  H87      1.0000 0.03070  0.16700  0.25640  Biso   1.000  H
  H88      1.0000 0.96930  0.83300  0.74360  Biso   1.000  H
  H89      1.0000 0.17540  0.20990  0.29060  Biso   1.000  H
  H90      1.0000 0.82460  0.79010  0.70940  Biso   1.000  H
  C59      1.0000 0.07600  0.05230  0.14280  Biso   1.000  C
  C60      1.0000 0.92400  0.94770  0.85720  Biso   1.000  C
  H91      1.0000 0.05970  0.05290  0.08840  Biso   1.000  H
  H92      1.0000 0.94030  0.94710  0.91160  Biso   1.000  H
  H93      1.0000 0.99190  0.05180  0.15820  Biso   1.000  H
  H94      1.0000 0.00810  0.94820  0.84180  Biso   1.000  H
  H95      1.0000 0.12340  0.00020  0.15430  Biso   1.000  H
  H96      1.0000 0.87660  0.99980  0.84570  Biso   1.000  H
  C61      1.0000 0.30570  0.11790  0.19840  Biso   1.000  C
  C62      1.0000 0.69430  0.88210  0.80160  Biso   1.000  C
  H97      1.0000 0.33090  0.10520  0.14960  Biso   1.000  H
  H98      1.0000 0.66910  0.89480  0.85040  Biso   1.000  H
  H99      1.0000 0.32580  0.06850  0.22530  Biso   1.000  H
  H100     1.0000 0.67420  0.93150  0.77470  Biso   1.000  H
  H101     1.0000 0.35490  0.17000  0.22850  Biso   1.000  H
  H102     1.0000 0.64510  0.83000  0.77150  Biso   1.000  H
  C63      1.0000 0.15880  0.13320  0.18540  Biso   1.000  C
  C64      1.0000 0.84120  0.86680  0.81460  Biso   1.000  C
  C65      1.0000 0.11380  0.20550  0.13590  Biso   1.000  C
  C66      1.0000 0.88620  0.79450  0.86410  Biso   1.000  C
  C67      1.0000 0.20650  0.26580  0.13070  Biso   1.000  C
  C68      1.0000 0.79350  0.73420  0.86930  Biso   1.000  C
  H103     1.0000 0.29650  0.25380  0.14770  Biso   1.000  H
  H104     1.0000 0.70350  0.74620  0.85230  Biso   1.000  H
  C69      1.0000 0.17880  0.34310  0.10250  Biso   1.000  C
  C70      1.0000 0.82120  0.65690  0.89750  Biso   1.000  C
  C71      1.0000 0.28870  0.40450  0.10020  Biso   1.000  C
  C72      1.0000 0.71130  0.59550  0.89980  Biso   1.000  C
  C73      1.0000 0.42140  0.39180  0.12600  Biso   1.000  C
  C74      1.0000 0.57860  0.60820  0.87400  Biso   1.000  C
  H105     1.0000 0.44720  0.34200  0.14850  Biso   1.000  H
  H106     1.0000 0.55280  0.65800  0.85150  Biso   1.000  H
  C75      1.0000 0.51610  0.44950  0.11990  Biso   1.000  C
  C76      1.0000 0.48390  0.55050  0.88010  Biso   1.000  C
  H107     1.0000 0.60650  0.43860  0.13720  Biso   1.000  H
  H108     1.0000 0.39350  0.56140  0.86280  Biso   1.000  H
  C77      1.0000 0.48150  0.52330  0.08880  Biso   1.000  C
  C78      1.0000 0.51850  0.47670  0.91120  Biso   1.000  C
  H109     1.0000 0.54770  0.56350  0.08530  Biso   1.000  H
  H110     1.0000 0.45230  0.43650  0.91470  Biso   1.000  H
  C79      1.0000 0.34840  0.53840  0.06230  Biso   1.000  C
  C80      1.0000 0.65160  0.46160  0.93770  Biso   1.000  C
  C81      1.0000 0.25380  0.47910  0.06790  Biso   1.000  C
  C82      1.0000 0.74620  0.52090  0.93210  Biso   1.000  C
  H111     1.0000 0.16340  0.48900  0.04960  Biso   1.000  H
  H112     1.0000 0.83660  0.51100  0.95040  Biso   1.000  H
  C83      1.0000 0.30370  0.61610  0.02650  Biso   1.000  C
  C84      1.0000 0.69630  0.38390  0.97350  Biso   1.000  C
  C85      1.0000 0.38640  0.68990  0.03900  Biso   1.000  C
  C86      1.0000 0.61360  0.31010  0.96100  Biso   1.000  C
  H113     1.0000 0.47190  0.68920  0.07020  Biso   1.000  H
  H114     1.0000 0.52810  0.31080  0.92980  Biso   1.000  H
  C87      1.0000 0.34970  0.76590  0.00750  Biso   1.000  C
  C88      1.0000 0.65030  0.23410  0.99250  Biso   1.000  C
  C89      1.0000 0.45170  0.84710  0.03560  Biso   1.000  C
  C90      1.0000 0.54830  0.15290  0.96440  Biso   1.000  C
  C91      1.0000 0.37440  0.92720  0.01040  Biso   1.000  C
  C92      1.0000 0.62560  0.07280  0.98960  Biso   1.000  C
  H115     1.0000 0.30660  0.94050  0.03940  Biso   1.000  H
  H116     1.0000 0.69340  0.05950  0.96060  Biso   1.000  H
  H117     1.0000 0.33270  0.91360  0.95650  Biso   1.000  H
  H118     1.0000 0.66730  0.08640  0.04350  Biso   1.000  H
  H119     1.0000 0.43550  0.97760  0.01930  Biso   1.000  H
  H120     1.0000 0.56450  0.02240  0.98070  Biso   1.000  H
  C93      1.0000 0.55760  0.83070  0.98990  Biso   1.000  C
  C94      1.0000 0.44240  0.16930  0.01010  Biso   1.000  C
  H121     1.0000 0.61120  0.88420  0.99620  Biso   1.000  H
  H122     1.0000 0.38880  0.11580  0.00380  Biso   1.000  H
  H123     1.0000 0.51570  0.81280  0.93640  Biso   1.000  H
  H124     1.0000 0.48430  0.18720  0.06360  Biso   1.000  H
  H125     1.0000 0.61390  0.78470  0.00780  Biso   1.000  H
  H126     1.0000 0.38610  0.21530  0.99220  Biso   1.000  H
  C95      1.0000 0.50720  0.86210  0.11720  Biso   1.000  C
  C96      1.0000 0.49280  0.13790  0.88280  Biso   1.000  C
  H127     1.0000 0.55160  0.81010  0.13180  Biso   1.000  H
  H128     1.0000 0.44840  0.18990  0.86820  Biso   1.000  H
  H129     1.0000 0.43640  0.87480  0.14420  Biso   1.000  H
  H130     1.0000 0.56360  0.12520  0.85580  Biso   1.000  H
  H131     1.0000 0.57090  0.91160  0.13030  Biso   1.000  H
  H132     1.0000 0.42910  0.08840  0.86970  Biso   1.000  H
  C97      1.0000 0.44260  0.84440  0.01450  Biso   1.000  C
  C98      1.0000 0.55740  0.15560  0.98550  Biso   1.000  C
  C99      1.0000 0.43000  0.87410  0.93710  Biso   1.000  C
  C100     1.0000 0.57000  0.12590  0.06290  Biso   1.000  C
  H133     1.0000 0.48500  0.92700  0.94340  Biso   1.000  H
  H134     1.0000 0.51500  0.07300  0.05660  Biso   1.000  H
  H135     1.0000 0.33790  0.88600  0.91680  Biso   1.000  H
  H136     1.0000 0.66210  0.11400  0.08320  Biso   1.000  H
  H137     1.0000 0.45920  0.82810  0.90210  Biso   1.000  H
  H138     1.0000 0.54080  0.17190  0.09790  Biso   1.000  H
  C101     1.0000 0.58270  0.82730  0.03840  Biso   1.000  C
  C102     1.0000 0.41730  0.17270  0.96160  Biso   1.000  C
  H139     1.0000 0.60120  0.81580  0.09040  Biso   1.000  H
  H140     1.0000 0.39880  0.18420  0.90960  Biso   1.000  H
  H141     1.0000 0.63590  0.87810  0.03570  Biso   1.000  H
  H142     1.0000 0.36410  0.12190  0.96430  Biso   1.000  H
  H143     1.0000 0.60450  0.77660  0.00500  Biso   1.000  H
  H144     1.0000 0.39550  0.22340  0.99500  Biso   1.000  H
  C103     1.0000 0.39460  0.91540  0.07040  Biso   1.000  C
  C104     1.0000 0.60540  0.08460  0.92960  Biso   1.000  C
  H145     1.0000 0.40630  0.89660  0.11960  Biso   1.000  H
  H146     1.0000 0.59370  0.10340  0.88040  Biso   1.000  H
  H147     1.0000 0.30120  0.92480  0.05110  Biso   1.000  H
  H148     1.0000 0.69880  0.07520  0.94890  Biso   1.000  H
  H149     1.0000 0.44580  0.96970  0.07580  Biso   1.000  H
  H150     1.0000 0.55420  0.03030  0.92420  Biso   1.000  H
  C105     1.0000 0.92280  0.34930  0.57800  Biso   1.000  C
  C106     1.0000 0.07720  0.65070  0.42200  Biso   1.000  C
  H151     1.0000 0.89910  0.34500  0.62430  Biso   1.000  H
  H152     1.0000 0.10090  0.65500  0.37570  Biso   1.000  H
  C107     1.0000 0.85350  0.40360  0.53420  Biso   1.000  C
  C108     1.0000 0.14650  0.59640  0.46580  Biso   1.000  C
  H153     1.0000 0.78450  0.43600  0.55000  Biso   1.000  H
  H154     1.0000 0.21550  0.56400  0.45000  Biso   1.000  H
  C109     1.0000 0.88560  0.41070  0.46570  Biso   1.000  C
  C110     1.0000 0.11440  0.58930  0.53430  Biso   1.000  C
  C111     1.0000 0.99000  0.36340  0.44680  Biso   1.000  C
  C112     1.0000 0.01000  0.63660  0.55320  Biso   1.000  C
  H155     1.0000 0.01700  0.36750  0.40140  Biso   1.000  H
  H156     1.0000 0.98300  0.63250  0.59860  Biso   1.000  H
  C113     1.0000 0.05330  0.31040  0.49520  Biso   1.000  C
  C114     1.0000 0.94670  0.68960  0.50480  Biso   1.000  C
  H157     1.0000 0.12390  0.27800  0.48150  Biso   1.000  H
  H158     1.0000 0.87610  0.72200  0.51850  Biso   1.000  H
  C115     1.0000 0.87830  0.44920  0.20480  Biso   1.000  C
  C116     1.0000 0.12170  0.55080  0.79520  Biso   1.000  C
  H159     1.0000 0.91010  0.48480  0.17470  Biso   1.000  H
  H160     1.0000 0.08990  0.51520  0.82530  Biso   1.000  H
  C117     1.0000 0.86150  0.48740  0.27460  Biso   1.000  C
  C118     1.0000 0.13850  0.51260  0.72540  Biso   1.000  C
  H161     1.0000 0.88080  0.54770  0.29210  Biso   1.000  H
  H162     1.0000 0.11920  0.45230  0.70790  Biso   1.000  H
  C119     1.0000 0.81590  0.43580  0.31870  Biso   1.000  C
  C120     1.0000 0.18410  0.56420  0.68130  Biso   1.000  C
  C121     1.0000 0.78330  0.34890  0.28940  Biso   1.000  C
  C122     1.0000 0.21670  0.65110  0.71060  Biso   1.000  C
  H163     1.0000 0.74710  0.31250  0.31720  Biso   1.000  H
  H164     1.0000 0.25290  0.68750  0.68280  Biso   1.000  H
  C123     1.0000 0.80460  0.31690  0.21930  Biso   1.000  C
  C124     1.0000 0.19540  0.68310  0.78070  Biso   1.000  C
  H165     1.0000 0.78410  0.25700  0.19980  Biso   1.000  H
  H166     1.0000 0.21590  0.74300  0.80020  Biso   1.000  H
  O1       1.0000 0.68160  0.14860  0.32900  Biso   1.000  O
  O2       1.0000 0.31840  0.85140  0.67100  Biso   1.000  O
  C125     1.0000 0.71000  0.08020  0.27590  Biso   1.000  C
  C126     1.0000 0.29000  0.91980  0.72410  Biso   1.000  C
  H167     1.0000 0.62660  0.05330  0.24380  Biso   1.000  H
  H168     1.0000 0.37340  0.94670  0.75620  Biso   1.000  H
  H169     1.0000 0.75880  0.10470  0.24280  Biso   1.000  H
  H170     1.0000 0.24120  0.89530  0.75720  Biso   1.000  H
  C127     1.0000 0.78030  0.01930  0.30520  Biso   1.000  C
  C128     1.0000 0.21970  0.98070  0.69480  Biso   1.000  C
  H171     1.0000 0.83790  0.99310  0.27210  Biso   1.000  H
  H172     1.0000 0.16210  0.00690  0.72790  Biso   1.000  H
  H173     1.0000 0.72280  0.97290  0.31350  Biso   1.000  H
  H174     1.0000 0.27720  0.02710  0.68650  Biso   1.000  H
  C129     1.0000 0.86250  0.06780  0.38070  Biso   1.000  C
  C130     1.0000 0.13750  0.93220  0.61930  Biso   1.000  C
  H175     1.0000 0.88820  0.02780  0.41760  Biso   1.000  H
  H176     1.0000 0.11180  0.97220  0.58240  Biso   1.000  H
  H177     1.0000 0.94280  0.09610  0.37340  Biso   1.000  H
  H178     1.0000 0.05720  0.90390  0.62660  Biso   1.000  H
  C131     1.0000 0.77100  0.13410  0.40640  Biso   1.000  C
  C132     1.0000 0.22900  0.86590  0.59360  Biso   1.000  C
  H179     1.0000 0.81940  0.18840  0.43420  Biso   1.000  H
  H180     1.0000 0.18060  0.81160  0.56580  Biso   1.000  H
  H181     1.0000 0.71880  0.11150  0.43860  Biso   1.000  H
  H182     1.0000 0.28120  0.88850  0.56140  Biso   1.000  H
  O3       1.0000 0.67810  0.15940  0.35410  Biso   1.000  O
  O4       1.0000 0.32190  0.84060  0.64590  Biso   1.000  O
  C133     1.0000 0.70170  0.10090  0.28930  Biso   1.000  C
  C134     1.0000 0.29830  0.89910  0.71070  Biso   1.000  C
  H183     1.0000 0.73500  0.13250  0.25430  Biso   1.000  H
  H184     1.0000 0.26500  0.86750  0.74570  Biso   1.000  H
  H185     1.0000 0.62160  0.06560  0.26170  Biso   1.000  H
  H186     1.0000 0.37840  0.93440  0.73830  Biso   1.000  H
  C135     1.0000 0.87700  0.10670  0.39890  Biso   1.000  C
  C136     1.0000 0.12300  0.89330  0.60110  Biso   1.000  C
  H187     1.0000 0.94030  0.14570  0.38560  Biso   1.000  H
  H188     1.0000 0.05970  0.85430  0.61440  Biso   1.000  H
  H189     1.0000 0.92370  0.07860  0.44120  Biso   1.000  H
  H190     1.0000 0.07630  0.92140  0.55880  Biso   1.000  H
  C137     1.0000 0.76130  0.15770  0.42020  Biso   1.000  C
  C138     1.0000 0.23870  0.84230  0.57980  Biso   1.000  C
  H191     1.0000 0.71970  0.12790  0.45320  Biso   1.000  H
  H192     1.0000 0.28030  0.87210  0.54680  Biso   1.000  H
  H193     1.0000 0.79060  0.21730  0.44640  Biso   1.000  H
  H194     1.0000 0.20940  0.78270  0.55360  Biso   1.000  H
  C139     1.0000 0.81700  0.04030  0.33260  Biso   1.000  C
  C140     1.0000 0.18300  0.95970  0.66740  Biso   1.000  C
  H195     1.0000 0.77830  0.98970  0.34760  Biso   1.000  H
  H196     1.0000 0.22170  0.01030  0.65240  Biso   1.000  H
  H197     1.0000 0.88070  0.02030  0.30130  Biso   1.000  H
  H198     1.0000 0.11930  0.97970  0.69870  Biso   1.000  H
  C141     1.0000 0.48900  0.35240  0.41590  Biso   1.000  C
  C142     1.0000 0.51100  0.64760  0.58410  Biso   1.000  C
  H199     1.0000 0.49330  0.29140  0.42490  Biso   1.000  H
  H200     1.0000 0.50670  0.70860  0.57510  Biso   1.000  H
  H201     1.0000 0.57900  0.37880  0.43190  Biso   1.000  H
  H202     1.0000 0.42100  0.62120  0.56810  Biso   1.000  H
  C143     1.0000 0.41200  0.39590  0.45830  Biso   1.000  C
  C144     1.0000 0.58800  0.60410  0.54170  Biso   1.000  C
  H203     1.0000 0.46550  0.44150  0.49680  Biso   1.000  H
  H204     1.0000 0.53450  0.55850  0.50320  Biso   1.000  H
  H205     1.0000 0.37320  0.35550  0.48470  Biso   1.000  H
  H206     1.0000 0.62680  0.64450  0.51530  Biso   1.000  H
  O5       1.0000 0.31380  0.43320  0.41230  Biso   1.000  O
  O6       1.0000 0.68620  0.56680  0.58770  Biso   1.000  O
  C145     1.0000 0.29300  0.38540  0.32190  Biso   1.000  C
  C146     1.0000 0.70700  0.61460  0.67810  Biso   1.000  C
  H207     1.0000 0.22520  0.33720  0.30720  Biso   1.000  H
  H208     1.0000 0.77480  0.66280  0.69280  Biso   1.000  H
  H209     1.0000 0.27580  0.42690  0.28580  Biso   1.000  H
  H210     1.0000 0.72420  0.57310  0.71420  Biso   1.000  H
  C147     1.0000 0.44100  0.35300  0.33740  Biso   1.000  C
  C148     1.0000 0.55900  0.64700  0.66260  Biso   1.000  C
  H211     1.0000 0.44340  0.29380  0.30880  Biso   1.000  H
  H212     1.0000 0.55660  0.70620  0.69120  Biso   1.000  H
  H213     1.0000 0.49810  0.39240  0.31990  Biso   1.000  H
  H214     1.0000 0.50190  0.60760  0.68010  Biso   1.000  H
  O7       1.0000 0.26690  0.39660  0.39630  Biso   1.000  O
  O8       1.0000 0.73310  0.60340  0.60370  Biso   1.000  O
  C149     1.0000 0.36540  0.35580  0.44370  Biso   1.000  C
  C150     1.0000 0.63460  0.64420  0.55630  Biso   1.000  C
  H215     1.0000 0.40980  0.39880  0.48770  Biso   1.000  H
  H216     1.0000 0.59020  0.60120  0.51230  Biso   1.000  H
  H217     1.0000 0.32440  0.30900  0.46250  Biso   1.000  H
  H218     1.0000 0.67560  0.69100  0.53750  Biso   1.000  H
  C151     1.0000 0.30730  0.40870  0.33710  Biso   1.000  C
  C152     1.0000 0.69270  0.59130  0.66290  Biso   1.000  C
  H219     1.0000 0.32650  0.47160  0.34040  Biso   1.000  H
  H220     1.0000 0.67350  0.52840  0.65960  Biso   1.000  H
  H221     1.0000 0.23570  0.39030  0.29190  Biso   1.000  H
  H222     1.0000 0.76430  0.60970  0.70810  Biso   1.000  H
  C153     1.0000 0.45880  0.32030  0.40340  Biso   1.000  C
  C154     1.0000 0.54120  0.67970  0.59660  Biso   1.000  C
  H223     1.0000 0.44920  0.25610  0.39230  Biso   1.000  H
  H224     1.0000 0.55080  0.74390  0.60770  Biso   1.000  H
  H225     1.0000 0.54960  0.33740  0.43220  Biso   1.000  H
  H226     1.0000 0.45040  0.66260  0.56780  Biso   1.000  H
  C155     1.0000 0.42600  0.36090  0.32750  Biso   1.000  C
  C156     1.0000 0.57400  0.63910  0.67250  Biso   1.000  C
  H227     1.0000 0.49800  0.40040  0.32430  Biso   1.000  H
  H228     1.0000 0.50200  0.59960  0.67570  Biso   1.000  H
  H229     1.0000 0.40680  0.31510  0.28220  Biso   1.000  H
  H230     1.0000 0.59320  0.68490  0.71780  Biso   1.000  H
  N1       1.0000 0.02190  0.30170  0.56051  Biso   1.000  N
  N2       1.0000 0.97810  0.69830  0.43949  Biso   1.000  N
  N3       1.0000 0.85270  0.36550  0.17690  Biso   1.000  N
  N4       1.0000 0.14730  0.63450  0.82310  Biso   1.000  N
  O9       1.0000 0.09020  0.26030  0.72743  Biso   1.000  O
  O10      1.0000 0.90980  0.73970  0.27257  Biso   1.000  O
  O11      1.0000 0.96810  0.13024  0.61107  Biso   1.000  O
  O12      1.0000 0.03190  0.86976  0.38893  Biso   1.000  O
  O13      1.0000 0.82020  0.86632  0.45071  Biso   1.000  O
  O14      1.0000 0.17980  0.13368  0.54929  Biso   1.000  O
  O15      1.0000 0.70990  0.72946  0.33782  Biso   1.000  O
  O16      1.0000 0.29010  0.27054  0.66218  Biso   1.000  O
  O17      1.0000 0.99090  0.21070  0.11340  Biso   1.000  O
  O18      1.0000 0.00910  0.78930  0.88660  Biso   1.000  O
  O19      1.0000 0.06370  0.36740  0.07773  Biso   1.000  O
  O20      1.0000 0.93630  0.63260  0.92227  Biso   1.000  O
  O21      1.0000 0.18820  0.60912  0.98679  Biso   1.000  O
  O22      1.0000 0.81180  0.39088  0.01321  Biso   1.000  O
  O23      1.0000 0.24580  0.77660  0.96570  Biso   1.000  O
  O24      1.0000 0.75420  0.22340  0.03430  Biso   1.000  O
  S1       1.0000 0.79677  0.48236  0.40995  Biso   1.000  S
  S2       1.0000 0.20323  0.51764  0.59005  Biso   1.000  S
  Cu1      1.0000 0.12322  0.20649  0.63114  Biso   1.000  Cu
  Cu2      1.0000 0.87678  0.79351  0.36886  Biso   1.000  Cu
  Cu3      1.0000 0.90066  0.30356  0.06715  Biso   1.000  Cu
  Cu4      1.0000 0.09934  0.69644  0.93285  Biso   1.000  Cu
