data_image0
_cell_length_a       18.638
_cell_length_b       18.638
_cell_length_c       11.5817
_cell_angle_alpha    90
_cell_angle_beta     90
_cell_angle_gamma    120

_symmetry_space_group_name_H-M    "P 1"
_symmetry_int_tables_number       1

loop_
  _symmetry_equiv_pos_as_xyz
  'x, y, z'

loop_
  _atom_site_label
  _atom_site_occupancy
  _atom_site_fract_x
  _atom_site_fract_y
  _atom_site_fract_z
  _atom_site_thermal_displace_type
  _atom_site_B_iso_or_equiv
  _atom_site_type_symbol
  C1       1.0000 0.37995  0.19341  0.97210  Biso   1.000  C
  C2       1.0000 0.80659  0.18654  0.97210  Biso   1.000  C
  C3       1.0000 0.81346  0.62005  0.97210  Biso   1.000  C
  C4       1.0000 0.62005  0.80659  0.02790  Biso   1.000  C
  C5       1.0000 0.19341  0.81346  0.02790  Biso   1.000  C
  C6       1.0000 0.18654  0.37995  0.02790  Biso   1.000  C
  H1       1.0000 0.38630  0.22680  0.04070  Biso   1.000  H
  H2       1.0000 0.77320  0.15950  0.04070  Biso   1.000  H
  H3       1.0000 0.84050  0.61370  0.04070  Biso   1.000  H
  H4       1.0000 0.61370  0.77320  0.95930  Biso   1.000  H
  H5       1.0000 0.22680  0.84050  0.95930  Biso   1.000  H
  H6       1.0000 0.15950  0.38630  0.95930  Biso   1.000  H
  H7       1.0000 0.34620  0.20170  0.91460  Biso   1.000  H
  H8       1.0000 0.79830  0.14450  0.91460  Biso   1.000  H
  H9       1.0000 0.85550  0.65380  0.91460  Biso   1.000  H
  H10      1.0000 0.65380  0.79830  0.08540  Biso   1.000  H
  H11      1.0000 0.20170  0.85550  0.08540  Biso   1.000  H
  H12      1.0000 0.14450  0.34620  0.08540  Biso   1.000  H
  H13      1.0000 0.43460  0.21030  0.93930  Biso   1.000  H
  H14      1.0000 0.78970  0.22430  0.93930  Biso   1.000  H
  H15      1.0000 0.77570  0.56540  0.93930  Biso   1.000  H
  H16      1.0000 0.56540  0.78970  0.06070  Biso   1.000  H
  H17      1.0000 0.21030  0.77570  0.06070  Biso   1.000  H
  H18      1.0000 0.22430  0.43460  0.06070  Biso   1.000  H
  C7       1.0000 0.25030  0.07430  0.05510  Biso   1.000  C
  C8       1.0000 0.92570  0.17600  0.05510  Biso   1.000  C
  C9       1.0000 0.82400  0.74970  0.05510  Biso   1.000  C
  C10      1.0000 0.74970  0.92570  0.94490  Biso   1.000  C
  C11      1.0000 0.07430  0.82400  0.94490  Biso   1.000  C
  C12      1.0000 0.17600  0.25030  0.94490  Biso   1.000  C
  H19      1.0000 0.22450  0.01640  0.08010  Biso   1.000  H
  H20      1.0000 0.98360  0.20810  0.08010  Biso   1.000  H
  H21      1.0000 0.79190  0.77550  0.08010  Biso   1.000  H
  H22      1.0000 0.77550  0.98360  0.91990  Biso   1.000  H
  H23      1.0000 0.01640  0.79190  0.91990  Biso   1.000  H
  H24      1.0000 0.20810  0.22450  0.91990  Biso   1.000  H
  H25      1.0000 0.21600  0.07960  0.99540  Biso   1.000  H
  H26      1.0000 0.92040  0.13640  0.99540  Biso   1.000  H
  H27      1.0000 0.86360  0.78400  0.99540  Biso   1.000  H
  H28      1.0000 0.78400  0.92040  0.00460  Biso   1.000  H
  H29      1.0000 0.07960  0.86360  0.00460  Biso   1.000  H
  H30      1.0000 0.13640  0.21600  0.00460  Biso   1.000  H
  H31      1.0000 0.25530  0.10930  0.12120  Biso   1.000  H
  H32      1.0000 0.89070  0.14600  0.12120  Biso   1.000  H
  H33      1.0000 0.85400  0.74470  0.12120  Biso   1.000  H
  H34      1.0000 0.74470  0.89070  0.87880  Biso   1.000  H
  H35      1.0000 0.10930  0.85400  0.87880  Biso   1.000  H
  H36      1.0000 0.14600  0.25530  0.87880  Biso   1.000  H
  C13      1.0000 0.33020  0.05030  0.89800  Biso   1.000  C
  C14      1.0000 0.94970  0.27990  0.89800  Biso   1.000  C
  C15      1.0000 0.72010  0.66980  0.89800  Biso   1.000  C
  C16      1.0000 0.66980  0.94970  0.10200  Biso   1.000  C
  C17      1.0000 0.05030  0.72010  0.10200  Biso   1.000  C
  C18      1.0000 0.27990  0.33020  0.10200  Biso   1.000  C
  H37      1.0000 0.38560  0.06390  0.87230  Biso   1.000  H
  H38      1.0000 0.93610  0.32170  0.87230  Biso   1.000  H
  H39      1.0000 0.67830  0.61440  0.87230  Biso   1.000  H
  H40      1.0000 0.61440  0.93610  0.12770  Biso   1.000  H
  H41      1.0000 0.06390  0.67830  0.12770  Biso   1.000  H
  H42      1.0000 0.32170  0.38560  0.12770  Biso   1.000  H
  H43      1.0000 0.30230  0.06290  0.83610  Biso   1.000  H
  H44      1.0000 0.93710  0.23940  0.83610  Biso   1.000  H
  H45      1.0000 0.76060  0.69770  0.83610  Biso   1.000  H
  H46      1.0000 0.69770  0.93710  0.16390  Biso   1.000  H
  H47      1.0000 0.06290  0.76060  0.16390  Biso   1.000  H
  H48      1.0000 0.23940  0.30230  0.16390  Biso   1.000  H
  H49      1.0000 0.29790  0.99120  0.91710  Biso   1.000  H
  H50      1.0000 0.00880  0.30670  0.91710  Biso   1.000  H
  H51      1.0000 0.69330  0.70210  0.91710  Biso   1.000  H
  H52      1.0000 0.70210  0.00880  0.08290  Biso   1.000  H
  H53      1.0000 0.99120  0.69330  0.08290  Biso   1.000  H
  H54      1.0000 0.30670  0.29790  0.08290  Biso   1.000  H
  C19      1.0000 0.33742  0.10198  0.00560  Biso   1.000  C
  C20      1.0000 0.89802  0.23544  0.00560  Biso   1.000  C
  C21      1.0000 0.76456  0.66258  0.00560  Biso   1.000  C
  C22      1.0000 0.66258  0.89802  0.99440  Biso   1.000  C
  C23      1.0000 0.10198  0.76456  0.99440  Biso   1.000  C
  C24      1.0000 0.23544  0.33742  0.99440  Biso   1.000  C
  C25      1.0000 0.38642  0.09154  0.10470  Biso   1.000  C
  C26      1.0000 0.90846  0.29488  0.10470  Biso   1.000  C
  C27      1.0000 0.70512  0.61358  0.10470  Biso   1.000  C
  C28      1.0000 0.61358  0.90846  0.89530  Biso   1.000  C
  C29      1.0000 0.09154  0.70512  0.89530  Biso   1.000  C
  C30      1.0000 0.29488  0.38642  0.89530  Biso   1.000  C
  C31      1.0000 0.40152  0.02530  0.10810  Biso   1.000  C
  C32      1.0000 0.97470  0.37622  0.10810  Biso   1.000  C
  C33      1.0000 0.62378  0.59848  0.10810  Biso   1.000  C
  C34      1.0000 0.59848  0.97470  0.89190  Biso   1.000  C
  C35      1.0000 0.02530  0.62378  0.89190  Biso   1.000  C
  C36      1.0000 0.37622  0.40152  0.89190  Biso   1.000  C
  H55      1.0000 0.38230  0.98720  0.04550  Biso   1.000  H
  H56      1.0000 0.01280  0.39510  0.04550  Biso   1.000  H
  H57      1.0000 0.60490  0.61770  0.04550  Biso   1.000  H
  H58      1.0000 0.61770  0.01280  0.95450  Biso   1.000  H
  H59      1.0000 0.98720  0.60490  0.95450  Biso   1.000  H
  H60      1.0000 0.39510  0.38230  0.95450  Biso   1.000  H
  C37      1.0000 0.44330  0.01169  0.19830  Biso   1.000  C
  C38      1.0000 0.98831  0.43161  0.19830  Biso   1.000  C
  C39      1.0000 0.56839  0.55670  0.19830  Biso   1.000  C
  C40      1.0000 0.55670  0.98831  0.80170  Biso   1.000  C
  C41      1.0000 0.01169  0.56839  0.80170  Biso   1.000  C
  C42      1.0000 0.43161  0.44330  0.80170  Biso   1.000  C
  C43      1.0000 0.44619  0.93283  0.20440  Biso   1.000  C
  C44      1.0000 0.06717  0.51336  0.20440  Biso   1.000  C
  C45      1.0000 0.48664  0.55381  0.20440  Biso   1.000  C
  C46      1.0000 0.55381  0.06717  0.79560  Biso   1.000  C
  C47      1.0000 0.93283  0.48664  0.79560  Biso   1.000  C
  C48      1.0000 0.51336  0.44619  0.79560  Biso   1.000  C
  C49      1.0000 0.41782  0.87382  0.11490  Biso   1.000  C
  C50      1.0000 0.12618  0.54400  0.11490  Biso   1.000  C
  C51      1.0000 0.45600  0.58218  0.11490  Biso   1.000  C
  C52      1.0000 0.58218  0.12618  0.88510  Biso   1.000  C
  C53      1.0000 0.87382  0.45600  0.88510  Biso   1.000  C
  C54      1.0000 0.54400  0.41782  0.88510  Biso   1.000  C
  H61      1.0000 0.39740  0.88390  0.04530  Biso   1.000  H
  H62      1.0000 0.11610  0.51350  0.04530  Biso   1.000  H
  H63      1.0000 0.48650  0.60260  0.04530  Biso   1.000  H
  H64      1.0000 0.60260  0.11610  0.95470  Biso   1.000  H
  H65      1.0000 0.88390  0.48650  0.95470  Biso   1.000  H
  H66      1.0000 0.51350  0.39740  0.95470  Biso   1.000  H
  C55      1.0000 0.41969  0.80088  0.12870  Biso   1.000  C
  C56      1.0000 0.19912  0.61881  0.12870  Biso   1.000  C
  C57      1.0000 0.38119  0.58031  0.12870  Biso   1.000  C
  C58      1.0000 0.58031  0.19912  0.87130  Biso   1.000  C
  C59      1.0000 0.80088  0.38119  0.87130  Biso   1.000  C
  C60      1.0000 0.61881  0.41969  0.87130  Biso   1.000  C
  H67      1.0000 0.39940  0.76080  0.06870  Biso   1.000  H
  H68      1.0000 0.23920  0.63860  0.06870  Biso   1.000  H
  H69      1.0000 0.36140  0.60060  0.06870  Biso   1.000  H
  H70      1.0000 0.60060  0.23920  0.93130  Biso   1.000  H
  H71      1.0000 0.76080  0.36140  0.93130  Biso   1.000  H
  H72      1.0000 0.63860  0.39940  0.93130  Biso   1.000  H
  C61      1.0000 0.45047  0.78554  0.22800  Biso   1.000  C
  C62      1.0000 0.21446  0.66493  0.22800  Biso   1.000  C
  C63      1.0000 0.33507  0.54953  0.22800  Biso   1.000  C
  C64      1.0000 0.54953  0.21446  0.77200  Biso   1.000  C
  C65      1.0000 0.78554  0.33507  0.77200  Biso   1.000  C
  C66      1.0000 0.66493  0.45047  0.77200  Biso   1.000  C
  H73      1.0000 0.45190  0.73550  0.23560  Biso   1.000  H
  H74      1.0000 0.26450  0.71640  0.23560  Biso   1.000  H
  H75      1.0000 0.28360  0.54810  0.23560  Biso   1.000  H
  H76      1.0000 0.54810  0.26450  0.76440  Biso   1.000  H
  H77      1.0000 0.73550  0.28360  0.76440  Biso   1.000  H
  H78      1.0000 0.71640  0.45190  0.76440  Biso   1.000  H
  C67      1.0000 0.47971  0.84369  0.31770  Biso   1.000  C
  C68      1.0000 0.15631  0.63602  0.31770  Biso   1.000  C
  C69      1.0000 0.36398  0.52029  0.31770  Biso   1.000  C
  C70      1.0000 0.52029  0.15631  0.68230  Biso   1.000  C
  C71      1.0000 0.84369  0.36398  0.68230  Biso   1.000  C
  C72      1.0000 0.63602  0.47971  0.68230  Biso   1.000  C
  C73      1.0000 0.47576  0.91637  0.30550  Biso   1.000  C
  C74      1.0000 0.08363  0.55939  0.30550  Biso   1.000  C
  C75      1.0000 0.44061  0.52424  0.30550  Biso   1.000  C
  C76      1.0000 0.52424  0.08363  0.69450  Biso   1.000  C
  C77      1.0000 0.91637  0.44061  0.69450  Biso   1.000  C
  C78      1.0000 0.55939  0.47576  0.69450  Biso   1.000  C
  H79      1.0000 0.49350  0.95510  0.36720  Biso   1.000  H
  H80      1.0000 0.04490  0.53840  0.36720  Biso   1.000  H
  H81      1.0000 0.46160  0.50650  0.36720  Biso   1.000  H
  H82      1.0000 0.50650  0.04490  0.63280  Biso   1.000  H
  H83      1.0000 0.95510  0.46160  0.63280  Biso   1.000  H
  H84      1.0000 0.53840  0.49350  0.63280  Biso   1.000  H
  C79      1.0000 0.51627  0.83074  0.42520  Biso   1.000  C
  C80      1.0000 0.16926  0.68553  0.42520  Biso   1.000  C
  C81      1.0000 0.31447  0.48373  0.42520  Biso   1.000  C
  C82      1.0000 0.48373  0.16926  0.57480  Biso   1.000  C
  C83      1.0000 0.83074  0.31447  0.57480  Biso   1.000  C
  C84      1.0000 0.68553  0.51627  0.57480  Biso   1.000  C
  C85      1.0000 0.56834  0.79692  0.41420  Biso   1.000  C
  C86      1.0000 0.20308  0.77142  0.41420  Biso   1.000  C
  C87      1.0000 0.22858  0.43166  0.41420  Biso   1.000  C
  C88      1.0000 0.43166  0.20308  0.58580  Biso   1.000  C
  C89      1.0000 0.79692  0.22858  0.58580  Biso   1.000  C
  C90      1.0000 0.77142  0.56834  0.58580  Biso   1.000  C
  H85      1.0000 0.57630  0.78120  0.33940  Biso   1.000  H
  H86      1.0000 0.21880  0.79510  0.33940  Biso   1.000  H
  H87      1.0000 0.20490  0.42370  0.33940  Biso   1.000  H
  H88      1.0000 0.42370  0.21880  0.66060  Biso   1.000  H
  H89      1.0000 0.78120  0.20490  0.66060  Biso   1.000  H
  H90      1.0000 0.79510  0.57630  0.66060  Biso   1.000  H
  C91      1.0000 0.60902  0.78515  0.50680  Biso   1.000  C
  C92      1.0000 0.21485  0.82387  0.50680  Biso   1.000  C
  C93      1.0000 0.17613  0.39098  0.50680  Biso   1.000  C
  C94      1.0000 0.39098  0.21485  0.49320  Biso   1.000  C
  C95      1.0000 0.78515  0.17613  0.49320  Biso   1.000  C
  C96      1.0000 0.82387  0.60902  0.49320  Biso   1.000  C
  C97      1.0000 0.66980  0.75300  0.48900  Biso   1.000  C
  C98      1.0000 0.24700  0.91680  0.48900  Biso   1.000  C
  C99      1.0000 0.08320  0.33020  0.48900  Biso   1.000  C
  C100     1.0000 0.33020  0.24700  0.51100  Biso   1.000  C
  C101     1.0000 0.75300  0.08320  0.51100  Biso   1.000  C
  C102     1.0000 0.91680  0.66980  0.51100  Biso   1.000  C
  C103     1.0000 0.69050  0.74810  0.36300  Biso   1.000  C
  C104     1.0000 0.25190  0.94240  0.36300  Biso   1.000  C
  C105     1.0000 0.05760  0.30950  0.36300  Biso   1.000  C
  C106     1.0000 0.30950  0.25190  0.63700  Biso   1.000  C
  C107     1.0000 0.74810  0.05760  0.63700  Biso   1.000  C
  C108     1.0000 0.94240  0.69050  0.63700  Biso   1.000  C
  H91      1.0000 0.71510  0.80330  0.32800  Biso   1.000  H
  H92      1.0000 0.19670  0.91180  0.32800  Biso   1.000  H
  H93      1.0000 0.08820  0.28490  0.32800  Biso   1.000  H
  H94      1.0000 0.28490  0.19670  0.67200  Biso   1.000  H
  H95      1.0000 0.80330  0.08820  0.67200  Biso   1.000  H
  H96      1.0000 0.91180  0.71510  0.67200  Biso   1.000  H
  H97      1.0000 0.63980  0.70990  0.32140  Biso   1.000  H
  H98      1.0000 0.29010  0.92990  0.32140  Biso   1.000  H
  H99      1.0000 0.07010  0.36020  0.32140  Biso   1.000  H
  H100     1.0000 0.36020  0.29010  0.67860  Biso   1.000  H
  H101     1.0000 0.70990  0.07010  0.67860  Biso   1.000  H
  H102     1.0000 0.92990  0.63980  0.67860  Biso   1.000  H
  H103     1.0000 0.73000  0.72800  0.35860  Biso   1.000  H
  H104     1.0000 0.27200  0.00200  0.35860  Biso   1.000  H
  H105     1.0000 0.99800  0.27000  0.35860  Biso   1.000  H
  H106     1.0000 0.27000  0.27200  0.64140  Biso   1.000  H
  H107     1.0000 0.72800  0.99800  0.64140  Biso   1.000  H
  H108     1.0000 0.00200  0.73000  0.64140  Biso   1.000  H
  C109     1.0000 0.62850  0.66630  0.54370  Biso   1.000  C
  C110     1.0000 0.33370  0.96220  0.54370  Biso   1.000  C
  C111     1.0000 0.03780  0.37150  0.54370  Biso   1.000  C
  C112     1.0000 0.37150  0.33370  0.45630  Biso   1.000  C
  C113     1.0000 0.66630  0.03780  0.45630  Biso   1.000  C
  C114     1.0000 0.96220  0.62850  0.45630  Biso   1.000  C
  H109     1.0000 0.57870  0.62870  0.49980  Biso   1.000  H
  H110     1.0000 0.37130  0.95000  0.49980  Biso   1.000  H
  H111     1.0000 0.05000  0.42130  0.49980  Biso   1.000  H
  H112     1.0000 0.42130  0.37130  0.50020  Biso   1.000  H
  H113     1.0000 0.62870  0.05000  0.50020  Biso   1.000  H
  H114     1.0000 0.95000  0.57870  0.50020  Biso   1.000  H
  H115     1.0000 0.61320  0.66950  0.62370  Biso   1.000  H
  H116     1.0000 0.33050  0.94370  0.62370  Biso   1.000  H
  H117     1.0000 0.05630  0.38680  0.62370  Biso   1.000  H
  H118     1.0000 0.38680  0.33050  0.37630  Biso   1.000  H
  H119     1.0000 0.66950  0.05630  0.37630  Biso   1.000  H
  H120     1.0000 0.94370  0.61320  0.37630  Biso   1.000  H
  H121     1.0000 0.66740  0.64530  0.54260  Biso   1.000  H
  H122     1.0000 0.35470  0.02210  0.54260  Biso   1.000  H
  H123     1.0000 0.97790  0.33260  0.54260  Biso   1.000  H
  H124     1.0000 0.33260  0.35470  0.45740  Biso   1.000  H
  H125     1.0000 0.64530  0.97790  0.45740  Biso   1.000  H
  H126     1.0000 0.02210  0.66740  0.45740  Biso   1.000  H
  C115     1.0000 0.74960  0.81020  0.55480  Biso   1.000  C
  C116     1.0000 0.18980  0.93940  0.55480  Biso   1.000  C
  C117     1.0000 0.06060  0.25040  0.55480  Biso   1.000  C
  C118     1.0000 0.25040  0.18980  0.44520  Biso   1.000  C
  C119     1.0000 0.81020  0.06060  0.44520  Biso   1.000  C
  C120     1.0000 0.93940  0.74960  0.44520  Biso   1.000  C
  H127     1.0000 0.78670  0.78700  0.55250  Biso   1.000  H
  H128     1.0000 0.21300  0.99970  0.55250  Biso   1.000  H
  H129     1.0000 0.00030  0.21330  0.55250  Biso   1.000  H
  H130     1.0000 0.21330  0.21300  0.44750  Biso   1.000  H
  H131     1.0000 0.78700  0.00030  0.44750  Biso   1.000  H
  H132     1.0000 0.99970  0.78670  0.44750  Biso   1.000  H
  H133     1.0000 0.73620  0.81490  0.63520  Biso   1.000  H
  H134     1.0000 0.18510  0.92130  0.63520  Biso   1.000  H
  H135     1.0000 0.07870  0.26380  0.63520  Biso   1.000  H
  H136     1.0000 0.26380  0.18510  0.36480  Biso   1.000  H
  H137     1.0000 0.81490  0.07870  0.36480  Biso   1.000  H
  H138     1.0000 0.92130  0.73620  0.36480  Biso   1.000  H
  H139     1.0000 0.77710  0.86510  0.51880  Biso   1.000  H
  H140     1.0000 0.13490  0.91200  0.51880  Biso   1.000  H
  H141     1.0000 0.08800  0.22290  0.51880  Biso   1.000  H
  H142     1.0000 0.22290  0.13490  0.48120  Biso   1.000  H
  H143     1.0000 0.86510  0.08800  0.48120  Biso   1.000  H
  H144     1.0000 0.91200  0.77710  0.48120  Biso   1.000  H
  C121     1.0000 0.58896  0.26551  0.15720  Biso   1.000  C
  C122     1.0000 0.73449  0.32345  0.15720  Biso   1.000  C
  C123     1.0000 0.67655  0.41104  0.15720  Biso   1.000  C
  C124     1.0000 0.41104  0.73449  0.84280  Biso   1.000  C
  C125     1.0000 0.26551  0.67655  0.84280  Biso   1.000  C
  C126     1.0000 0.32345  0.58896  0.84280  Biso   1.000  C
  H145     1.0000 0.58160  0.21230  0.12800  Biso   1.000  H
  H146     1.0000 0.78770  0.36930  0.12800  Biso   1.000  H
  H147     1.0000 0.63070  0.41840  0.12800  Biso   1.000  H
  H148     1.0000 0.41840  0.78770  0.87200  Biso   1.000  H
  H149     1.0000 0.21230  0.63070  0.87200  Biso   1.000  H
  H150     1.0000 0.36930  0.58160  0.87200  Biso   1.000  H
  H151     1.0000 0.54240  0.27150  0.12780  Biso   1.000  H
  H152     1.0000 0.72850  0.27090  0.12780  Biso   1.000  H
  H153     1.0000 0.72910  0.45760  0.12780  Biso   1.000  H
  H154     1.0000 0.45760  0.72850  0.87220  Biso   1.000  H
  H155     1.0000 0.27150  0.72910  0.87220  Biso   1.000  H
  H156     1.0000 0.27090  0.54240  0.87220  Biso   1.000  H
  C127     1.0000 0.65676  0.25462  0.32620  Biso   1.000  C
  C128     1.0000 0.74538  0.40214  0.32620  Biso   1.000  C
  C129     1.0000 0.59786  0.34324  0.32620  Biso   1.000  C
  C130     1.0000 0.34324  0.74538  0.67380  Biso   1.000  C
  C131     1.0000 0.25462  0.59786  0.67380  Biso   1.000  C
  C132     1.0000 0.40214  0.65676  0.67380  Biso   1.000  C
  H157     1.0000 0.65670  0.25390  0.41170  Biso   1.000  H
  H158     1.0000 0.74610  0.40280  0.41170  Biso   1.000  H
  H159     1.0000 0.59720  0.34330  0.41170  Biso   1.000  H
  H160     1.0000 0.34330  0.74610  0.58830  Biso   1.000  H
  H161     1.0000 0.25390  0.59720  0.58830  Biso   1.000  H
  H162     1.0000 0.40280  0.65670  0.58830  Biso   1.000  H
  H163     1.0000 0.64990  0.20120  0.29880  Biso   1.000  H
  H164     1.0000 0.79880  0.44870  0.29880  Biso   1.000  H
  H165     1.0000 0.55130  0.35010  0.29880  Biso   1.000  H
  H166     1.0000 0.35010  0.79880  0.70120  Biso   1.000  H
  H167     1.0000 0.20120  0.55130  0.70120  Biso   1.000  H
  H168     1.0000 0.44870  0.64990  0.70120  Biso   1.000  H
  O1       1.0000 0.40723  0.14548  0.18457  Biso   1.000  O
  O2       1.0000 0.85452  0.26175  0.18457  Biso   1.000  O
  O3       1.0000 0.73825  0.59277  0.18457  Biso   1.000  O
  O4       1.0000 0.59277  0.85452  0.81543  Biso   1.000  O
  O5       1.0000 0.14548  0.73825  0.81543  Biso   1.000  O
  O6       1.0000 0.26175  0.40723  0.81543  Biso   1.000  O
  O7       1.0000 0.47913  0.06133  0.28191  Biso   1.000  O
  O8       1.0000 0.93867  0.41780  0.28191  Biso   1.000  O
  O9       1.0000 0.58220  0.52087  0.28191  Biso   1.000  O
  O10      1.0000 0.52087  0.93867  0.71809  Biso   1.000  O
  O11      1.0000 0.06133  0.58220  0.71809  Biso   1.000  O
  O12      1.0000 0.41780  0.47913  0.71809  Biso   1.000  O
  O13      1.0000 0.49893  0.85515  0.51785  Biso   1.000  O
  O14      1.0000 0.14485  0.64378  0.51785  Biso   1.000  O
  O15      1.0000 0.35622  0.50107  0.51785  Biso   1.000  O
  O16      1.0000 0.50107  0.14485  0.48215  Biso   1.000  O
  O17      1.0000 0.85515  0.35622  0.48215  Biso   1.000  O
  O18      1.0000 0.64378  0.49893  0.48215  Biso   1.000  O
  O19      1.0000 0.59959  0.79835  0.61053  Biso   1.000  O
  O20      1.0000 0.20165  0.80124  0.61053  Biso   1.000  O
  O21      1.0000 0.19876  0.40041  0.61053  Biso   1.000  O
  O22      1.0000 0.40041  0.20165  0.38947  Biso   1.000  O
  O23      1.0000 0.79835  0.19876  0.38947  Biso   1.000  O
  O24      1.0000 0.80124  0.59959  0.38947  Biso   1.000  O
  Cu1      1.0000 0.45784  0.14775  0.33145  Biso   1.000  Cu
  Cu2      1.0000 0.85225  0.31008  0.33145  Biso   1.000  Cu
  Cu3      1.0000 0.68992  0.54216  0.33145  Biso   1.000  Cu
  Cu4      1.0000 0.54216  0.85225  0.66855  Biso   1.000  Cu
  Cu5      1.0000 0.14775  0.68991  0.66855  Biso   1.000  Cu
  Cu6      1.0000 0.31008  0.45784  0.66855  Biso   1.000  Cu
  N1       1.0000 0.58624  0.26330  0.28481  Biso   1.000  N
  N2       1.0000 0.73670  0.32294  0.28481  Biso   1.000  N
  N3       1.0000 0.67706  0.41376  0.28481  Biso   1.000  N
  N4       1.0000 0.41376  0.73670  0.71519  Biso   1.000  N
  N5       1.0000 0.26330  0.67706  0.71519  Biso   1.000  N
  N6       1.0000 0.32294  0.58624  0.71519  Biso   1.000  N
  N7       1.0000 0.66670  0.33330  0.11290  Biso   1.000  N
  N8       1.0000 0.33330  0.66670  0.88710  Biso   1.000  N
