data_image0
_cell_length_a       10.285
_cell_length_b       11.104
_cell_length_c       15.772
_cell_angle_alpha    90.096
_cell_angle_beta     100.647
_cell_angle_gamma    100.187

_symmetry_space_group_name_H-M    "P 1"
_symmetry_int_tables_number       1

loop_
  _symmetry_equiv_pos_as_xyz
  'x, y, z'

loop_
  _atom_site_label
  _atom_site_occupancy
  _atom_site_fract_x
  _atom_site_fract_y
  _atom_site_fract_z
  _atom_site_thermal_displace_type
  _atom_site_B_iso_or_equiv
  _atom_site_type_symbol
  C1       1.0000 0.71140  0.27200  0.67940  Biso   1.000  C
  H1       1.0000 0.79930  0.28460  0.66190  Biso   1.000  H
  H2       1.0000 0.64560  0.21770  0.63680  Biso   1.000  H
  H3       1.0000 0.71830  0.23480  0.73600  Biso   1.000  H
  C2       1.0000 0.76740  0.47730  0.75040  Biso   1.000  C
  H4       1.0000 0.72860  0.50090  0.79880  Biso   1.000  H
  H5       1.0000 0.80970  0.55100  0.72490  Biso   1.000  H
  H6       1.0000 0.83520  0.42700  0.77120  Biso   1.000  H
  C3       1.0000 0.52670  0.38340  0.70700  Biso   1.000  C
  H7       1.0000 0.46430  0.33220  0.66090  Biso   1.000  H
  H8       1.0000 0.49600  0.46110  0.71300  Biso   1.000  H
  H9       1.0000 0.52980  0.34080  0.76150  Biso   1.000  H
  C4       1.0000 0.77080  0.33690  0.72140  Biso   1.000  C
  H10      1.0000 0.85890  0.38980  0.72540  Biso   1.000  H
  H11      1.0000 0.76520  0.26570  0.68320  Biso   1.000  H
  H12      1.0000 0.75920  0.30930  0.77900  Biso   1.000  H
  C5       1.0000 0.69950  0.52990  0.74410  Biso   1.000  C
  H13      1.0000 0.70600  0.50920  0.80500  Biso   1.000  H
  H14      1.0000 0.62980  0.58000  0.72840  Biso   1.000  H
  H15      1.0000 0.78620  0.57600  0.73520  Biso   1.000  H
  C6       1.0000 0.52360  0.34400  0.69360  Biso   1.000  C
  H16      1.0000 0.48740  0.28470  0.64520  Biso   1.000  H
  H17      1.0000 0.46470  0.40450  0.69290  Biso   1.000  H
  H18      1.0000 0.52830  0.30110  0.74810  Biso   1.000  H
  C7       1.0000 0.66160  0.40750  0.68540  Biso   1.000  C
  C8       1.0000 0.67110  0.45630  0.59400  Biso   1.000  C
  C9       1.0000 0.55580  0.46730  0.53640  Biso   1.000  C
  H19      1.0000 0.47180  0.44090  0.55360  Biso   1.000  H
  C10      1.0000 0.55480  0.51520  0.45350  Biso   1.000  C
  C11      1.0000 0.42360  0.52460  0.39610  Biso   1.000  C
  C12      1.0000 0.42880  0.59180  0.32170  Biso   1.000  C
  H20      1.0000 0.51310  0.62950  0.30900  Biso   1.000  H
  C13      1.0000 0.30910  0.60370  0.26570  Biso   1.000  C
  C14      1.0000 0.18340  0.55030  0.28490  Biso   1.000  C
  H21      1.0000 0.10250  0.55790  0.24660  Biso   1.000  H
  C15      1.0000 0.17870  0.48650  0.36040  Biso   1.000  C
  H22      1.0000 0.09450  0.45140  0.37440  Biso   1.000  H
  C16      1.0000 0.29980  0.47410  0.41640  Biso   1.000  C
  H23      1.0000 0.29650  0.43100  0.46820  Biso   1.000  H
  C17      1.0000 0.31760  0.67270  0.18440  Biso   1.000  C
  C18      1.0000 0.21310  0.64830  0.11140  Biso   1.000  C
  H24      1.0000 0.14340  0.58010  0.11330  Biso   1.000  H
  C19      1.0000 0.20390  0.71480  0.03830  Biso   1.000  C
  C20      1.0000 0.08640  0.68140  0.96390  Biso   1.000  C
  C21      1.0000 0.12330  0.59010  0.90380  Biso   1.000  C
  H25      1.0000 0.21000  0.62400  0.88810  Biso   1.000  H
  H26      1.0000 0.05370  0.57460  0.85150  Biso   1.000  H
  H27      1.0000 0.12990  0.51320  0.93330  Biso   1.000  H
  C22      1.0000 0.06370  0.79890  0.91260  Biso   1.000  C
  H28      1.0000 0.05050  0.86210  0.95200  Biso   1.000  H
  H29      1.0000 0.98390  0.77870  0.86680  Biso   1.000  H
  H30      1.0000 0.14250  0.82930  0.88690  Biso   1.000  H
  C23      1.0000 0.95370  0.62650  0.99310  Biso   1.000  C
  H31      1.0000 0.96300  0.54900  0.02110  Biso   1.000  H
  H32      1.0000 0.88050  0.61190  0.94270  Biso   1.000  H
  H33      1.0000 0.93350  0.68390  0.03400  Biso   1.000  H
  C24      1.0000 0.53370  0.01400  0.83240  Biso   1.000  C
  H34      1.0000 0.53950  0.02980  0.77200  Biso   1.000  H
  H35      1.0000 0.54100  0.09180  0.86400  Biso   1.000  H
  H36      1.0000 0.44720  0.96180  0.83520  Biso   1.000  H
  C25      1.0000 0.62020  0.82380  0.82000  Biso   1.000  C
  H37      1.0000 0.52380  0.78970  0.80670  Biso   1.000  H
  H38      1.0000 0.66780  0.76700  0.85550  Biso   1.000  H
  H39      1.0000 0.65470  0.83610  0.76610  Biso   1.000  H
  C26      1.0000 0.78340  0.02500  0.85800  Biso   1.000  C
  H40      1.0000 0.85520  0.98310  0.88620  Biso   1.000  H
  H41      1.0000 0.79750  0.10810  0.88320  Biso   1.000  H
  H42      1.0000 0.78470  0.02930  0.79610  Biso   1.000  H
  C27      1.0000 0.56320  0.84350  0.81710  Biso   1.000  C
  H43      1.0000 0.46700  0.84330  0.81350  Biso   1.000  H
  H44      1.0000 0.58570  0.76800  0.84330  Biso   1.000  H
  H45      1.0000 0.58450  0.84810  0.75900  Biso   1.000  H
  C28      1.0000 0.57490  0.06230  0.85460  Biso   1.000  C
  H46      1.0000 0.57110  0.08430  0.79410  Biso   1.000  H
  H47      1.0000 0.62590  0.13150  0.89230  Biso   1.000  H
  H48      1.0000 0.48330  0.04230  0.86630  Biso   1.000  H
  C29      1.0000 0.78210  0.98060  0.84870  Biso   1.000  C
  H49      1.0000 0.83340  0.91720  0.87080  Biso   1.000  H
  H50      1.0000 0.82900  0.06040  0.87470  Biso   1.000  H
  H51      1.0000 0.77360  0.98270  0.78580  Biso   1.000  H
  C30      1.0000 0.64340  0.95210  0.87150  Biso   1.000  C
  C31      1.0000 0.64120  0.92000  0.96650  Biso   1.000  C
  C32      1.0000 0.75560  0.90490  0.02410  Biso   1.000  C
  H52      1.0000 0.83750  0.91620  0.00310  Biso   1.000  H
  C33      1.0000 0.76130  0.87480  0.10950  Biso   1.000  C
  C34      1.0000 0.89240  0.86320  0.16650  Biso   1.000  C
  C35      1.0000 0.89230  0.80150  0.24280  Biso   1.000  C
  H53      1.0000 0.80860  0.76130  0.25490  Biso   1.000  H
  C36      1.0000 0.00850  0.79540  0.30270  Biso   1.000  C
  C37      1.0000 0.13030  0.85310  0.28070  Biso   1.000  C
  H54      1.0000 0.21230  0.85120  0.31960  Biso   1.000  H
  C38      1.0000 0.13350  0.91220  0.20430  Biso   1.000  C
  H55      1.0000 0.21770  0.94730  0.19030  Biso   1.000  H
  C39      1.0000 0.01830  0.92120  0.14870  Biso   1.000  C
  H56      1.0000 0.02200  0.96640  0.09780  Biso   1.000  H
  C40      1.0000 0.99900  0.72790  0.38260  Biso   1.000  C
  C41      1.0000 0.09920  0.76260  0.45390  Biso   1.000  C
  H57      1.0000 0.16850  0.83010  0.44970  Biso   1.000  H
  C42      1.0000 0.10320  0.70110  0.53430  Biso   1.000  C
  C43      1.0000 0.21940  0.74700  0.61190  Biso   1.000  C
  C44      1.0000 0.32740  0.66130  0.60910  Biso   1.000  C
  H58      1.0000 0.40130  0.68210  0.65870  Biso   1.000  H
  H59      1.0000 0.36280  0.67360  0.55560  Biso   1.000  H
  H60      1.0000 0.28480  0.57550  0.61140  Biso   1.000  H
  C45      1.0000 0.17430  0.75550  0.68630  Biso   1.000  C
  H61      1.0000 0.13850  0.67340  0.70360  Biso   1.000  H
  H62      1.0000 0.10300  0.80480  0.67790  Biso   1.000  H
  H63      1.0000 0.24860  0.79460  0.73150  Biso   1.000  H
  C46      1.0000 0.31560  0.87570  0.59110  Biso   1.000  C
  H64      1.0000 0.39740  0.89210  0.63560  Biso   1.000  H
  H65      1.0000 0.26630  0.94350  0.59110  Biso   1.000  H
  H66      1.0000 0.33990  0.86730  0.53440  Biso   1.000  H
  C47      1.0000 0.30140  0.65320  0.63220  Biso   1.000  C
  H67      1.0000 0.33730  0.63420  0.58130  Biso   1.000  H
  H68      1.0000 0.24620  0.57910  0.64900  Biso   1.000  H
  H69      1.0000 0.37600  0.68290  0.67990  Biso   1.000  H
  C48      1.0000 0.28200  0.87640  0.60670  Biso   1.000  C
  H70      1.0000 0.35190  0.90060  0.65800  Biso   1.000  H
  H71      1.0000 0.21330  0.92810  0.60370  Biso   1.000  H
  H72      1.0000 0.32230  0.88650  0.55490  Biso   1.000  H
  C49      1.0000 0.13910  0.74930  0.69460  Biso   1.000  C
  H73      1.0000 0.07140  0.67460  0.69200  Biso   1.000  H
  H74      1.0000 0.09500  0.82090  0.69130  Biso   1.000  H
  H75      1.0000 0.20400  0.75380  0.74900  Biso   1.000  H
  C50      1.0000 0.05030  0.11110  0.43730  Biso   1.000  C
  H76      1.0000 0.08760  0.12430  0.49910  Biso   1.000  H
  H77      1.0000 0.12370  0.12260  0.40470  Biso   1.000  H
  H78      1.0000 0.99890  0.02770  0.42640  Biso   1.000  H
  H79      1.0000 0.05260  0.05870  0.38770  Biso   1.000  H
  H80      1.0000 0.01640  0.06040  0.48210  Biso   1.000  H
  H81      1.0000 0.14120  0.15540  0.46040  Biso   1.000  H
  C51      1.0000 0.06700  0.13500  0.46100  Biso   1.000  C
  H82      1.0000 0.08440  0.16080  0.52210  Biso   1.000  H
  H83      1.0000 0.15010  0.15430  0.43820  Biso   1.000  H
  H84      1.0000 0.03380  0.04600  0.45530  Biso   1.000  H
  H85      1.0000 0.09450  0.07990  0.42170  Biso   1.000  H
  H86      1.0000 0.02870  0.08640  0.50560  Biso   1.000  H
  H87      1.0000 0.14510  0.19470  0.48840  Biso   1.000  H
  C52      1.0000 0.95680  0.20370  0.40840  Biso   1.000  C
  C53      1.0000 0.88710  0.21910  0.33260  Biso   1.000  C
  C54      1.0000 0.83060  0.32690  0.33990  Biso   1.000  C
  C55      1.0000 0.74840  0.38710  0.27300  Biso   1.000  C
  H88      1.0000 0.72200  0.45710  0.29900  Biso   1.000  H
  H89      1.0000 0.66770  0.32880  0.24690  Biso   1.000  H
  H90      1.0000 0.80050  0.41570  0.22850  Biso   1.000  H
  C56      1.0000 0.86940  0.14330  0.25200  Biso   1.000  C
  H91      1.0000 0.77220  0.12450  0.22670  Biso   1.000  H
  H92      1.0000 0.89850  0.06460  0.26770  Biso   1.000  H
  C57      1.0000 0.94410  0.19880  0.18310  Biso   1.000  C
  C58      1.0000 0.08090  0.23190  0.20080  Biso   1.000  C
  H93      1.0000 0.12650  0.22130  0.25760  Biso   1.000  H
  C59      1.0000 0.15870  0.28080  0.14010  Biso   1.000  C
  C60      1.0000 0.09490  0.30080  0.06160  Biso   1.000  C
  H94      1.0000 0.14490  0.33570  0.01990  Biso   1.000  H
  C61      1.0000 0.95300  0.27030  0.03980  Biso   1.000  C
  H95      1.0000 0.90730  0.28410  0.98350  Biso   1.000  H
  C62      1.0000 0.88180  0.22050  0.10130  Biso   1.000  C
  H96      1.0000 0.78660  0.20040  0.08650  Biso   1.000  H
  C63      1.0000 0.31410  0.31190  0.16540  Biso   1.000  C
  H97      1.0000 0.35050  0.36040  0.11970  Biso   1.000  H
  H98      1.0000 0.33960  0.36260  0.21960  Biso   1.000  H
  C64      1.0000 0.45600  0.20440  0.34640  Biso   1.000  C
  H99      1.0000 0.40190  0.14680  0.37880  Biso   1.000  H
  H100     1.0000 0.42910  0.28460  0.34790  Biso   1.000  H
  H101     1.0000 0.55130  0.21200  0.37250  Biso   1.000  H
  C65      1.0000 0.43360  0.15750  0.25340  Biso   1.000  C
  C66      1.0000 0.37540  0.19870  0.17770  Biso   1.000  C
  C67      1.0000 0.38420  0.11810  0.10960  Biso   1.000  C
  C68      1.0000 0.33720  0.11610  0.01800  Biso   1.000  C
  H102     1.0000 0.36240  0.04610  0.99110  Biso   1.000  H
  H103     1.0000 0.37810  0.19210  0.99450  Biso   1.000  H
  H104     1.0000 0.23910  0.10860  0.00580  Biso   1.000  H
  O1       1.0000 0.50340  0.38660  0.94970  Biso   1.000  O
  C69      1.0000 0.61200  0.41400  0.02480  Biso   1.000  C
  H105     1.0000 0.69890  0.40990  0.00790  Biso   1.000  H
  H106     1.0000 0.59720  0.35240  0.06920  Biso   1.000  H
  C70      1.0000 0.51200  0.58500  0.99220  Biso   1.000  C
  H107     1.0000 0.42440  0.57890  0.01080  Biso   1.000  H
  H108     1.0000 0.54410  0.67110  0.97910  Biso   1.000  H
  C71      1.0000 0.61400  0.54000  0.06090  Biso   1.000  C
  H109     1.0000 0.70390  0.59150  0.06660  Biso   1.000  H
  H110     1.0000 0.58530  0.53620  0.11760  Biso   1.000  H
  C72      1.0000 0.50100  0.50620  0.91990  Biso   1.000  C
  H111     1.0000 0.41650  0.50820  0.87880  Biso   1.000  H
  H112     1.0000 0.57750  0.53250  0.88980  Biso   1.000  H
  O2       1.0000 0.57920  0.40880  0.95400  Biso   1.000  O
  C73      1.0000 0.63100  0.42100  0.04460  Biso   1.000  C
  H113     1.0000 0.73010  0.42660  0.05500  Biso   1.000  H
  H114     1.0000 0.59240  0.34750  0.07320  Biso   1.000  H
  C74      1.0000 0.49800  0.56940  0.01050  Biso   1.000  C
  H115     1.0000 0.41620  0.58120  0.03210  Biso   1.000  H
  H116     1.0000 0.53640  0.64740  0.98690  Biso   1.000  H
  C75      1.0000 0.59800  0.53200  0.08180  Biso   1.000  C
  H117     1.0000 0.67840  0.59690  0.09690  Biso   1.000  H
  H118     1.0000 0.55820  0.51280  0.13390  Biso   1.000  H
  C76      1.0000 0.46400  0.47370  0.94460  Biso   1.000  C
  H119     1.0000 0.44820  0.50870  0.88670  Biso   1.000  H
  H120     1.0000 0.38150  0.41660  0.95180  Biso   1.000  H
  O3       1.0000 0.06300  0.24200  0.65870  Biso   1.000  O
  C77      1.0000 0.09600  0.23900  0.81780  Biso   1.000  C
  H121     1.0000 0.09310  0.17920  0.86410  Biso   1.000  H
  H122     1.0000 0.06670  0.31380  0.83620  Biso   1.000  H
  C78      1.0000 0.23300  0.26900  0.79650  Biso   1.000  C
  H123     1.0000 0.28420  0.34620  0.82620  Biso   1.000  H
  H124     1.0000 0.28430  0.20220  0.81250  Biso   1.000  H
  C79      1.0000 0.20500  0.28100  0.70370  Biso   1.000  C
  H125     1.0000 0.26170  0.23340  0.67800  Biso   1.000  H
  H126     1.0000 0.23410  0.36840  0.69140  Biso   1.000  H
  C80      1.0000 0.01200  0.18600  0.73500  Biso   1.000  C
  H127     1.0000 0.91840  0.19940  0.73260  Biso   1.000  H
  H128     1.0000 0.01000  0.09690  0.73260  Biso   1.000  H
  C81      1.0000 0.13200  0.28180  0.80270  Biso   1.000  C
  H129     1.0000 0.04450  0.27610  0.82190  Biso   1.000  H
  H130     1.0000 0.20440  0.32180  0.84960  Biso   1.000  H
  C82      1.0000 0.15500  0.15300  0.77850  Biso   1.000  C
  H131     1.0000 0.25170  0.14660  0.79260  Biso   1.000  H
  H132     1.0000 0.10230  0.08740  0.80690  Biso   1.000  H
  C83      1.0000 0.13200  0.34890  0.72520  Biso   1.000  C
  H133     1.0000 0.05730  0.39570  0.71830  Biso   1.000  H
  H134     1.0000 0.21690  0.40880  0.73200  Biso   1.000  H
  C84      1.0000 0.10600  0.15080  0.68440  Biso   1.000  C
  H135     1.0000 0.01010  0.11020  0.67160  Biso   1.000  H
  H136     1.0000 0.15730  0.10190  0.65520  Biso   1.000  H
  O4       1.0000 0.11820  0.27750  0.64870  Biso   1.000  O
  C85      1.0000 0.70380  0.87820  0.40610  Biso   1.000  C
  H137     1.0000 0.78280  0.92150  0.38390  Biso   1.000  H
  H138     1.0000 0.67060  0.79900  0.37350  Biso   1.000  H
  O5       1.0000 0.60160  0.94990  0.39630  Biso   1.000  O
  C86      1.0000 0.74290  0.85670  0.50320  Biso   1.000  C
  H139     1.0000 0.75980  0.77250  0.51380  Biso   1.000  H
  H140     1.0000 0.82280  0.91630  0.53090  Biso   1.000  H
  C87      1.0000 0.62300  0.87600  0.53210  Biso   1.000  C
  H141     1.0000 0.64330  0.94940  0.57150  Biso   1.000  H
  H142     1.0000 0.58690  0.80460  0.56340  Biso   1.000  H
  C88      1.0000 0.52500  0.89400  0.45550  Biso   1.000  C
  H143     1.0000 0.47130  0.81440  0.43160  Biso   1.000  H
  H144     1.0000 0.46400  0.94710  0.46970  Biso   1.000  H
  C89      1.0000 0.63300  0.02500  0.48000  Biso   1.000  C
  H145     1.0000 0.67590  0.10960  0.47000  Biso   1.000  H
  H146     1.0000 0.54860  0.02890  0.50060  Biso   1.000  H
  C90      1.0000 0.72100  0.97200  0.54390  Biso   1.000  C
  H147     1.0000 0.67970  0.95370  0.59540  Biso   1.000  H
  H148     1.0000 0.80740  0.02950  0.56160  Biso   1.000  H
  N1       1.0000 0.86980  0.37310  0.42060  Biso   1.000  N
  N2       1.0000 0.94250  0.29870  0.45870  Biso   1.000  N
  H149     1.0000 0.98040  0.30840  0.51370  Biso   1.000  H
  N3       1.0000 0.45380  0.02930  0.14760  Biso   1.000  N
  N4       1.0000 0.47900  0.05440  0.23460  Biso   1.000  N
  H150     1.0000 0.51940  0.00960  0.27340  Biso   1.000  H
  O6       1.0000 0.79210  0.48110  0.57820  Biso   1.000  O
  O7       1.0000 0.65710  0.55130  0.42030  Biso   1.000  O
  O8       1.0000 0.42390  0.75340  0.18740  Biso   1.000  O
  O9       1.0000 0.29360  0.80430  0.02330  Biso   1.000  O
  O10      1.0000 0.52570  0.90660  0.98510  Biso   1.000  O
  O11      1.0000 0.65890  0.85270  0.14650  Biso   1.000  O
  O12      1.0000 0.89490  0.64460  0.37870  Biso   1.000  O
  O13      1.0000 0.02130  0.60800  0.54580  Biso   1.000  O
  Cu1      1.0000 0.84454  0.55171  0.47559  Biso   1.000  Cu
  Cu2      1.0000 0.47433  0.84933  0.09239  Biso   1.000  Cu
