data_image0
_cell_length_a       7.061
_cell_length_b       11.138
_cell_length_c       12.887
_cell_angle_alpha    110.81
_cell_angle_beta     90.422
_cell_angle_gamma    101.183

_symmetry_space_group_name_H-M    "P 1"
_symmetry_int_tables_number       1

loop_
  _symmetry_equiv_pos_as_xyz
  'x, y, z'

loop_
  _atom_site_label
  _atom_site_occupancy
  _atom_site_fract_x
  _atom_site_fract_y
  _atom_site_fract_z
  _atom_site_thermal_displace_type
  _atom_site_B_iso_or_equiv
  _atom_site_type_symbol
  Cu1      1.0000 0.50000  0.00000  0.50000  Biso   1.000  Cu
  Cu2      1.0000 0.88637  0.77550  0.64284  Biso   1.000  Cu
  Cu3      1.0000 0.11363  0.22450  0.35716  Biso   1.000  Cu
  O1       1.0000 0.60400  0.39760  0.54140  Biso   1.000  O
  O2       1.0000 0.39600  0.60240  0.45860  Biso   1.000  O
  O3       1.0000 0.71840  0.60870  0.64720  Biso   1.000  O
  O4       1.0000 0.28160  0.39130  0.35280  Biso   1.000  O
  O5       1.0000 0.25880  0.87960  0.43140  Biso   1.000  O
  O6       1.0000 0.74120  0.12040  0.56860  Biso   1.000  O
  O7       1.0000 0.59780  0.84690  0.59800  Biso   1.000  O
  O8       1.0000 0.40220  0.15310  0.40200  Biso   1.000  O
  O9       1.0000 0.87360  0.86700  0.79740  Biso   1.000  O
  O10      1.0000 0.12640  0.13300  0.20260  Biso   1.000  O
  O11      1.0000 0.15370  0.81860  0.82470  Biso   1.000  O
  O12      1.0000 0.84630  0.18140  0.17530  Biso   1.000  O
  N1       1.0000 0.90070  0.66010  0.49470  Biso   1.000  N
  N2       1.0000 0.09930  0.33990  0.50530  Biso   1.000  N
  N3       1.0000 0.08950  0.89650  0.58820  Biso   1.000  N
  N4       1.0000 0.91050  0.10350  0.41180  Biso   1.000  N
  N5       1.0000 0.35070  0.08530  0.62820  Biso   1.000  N
  N6       1.0000 0.64930  0.91470  0.37180  Biso   1.000  N
  C1       1.0000 0.69570  0.51040  0.55660  Biso   1.000  C
  C2       1.0000 0.30430  0.48960  0.44340  Biso   1.000  C
  C3       1.0000 0.79670  0.53710  0.46240  Biso   1.000  C
  C4       1.0000 0.20330  0.46290  0.53760  Biso   1.000  C
  C5       1.0000 0.79740  0.45380  0.35550  Biso   1.000  C
  C6       1.0000 0.20260  0.54620  0.64450  Biso   1.000  C
  H1       1.0000 0.72160  0.36920  0.33130  Biso   1.000  H
  H2       1.0000 0.27840  0.63080  0.66870  Biso   1.000  H
  C7       1.0000 0.90990  0.49500  0.28390  Biso   1.000  C
  C8       1.0000 0.09010  0.50500  0.71610  Biso   1.000  C
  H3       1.0000 0.91030  0.43860  0.21070  Biso   1.000  H
  H4       1.0000 0.08970  0.56140  0.78930  Biso   1.000  H
  C9       1.0000 0.02490  0.62240  0.32070  Biso   1.000  C
  C10      1.0000 0.97510  0.37760  0.67930  Biso   1.000  C
  H5       1.0000 0.10500  0.65170  0.27380  Biso   1.000  H
  H6       1.0000 0.89500  0.34830  0.72620  Biso   1.000  H
  C11      1.0000 0.01440  0.70150  0.42810  Biso   1.000  C
  C12      1.0000 0.98560  0.29850  0.57190  Biso   1.000  C
  C13      1.0000 0.13490  0.83820  0.48600  Biso   1.000  C
  C14      1.0000 0.86510  0.16180  0.51400  Biso   1.000  C
  C15      1.0000 0.17930  0.02820  0.65180  Biso   1.000  C
  C16      1.0000 0.82070  0.97180  0.34820  Biso   1.000  C
  C17      1.0000 0.08120  0.09630  0.73910  Biso   1.000  C
  C18      1.0000 0.91880  0.90370  0.26090  Biso   1.000  C
  H7       1.0000 0.95950  0.05660  0.75150  Biso   1.000  H
  H8       1.0000 0.04050  0.94340  0.24850  Biso   1.000  H
  C19      1.0000 0.16590  0.22360  0.80760  Biso   1.000  C
  C20      1.0000 0.83410  0.77640  0.19240  Biso   1.000  C
  H9       1.0000 0.10510  0.26890  0.86870  Biso   1.000  H
  H10      1.0000 0.89490  0.73110  0.13130  Biso   1.000  H
  C21      1.0000 0.34170  0.28180  0.78340  Biso   1.000  C
  C22      1.0000 0.65830  0.71820  0.21660  Biso   1.000  C
  H11      1.0000 0.40220  0.36720  0.82730  Biso   1.000  H
  H12      1.0000 0.59780  0.63280  0.17270  Biso   1.000  H
  C23      1.0000 0.42480  0.21060  0.69310  Biso   1.000  C
  C24      1.0000 0.57520  0.78940  0.30690  Biso   1.000  C
  H13      1.0000 0.54080  0.25170  0.67540  Biso   1.000  H
  H14      1.0000 0.45920  0.74830  0.32460  Biso   1.000  H
  C25      1.0000 0.01580  0.86770  0.85940  Biso   1.000  C
  C26      1.0000 0.98420  0.13230  0.14060  Biso   1.000  C
  C27      1.0000 0.99950  0.92780  0.98100  Biso   1.000  C
  C28      1.0000 0.00050  0.07220  0.01900  Biso   1.000  C
  H15      1.0000 0.10660  0.91520  0.02080  Biso   1.000  H
  H16      1.0000 0.89340  0.08480  0.97920  Biso   1.000  H
  H17      1.0000 0.88030  0.88300  0.99970  Biso   1.000  H
  H18      1.0000 0.11970  0.11700  0.00030  Biso   1.000  H
  O13      1.0000 0.65380  0.60160  0.86500  Biso   1.000  O
  O14      1.0000 0.34620  0.39840  0.13500  Biso   1.000  O
  O15      1.0000 0.52220  0.97330  0.82440  Biso   1.000  O
  O16      1.0000 0.47780  0.02670  0.17560  Biso   1.000  O
  O17      1.0000 0.39920  0.76470  0.98730  Biso   1.000  O
  O18      1.0000 0.60080  0.23530  0.01270  Biso   1.000  O
  O19      1.0000 0.18000  0.55790  0.05270  Biso   1.000  O
  O20      1.0000 0.82000  0.44210  0.94730  Biso   1.000  O
