data_image0
_cell_length_a       15.977
_cell_length_b       12.4892
_cell_length_c       25.713
_cell_angle_alpha    90
_cell_angle_beta     100.952
_cell_angle_gamma    90

_symmetry_space_group_name_H-M    "P 1"
_symmetry_int_tables_number       1

loop_
  _symmetry_equiv_pos_as_xyz
  'x, y, z'

loop_
  _atom_site_label
  _atom_site_occupancy
  _atom_site_fract_x
  _atom_site_fract_y
  _atom_site_fract_z
  _atom_site_thermal_displace_type
  _atom_site_B_iso_or_equiv
  _atom_site_type_symbol
  Cu1      1.0000 0.50000  0.82725  0.75000  Biso   1.000  Cu
  Cu2      1.0000 0.00000  0.32725  0.75000  Biso   1.000  Cu
  Cu3      1.0000 0.50000  0.17275  0.25000  Biso   1.000  Cu
  Cu4      1.0000 0.00000  0.67275  0.25000  Biso   1.000  Cu
  O1       1.0000 0.50000  0.00920  0.75000  Biso   1.000  O
  O2       1.0000 0.00000  0.50920  0.75000  Biso   1.000  O
  O3       1.0000 0.50000  0.99080  0.25000  Biso   1.000  O
  O4       1.0000 0.00000  0.49080  0.25000  Biso   1.000  O
  C1       1.0000 0.10050  0.38140  0.46600  Biso   1.000  C
  C2       1.0000 0.60050  0.88140  0.46600  Biso   1.000  C
  C3       1.0000 0.89950  0.38140  0.03400  Biso   1.000  C
  C4       1.0000 0.39950  0.88140  0.03400  Biso   1.000  C
  C5       1.0000 0.89950  0.61860  0.53400  Biso   1.000  C
  C6       1.0000 0.39950  0.11860  0.53400  Biso   1.000  C
  C7       1.0000 0.10050  0.61860  0.96600  Biso   1.000  C
  C8       1.0000 0.60050  0.11860  0.96600  Biso   1.000  C
  H1       1.0000 0.08480  0.43230  0.49150  Biso   1.000  H
  H2       1.0000 0.58480  0.93230  0.49150  Biso   1.000  H
  H3       1.0000 0.91520  0.43230  0.00850  Biso   1.000  H
  H4       1.0000 0.41520  0.93230  0.00850  Biso   1.000  H
  H5       1.0000 0.91520  0.56770  0.50850  Biso   1.000  H
  H6       1.0000 0.41520  0.06770  0.50850  Biso   1.000  H
  H7       1.0000 0.08480  0.56770  0.99150  Biso   1.000  H
  H8       1.0000 0.58480  0.06770  0.99150  Biso   1.000  H
  H9       1.0000 0.09360  0.30810  0.47820  Biso   1.000  H
  H10      1.0000 0.59360  0.80810  0.47820  Biso   1.000  H
  H11      1.0000 0.90640  0.30810  0.02180  Biso   1.000  H
  H12      1.0000 0.40640  0.80810  0.02180  Biso   1.000  H
  H13      1.0000 0.90640  0.69190  0.52180  Biso   1.000  H
  H14      1.0000 0.40640  0.19190  0.52180  Biso   1.000  H
  H15      1.0000 0.09360  0.69190  0.97820  Biso   1.000  H
  H16      1.0000 0.59360  0.19190  0.97820  Biso   1.000  H
  H17      1.0000 0.06360  0.39210  0.43130  Biso   1.000  H
  H18      1.0000 0.56360  0.89210  0.43130  Biso   1.000  H
  H19      1.0000 0.93640  0.39210  0.06870  Biso   1.000  H
  H20      1.0000 0.43640  0.89210  0.06870  Biso   1.000  H
  H21      1.0000 0.93640  0.60790  0.56870  Biso   1.000  H
  H22      1.0000 0.43640  0.10790  0.56870  Biso   1.000  H
  H23      1.0000 0.06360  0.60790  0.93130  Biso   1.000  H
  H24      1.0000 0.56360  0.10790  0.93130  Biso   1.000  H
  C9       1.0000 0.18950  0.39860  0.46140  Biso   1.000  C
  C10      1.0000 0.68950  0.89860  0.46140  Biso   1.000  C
  C11      1.0000 0.81050  0.39860  0.03860  Biso   1.000  C
  C12      1.0000 0.31050  0.89860  0.03860  Biso   1.000  C
  C13      1.0000 0.81050  0.60140  0.53860  Biso   1.000  C
  C14      1.0000 0.31050  0.10140  0.53860  Biso   1.000  C
  C15      1.0000 0.18950  0.60140  0.96140  Biso   1.000  C
  C16      1.0000 0.68950  0.10140  0.96140  Biso   1.000  C
  N1       1.0000 0.21680  0.41720  0.41632  Biso   1.000  N
  N2       1.0000 0.71680  0.91720  0.41632  Biso   1.000  N
  N3       1.0000 0.78320  0.41720  0.08368  Biso   1.000  N
  N4       1.0000 0.28320  0.91720  0.08368  Biso   1.000  N
  N5       1.0000 0.78320  0.58280  0.58368  Biso   1.000  N
  N6       1.0000 0.28320  0.08280  0.58368  Biso   1.000  N
  N7       1.0000 0.21680  0.58280  0.91632  Biso   1.000  N
  N8       1.0000 0.71680  0.08280  0.91632  Biso   1.000  N
  C17      1.0000 0.30380  0.42350  0.42950  Biso   1.000  C
  C18      1.0000 0.80380  0.92350  0.42950  Biso   1.000  C
  C19      1.0000 0.69620  0.42350  0.07050  Biso   1.000  C
  C20      1.0000 0.19620  0.92350  0.07050  Biso   1.000  C
  C21      1.0000 0.69620  0.57650  0.57050  Biso   1.000  C
  C22      1.0000 0.19620  0.07650  0.57050  Biso   1.000  C
  C23      1.0000 0.30380  0.57650  0.92950  Biso   1.000  C
  C24      1.0000 0.80380  0.07650  0.92950  Biso   1.000  C
  H25      1.0000 0.34070  0.43660  0.40520  Biso   1.000  H
  H26      1.0000 0.84070  0.93660  0.40520  Biso   1.000  H
  H27      1.0000 0.65930  0.43660  0.09480  Biso   1.000  H
  H28      1.0000 0.15930  0.93660  0.09480  Biso   1.000  H
  H29      1.0000 0.65930  0.56340  0.59480  Biso   1.000  H
  H30      1.0000 0.15930  0.06340  0.59480  Biso   1.000  H
  H31      1.0000 0.34070  0.56340  0.90520  Biso   1.000  H
  H32      1.0000 0.84070  0.06340  0.90520  Biso   1.000  H
  C25      1.0000 0.32950  0.40820  0.48230  Biso   1.000  C
  C26      1.0000 0.82950  0.90820  0.48230  Biso   1.000  C
  C27      1.0000 0.67050  0.40820  0.01770  Biso   1.000  C
  C28      1.0000 0.17050  0.90820  0.01770  Biso   1.000  C
  C29      1.0000 0.67050  0.59180  0.51770  Biso   1.000  C
  C30      1.0000 0.17050  0.09180  0.51770  Biso   1.000  C
  C31      1.0000 0.32950  0.59180  0.98230  Biso   1.000  C
  C32      1.0000 0.82950  0.09180  0.98230  Biso   1.000  C
  H33      1.0000 0.38650  0.40820  0.50150  Biso   1.000  H
  H34      1.0000 0.88650  0.90820  0.50150  Biso   1.000  H
  H35      1.0000 0.61350  0.40820  0.99850  Biso   1.000  H
  H36      1.0000 0.11350  0.90820  0.99850  Biso   1.000  H
  H37      1.0000 0.61350  0.59180  0.49850  Biso   1.000  H
  H38      1.0000 0.11350  0.09180  0.49850  Biso   1.000  H
  H39      1.0000 0.38650  0.59180  0.00150  Biso   1.000  H
  H40      1.0000 0.88650  0.09180  0.00150  Biso   1.000  H
  N9       1.0000 0.25780  0.39270  0.50251  Biso   1.000  N
  N10      1.0000 0.75780  0.89270  0.50251  Biso   1.000  N
  N11      1.0000 0.74220  0.39270  0.99749  Biso   1.000  N
  N12      1.0000 0.24220  0.89270  0.99749  Biso   1.000  N
  N13      1.0000 0.74220  0.60730  0.49749  Biso   1.000  N
  N14      1.0000 0.24220  0.10730  0.49749  Biso   1.000  N
  N15      1.0000 0.25780  0.60730  0.00251  Biso   1.000  N
  N16      1.0000 0.75780  0.10730  0.00251  Biso   1.000  N
  C33      1.0000 0.25440  0.36140  0.55680  Biso   1.000  C
  C34      1.0000 0.75440  0.86140  0.55680  Biso   1.000  C
  C35      1.0000 0.74560  0.36140  0.94320  Biso   1.000  C
  C36      1.0000 0.24560  0.86140  0.94320  Biso   1.000  C
  C37      1.0000 0.74560  0.63860  0.44320  Biso   1.000  C
  C38      1.0000 0.24560  0.13860  0.44320  Biso   1.000  C
  C39      1.0000 0.25440  0.63860  0.05680  Biso   1.000  C
  C40      1.0000 0.75440  0.13860  0.05680  Biso   1.000  C
  H41      1.0000 0.31070  0.33140  0.57290  Biso   1.000  H
  H42      1.0000 0.81070  0.83140  0.57290  Biso   1.000  H
  H43      1.0000 0.68930  0.33140  0.92710  Biso   1.000  H
  H44      1.0000 0.18930  0.83140  0.92710  Biso   1.000  H
  H45      1.0000 0.68930  0.66860  0.42710  Biso   1.000  H
  H46      1.0000 0.18930  0.16860  0.42710  Biso   1.000  H
  H47      1.0000 0.31070  0.66860  0.07290  Biso   1.000  H
  H48      1.0000 0.81070  0.16860  0.07290  Biso   1.000  H
  H49      1.0000 0.21220  0.30290  0.55520  Biso   1.000  H
  H50      1.0000 0.71220  0.80290  0.55520  Biso   1.000  H
  H51      1.0000 0.78780  0.30290  0.94480  Biso   1.000  H
  H52      1.0000 0.28780  0.80290  0.94480  Biso   1.000  H
  H53      1.0000 0.78780  0.69710  0.44480  Biso   1.000  H
  H54      1.0000 0.28780  0.19710  0.44480  Biso   1.000  H
  H55      1.0000 0.21220  0.69710  0.05520  Biso   1.000  H
  H56      1.0000 0.71220  0.19710  0.05520  Biso   1.000  H
  C41      1.0000 0.23200  0.44790  0.59398  Biso   1.000  C
  C42      1.0000 0.73200  0.94790  0.59398  Biso   1.000  C
  C43      1.0000 0.76800  0.44790  0.90602  Biso   1.000  C
  C44      1.0000 0.26800  0.94790  0.90602  Biso   1.000  C
  C45      1.0000 0.76800  0.55210  0.40602  Biso   1.000  C
  C46      1.0000 0.26800  0.05210  0.40602  Biso   1.000  C
  C47      1.0000 0.23200  0.55210  0.09398  Biso   1.000  C
  C48      1.0000 0.73200  0.05210  0.09398  Biso   1.000  C
  C49      1.0000 0.19050  0.54180  0.57759  Biso   1.000  C
  C50      1.0000 0.69050  0.04180  0.57759  Biso   1.000  C
  C51      1.0000 0.80950  0.54180  0.92241  Biso   1.000  C
  C52      1.0000 0.30950  0.04180  0.92241  Biso   1.000  C
  C53      1.0000 0.80950  0.45820  0.42241  Biso   1.000  C
  C54      1.0000 0.30950  0.95820  0.42241  Biso   1.000  C
  C55      1.0000 0.19050  0.45820  0.07759  Biso   1.000  C
  C56      1.0000 0.69050  0.95820  0.07759  Biso   1.000  C
  H57      1.0000 0.17600  0.55720  0.54080  Biso   1.000  H
  H58      1.0000 0.67600  0.05720  0.54080  Biso   1.000  H
  H59      1.0000 0.82400  0.55720  0.95920  Biso   1.000  H
  H60      1.0000 0.32400  0.05720  0.95920  Biso   1.000  H
  H61      1.0000 0.82400  0.44280  0.45920  Biso   1.000  H
  H62      1.0000 0.32400  0.94280  0.45920  Biso   1.000  H
  H63      1.0000 0.17600  0.44280  0.04080  Biso   1.000  H
  H64      1.0000 0.67600  0.94280  0.04080  Biso   1.000  H
  C57      1.0000 0.16960  0.61410  0.61345  Biso   1.000  C
  C58      1.0000 0.66960  0.11410  0.61345  Biso   1.000  C
  C59      1.0000 0.83040  0.61410  0.88655  Biso   1.000  C
  C60      1.0000 0.33040  0.11410  0.88655  Biso   1.000  C
  C61      1.0000 0.83040  0.38590  0.38655  Biso   1.000  C
  C62      1.0000 0.33040  0.88590  0.38655  Biso   1.000  C
  C63      1.0000 0.16960  0.38590  0.11345  Biso   1.000  C
  C64      1.0000 0.66960  0.88590  0.11345  Biso   1.000  C
  H65      1.0000 0.14150  0.67880  0.60110  Biso   1.000  H
  H66      1.0000 0.64150  0.17880  0.60110  Biso   1.000  H
  H67      1.0000 0.85850  0.67880  0.89890  Biso   1.000  H
  H68      1.0000 0.35850  0.17880  0.89890  Biso   1.000  H
  H69      1.0000 0.85850  0.32120  0.39890  Biso   1.000  H
  H70      1.0000 0.35850  0.82120  0.39890  Biso   1.000  H
  H71      1.0000 0.14150  0.32120  0.10110  Biso   1.000  H
  H72      1.0000 0.64150  0.82120  0.10110  Biso   1.000  H
  C65      1.0000 0.18960  0.59300  0.66843  Biso   1.000  C
  C66      1.0000 0.68960  0.09300  0.66843  Biso   1.000  C
  C67      1.0000 0.81040  0.59300  0.83157  Biso   1.000  C
  C68      1.0000 0.31040  0.09300  0.83157  Biso   1.000  C
  C69      1.0000 0.81040  0.40700  0.33157  Biso   1.000  C
  C70      1.0000 0.31040  0.90700  0.33157  Biso   1.000  C
  C71      1.0000 0.18960  0.40700  0.16843  Biso   1.000  C
  C72      1.0000 0.68960  0.90700  0.16843  Biso   1.000  C
  C73      1.0000 0.23120  0.49760  0.68429  Biso   1.000  C
  C74      1.0000 0.73120  0.99760  0.68429  Biso   1.000  C
  C75      1.0000 0.76880  0.49760  0.81571  Biso   1.000  C
  C76      1.0000 0.26880  0.99760  0.81571  Biso   1.000  C
  C77      1.0000 0.76880  0.50240  0.31571  Biso   1.000  C
  C78      1.0000 0.26880  0.00240  0.31571  Biso   1.000  C
  C79      1.0000 0.23120  0.50240  0.18429  Biso   1.000  C
  C80      1.0000 0.73120  0.00240  0.18429  Biso   1.000  C
  H73      1.0000 0.24600  0.48160  0.72100  Biso   1.000  H
  H74      1.0000 0.74600  0.98160  0.72100  Biso   1.000  H
  H75      1.0000 0.75400  0.48160  0.77900  Biso   1.000  H
  H76      1.0000 0.25400  0.98160  0.77900  Biso   1.000  H
  H77      1.0000 0.75400  0.51840  0.27900  Biso   1.000  H
  H78      1.0000 0.25400  0.01840  0.27900  Biso   1.000  H
  H79      1.0000 0.24600  0.51840  0.22100  Biso   1.000  H
  H80      1.0000 0.74600  0.01840  0.22100  Biso   1.000  H
  C81      1.0000 0.25150  0.42660  0.64865  Biso   1.000  C
  C82      1.0000 0.75150  0.92660  0.64865  Biso   1.000  C
  C83      1.0000 0.74850  0.42660  0.85135  Biso   1.000  C
  C84      1.0000 0.24850  0.92660  0.85135  Biso   1.000  C
  C85      1.0000 0.74850  0.57340  0.35135  Biso   1.000  C
  C86      1.0000 0.24850  0.07340  0.35135  Biso   1.000  C
  C87      1.0000 0.25150  0.57340  0.14865  Biso   1.000  C
  C88      1.0000 0.75150  0.07340  0.14865  Biso   1.000  C
  H81      1.0000 0.27930  0.36160  0.66080  Biso   1.000  H
  H82      1.0000 0.77930  0.86160  0.66080  Biso   1.000  H
  H83      1.0000 0.72070  0.36160  0.83920  Biso   1.000  H
  H84      1.0000 0.22070  0.86160  0.83920  Biso   1.000  H
  H85      1.0000 0.72070  0.63840  0.33920  Biso   1.000  H
  H86      1.0000 0.22070  0.13840  0.33920  Biso   1.000  H
  H87      1.0000 0.27930  0.63840  0.16080  Biso   1.000  H
  H88      1.0000 0.77930  0.13840  0.16080  Biso   1.000  H
  C89      1.0000 0.17180  0.67510  0.70780  Biso   1.000  C
  C90      1.0000 0.67180  0.17510  0.70780  Biso   1.000  C
  C91      1.0000 0.82820  0.67510  0.79220  Biso   1.000  C
  C92      1.0000 0.32820  0.17510  0.79220  Biso   1.000  C
  C93      1.0000 0.82820  0.32490  0.29220  Biso   1.000  C
  C94      1.0000 0.32820  0.82490  0.29220  Biso   1.000  C
  C95      1.0000 0.17180  0.32490  0.20780  Biso   1.000  C
  C96      1.0000 0.67180  0.82490  0.20780  Biso   1.000  C
  H89      1.0000 0.11640  0.71030  0.69430  Biso   1.000  H
  H90      1.0000 0.61640  0.21030  0.69430  Biso   1.000  H
  H91      1.0000 0.88360  0.71030  0.80570  Biso   1.000  H
  H92      1.0000 0.38360  0.21030  0.80570  Biso   1.000  H
  H93      1.0000 0.88360  0.28970  0.30570  Biso   1.000  H
  H94      1.0000 0.38360  0.78970  0.30570  Biso   1.000  H
  H95      1.0000 0.11640  0.28970  0.19430  Biso   1.000  H
  H96      1.0000 0.61640  0.78970  0.19430  Biso   1.000  H
  H97      1.0000 0.16830  0.63950  0.74180  Biso   1.000  H
  H98      1.0000 0.66830  0.13950  0.74180  Biso   1.000  H
  H99      1.0000 0.83170  0.63950  0.75820  Biso   1.000  H
  H100     1.0000 0.33170  0.13950  0.75820  Biso   1.000  H
  H101     1.0000 0.83170  0.36050  0.25820  Biso   1.000  H
  H102     1.0000 0.33170  0.86050  0.25820  Biso   1.000  H
  H103     1.0000 0.16830  0.36050  0.24180  Biso   1.000  H
  H104     1.0000 0.66830  0.86050  0.24180  Biso   1.000  H
  N17      1.0000 0.24100  0.75720  0.71682  Biso   1.000  N
  N18      1.0000 0.74100  0.25720  0.71682  Biso   1.000  N
  N19      1.0000 0.75900  0.75720  0.78318  Biso   1.000  N
  N20      1.0000 0.25900  0.25720  0.78318  Biso   1.000  N
  N21      1.0000 0.75900  0.24280  0.28318  Biso   1.000  N
  N22      1.0000 0.25900  0.74280  0.28318  Biso   1.000  N
  N23      1.0000 0.24100  0.24280  0.21682  Biso   1.000  N
  N24      1.0000 0.74100  0.74280  0.21682  Biso   1.000  N
  C97      1.0000 0.24380  0.84350  0.68412  Biso   1.000  C
  C98      1.0000 0.74380  0.34350  0.68412  Biso   1.000  C
  C99      1.0000 0.75620  0.84350  0.81588  Biso   1.000  C
  C100     1.0000 0.25620  0.34350  0.81588  Biso   1.000  C
  C101     1.0000 0.75620  0.15650  0.31588  Biso   1.000  C
  C102     1.0000 0.25620  0.65650  0.31588  Biso   1.000  C
  C103     1.0000 0.24380  0.15650  0.18412  Biso   1.000  C
  C104     1.0000 0.74380  0.65650  0.18412  Biso   1.000  C
  H105     1.0000 0.19840  0.87040  0.65810  Biso   1.000  H
  H106     1.0000 0.69840  0.37040  0.65810  Biso   1.000  H
  H107     1.0000 0.80160  0.87040  0.84190  Biso   1.000  H
  H108     1.0000 0.30160  0.37040  0.84190  Biso   1.000  H
  H109     1.0000 0.80160  0.12960  0.34190  Biso   1.000  H
  H110     1.0000 0.30160  0.62960  0.34190  Biso   1.000  H
  H111     1.0000 0.19840  0.12960  0.15810  Biso   1.000  H
  H112     1.0000 0.69840  0.62960  0.15810  Biso   1.000  H
  C105     1.0000 0.32390  0.88220  0.69645  Biso   1.000  C
  C106     1.0000 0.82390  0.38220  0.69645  Biso   1.000  C
  C107     1.0000 0.67610  0.88220  0.80355  Biso   1.000  C
  C108     1.0000 0.17610  0.38220  0.80355  Biso   1.000  C
  C109     1.0000 0.67610  0.11780  0.30355  Biso   1.000  C
  C110     1.0000 0.17610  0.61780  0.30355  Biso   1.000  C
  C111     1.0000 0.32390  0.11780  0.19645  Biso   1.000  C
  C112     1.0000 0.82390  0.61780  0.19645  Biso   1.000  C
  H113     1.0000 0.34440  0.94310  0.68060  Biso   1.000  H
  H114     1.0000 0.84440  0.44310  0.68060  Biso   1.000  H
  H115     1.0000 0.65560  0.94310  0.81940  Biso   1.000  H
  H116     1.0000 0.15560  0.44310  0.81940  Biso   1.000  H
  H117     1.0000 0.65560  0.05690  0.31940  Biso   1.000  H
  H118     1.0000 0.15560  0.55690  0.31940  Biso   1.000  H
  H119     1.0000 0.34440  0.05690  0.18060  Biso   1.000  H
  H120     1.0000 0.84440  0.55690  0.18060  Biso   1.000  H
  N25      1.0000 0.37130  0.82010  0.73549  Biso   1.000  N
  N26      1.0000 0.87130  0.32010  0.73549  Biso   1.000  N
  N27      1.0000 0.62870  0.82010  0.76451  Biso   1.000  N
  N28      1.0000 0.12870  0.32010  0.76451  Biso   1.000  N
  N29      1.0000 0.62870  0.17990  0.26451  Biso   1.000  N
  N30      1.0000 0.12870  0.67990  0.26451  Biso   1.000  N
  N31      1.0000 0.37130  0.17990  0.23549  Biso   1.000  N
  N32      1.0000 0.87130  0.67990  0.23549  Biso   1.000  N
  C113     1.0000 0.31830  0.74550  0.74721  Biso   1.000  C
  C114     1.0000 0.81830  0.24550  0.74721  Biso   1.000  C
  C115     1.0000 0.68170  0.74550  0.75279  Biso   1.000  C
  C116     1.0000 0.18170  0.24550  0.75279  Biso   1.000  C
  C117     1.0000 0.68170  0.25450  0.25279  Biso   1.000  C
  C118     1.0000 0.18170  0.75450  0.25279  Biso   1.000  C
  C119     1.0000 0.31830  0.25450  0.24721  Biso   1.000  C
  C120     1.0000 0.81830  0.75450  0.24721  Biso   1.000  C
  C121     1.0000 0.34070  0.66090  0.78840  Biso   1.000  C
  C122     1.0000 0.84070  0.16090  0.78840  Biso   1.000  C
  C123     1.0000 0.65930  0.66090  0.71160  Biso   1.000  C
  C124     1.0000 0.15930  0.16090  0.71160  Biso   1.000  C
  C125     1.0000 0.65930  0.33910  0.21160  Biso   1.000  C
  C126     1.0000 0.15930  0.83910  0.21160  Biso   1.000  C
  C127     1.0000 0.34070  0.33910  0.28840  Biso   1.000  C
  C128     1.0000 0.84070  0.83910  0.28840  Biso   1.000  C
  H121     1.0000 0.37350  0.60440  0.77500  Biso   1.000  H
  H122     1.0000 0.87350  0.10440  0.77500  Biso   1.000  H
  H123     1.0000 0.62650  0.60440  0.72500  Biso   1.000  H
  H124     1.0000 0.12650  0.10440  0.72500  Biso   1.000  H
  H125     1.0000 0.62650  0.39560  0.22500  Biso   1.000  H
  H126     1.0000 0.12650  0.89560  0.22500  Biso   1.000  H
  H127     1.0000 0.37350  0.39560  0.27500  Biso   1.000  H
  H128     1.0000 0.87350  0.89560  0.27500  Biso   1.000  H
  H129     1.0000 0.28840  0.63040  0.79680  Biso   1.000  H
  H130     1.0000 0.78840  0.13040  0.79680  Biso   1.000  H
  H131     1.0000 0.71160  0.63040  0.70320  Biso   1.000  H
  H132     1.0000 0.21160  0.13040  0.70320  Biso   1.000  H
  H133     1.0000 0.71160  0.36960  0.20320  Biso   1.000  H
  H134     1.0000 0.21160  0.86960  0.20320  Biso   1.000  H
  H135     1.0000 0.28840  0.36960  0.29680  Biso   1.000  H
  H136     1.0000 0.78840  0.86960  0.29680  Biso   1.000  H
  H137     1.0000 0.37500  0.69230  0.82040  Biso   1.000  H
  H138     1.0000 0.87500  0.19230  0.82040  Biso   1.000  H
  H139     1.0000 0.62500  0.69230  0.67960  Biso   1.000  H
  H140     1.0000 0.12500  0.19230  0.67960  Biso   1.000  H
  H141     1.0000 0.62500  0.30770  0.17960  Biso   1.000  H
  H142     1.0000 0.12500  0.80770  0.17960  Biso   1.000  H
  H143     1.0000 0.37500  0.30770  0.32040  Biso   1.000  H
  H144     1.0000 0.87500  0.80770  0.32040  Biso   1.000  H
  C129     1.0000 0.41840  0.63720  0.65410  Biso   1.000  C
  C130     1.0000 0.91840  0.13720  0.65410  Biso   1.000  C
  C131     1.0000 0.58160  0.63720  0.84590  Biso   1.000  C
  C132     1.0000 0.08160  0.13720  0.84590  Biso   1.000  C
  C133     1.0000 0.58160  0.36280  0.34590  Biso   1.000  C
  C134     1.0000 0.08160  0.86280  0.34590  Biso   1.000  C
  C135     1.0000 0.41840  0.36280  0.15410  Biso   1.000  C
  C136     1.0000 0.91840  0.86280  0.15410  Biso   1.000  C
  H145     1.0000 0.42900  0.63040  0.69270  Biso   1.000  H
  H146     1.0000 0.92900  0.13040  0.69270  Biso   1.000  H
  H147     1.0000 0.57100  0.63040  0.80730  Biso   1.000  H
  H148     1.0000 0.07100  0.13040  0.80730  Biso   1.000  H
  H149     1.0000 0.57100  0.36960  0.30730  Biso   1.000  H
  H150     1.0000 0.07100  0.86960  0.30730  Biso   1.000  H
  H151     1.0000 0.42900  0.36960  0.19270  Biso   1.000  H
  H152     1.0000 0.92900  0.86960  0.19270  Biso   1.000  H
  H153     1.0000 0.44260  0.57510  0.63880  Biso   1.000  H
  H154     1.0000 0.94260  0.07510  0.63880  Biso   1.000  H
  H155     1.0000 0.55740  0.57510  0.86120  Biso   1.000  H
  H156     1.0000 0.05740  0.07510  0.86120  Biso   1.000  H
  H157     1.0000 0.55740  0.42490  0.36120  Biso   1.000  H
  H158     1.0000 0.05740  0.92490  0.36120  Biso   1.000  H
  H159     1.0000 0.44260  0.42490  0.13880  Biso   1.000  H
  H160     1.0000 0.94260  0.92490  0.13880  Biso   1.000  H
  H161     1.0000 0.35690  0.64030  0.64050  Biso   1.000  H
  H162     1.0000 0.85690  0.14030  0.64050  Biso   1.000  H
  H163     1.0000 0.64310  0.64030  0.85950  Biso   1.000  H
  H164     1.0000 0.14310  0.14030  0.85950  Biso   1.000  H
  H165     1.0000 0.64310  0.35970  0.35950  Biso   1.000  H
  H166     1.0000 0.14310  0.85970  0.35950  Biso   1.000  H
  H167     1.0000 0.35690  0.35970  0.14050  Biso   1.000  H
  H168     1.0000 0.85690  0.85970  0.14050  Biso   1.000  H
  C137     1.0000 0.45890  0.73610  0.63927  Biso   1.000  C
  C138     1.0000 0.95890  0.23610  0.63927  Biso   1.000  C
  C139     1.0000 0.54110  0.73610  0.86073  Biso   1.000  C
  C140     1.0000 0.04110  0.23610  0.86073  Biso   1.000  C
  C141     1.0000 0.54110  0.26390  0.36073  Biso   1.000  C
  C142     1.0000 0.04110  0.76390  0.36073  Biso   1.000  C
  C143     1.0000 0.45890  0.26390  0.13927  Biso   1.000  C
  C144     1.0000 0.95890  0.76390  0.13927  Biso   1.000  C
  N33      1.0000 0.49400  0.81360  0.67189  Biso   1.000  N
  N34      1.0000 0.99400  0.31360  0.67189  Biso   1.000  N
  N35      1.0000 0.50600  0.81360  0.82811  Biso   1.000  N
  N36      1.0000 0.00600  0.31360  0.82811  Biso   1.000  N
  N37      1.0000 0.50600  0.18640  0.32811  Biso   1.000  N
  N38      1.0000 0.00600  0.68640  0.32811  Biso   1.000  N
  N39      1.0000 0.49400  0.18640  0.17189  Biso   1.000  N
  N40      1.0000 0.99400  0.68640  0.17189  Biso   1.000  N
  C145     1.0000 0.52250  0.88940  0.64124  Biso   1.000  C
  C146     1.0000 0.02250  0.38940  0.64124  Biso   1.000  C
  C147     1.0000 0.47750  0.88940  0.85876  Biso   1.000  C
  C148     1.0000 0.97750  0.38940  0.85876  Biso   1.000  C
  C149     1.0000 0.47750  0.11060  0.35876  Biso   1.000  C
  C150     1.0000 0.97750  0.61060  0.35876  Biso   1.000  C
  C151     1.0000 0.52250  0.11060  0.14124  Biso   1.000  C
  C152     1.0000 0.02250  0.61060  0.14124  Biso   1.000  C
  H169     1.0000 0.55030  0.95410  0.65410  Biso   1.000  H
  H170     1.0000 0.05030  0.45410  0.65410  Biso   1.000  H
  H171     1.0000 0.44970  0.95410  0.84590  Biso   1.000  H
  H172     1.0000 0.94970  0.45410  0.84590  Biso   1.000  H
  H173     1.0000 0.44970  0.04590  0.34590  Biso   1.000  H
  H174     1.0000 0.94970  0.54590  0.34590  Biso   1.000  H
  H175     1.0000 0.55030  0.04590  0.15410  Biso   1.000  H
  H176     1.0000 0.05030  0.54590  0.15410  Biso   1.000  H
  C153     1.0000 0.50520  0.85880  0.58993  Biso   1.000  C
  C154     1.0000 0.00520  0.35880  0.58993  Biso   1.000  C
  C155     1.0000 0.49480  0.85880  0.91007  Biso   1.000  C
  C156     1.0000 0.99480  0.35880  0.91007  Biso   1.000  C
  C157     1.0000 0.49480  0.14120  0.41007  Biso   1.000  C
  C158     1.0000 0.99480  0.64120  0.41007  Biso   1.000  C
  C159     1.0000 0.50520  0.14120  0.08993  Biso   1.000  C
  C160     1.0000 0.00520  0.64120  0.08993  Biso   1.000  C
  H177     1.0000 0.51780  0.89700  0.56040  Biso   1.000  H
  H178     1.0000 0.01780  0.39700  0.56040  Biso   1.000  H
  H179     1.0000 0.48220  0.89700  0.93960  Biso   1.000  H
  H180     1.0000 0.98220  0.39700  0.93960  Biso   1.000  H
  H181     1.0000 0.48220  0.10300  0.43960  Biso   1.000  H
  H182     1.0000 0.98220  0.60300  0.43960  Biso   1.000  H
  H183     1.0000 0.51780  0.10300  0.06040  Biso   1.000  H
  H184     1.0000 0.01780  0.60300  0.06040  Biso   1.000  H
  N41      1.0000 0.46560  0.76080  0.58918  Biso   1.000  N
  N42      1.0000 0.96560  0.26080  0.58918  Biso   1.000  N
  N43      1.0000 0.53440  0.76080  0.91082  Biso   1.000  N
  N44      1.0000 0.03440  0.26080  0.91082  Biso   1.000  N
  N45      1.0000 0.53440  0.23920  0.41082  Biso   1.000  N
  N46      1.0000 0.03440  0.73920  0.41082  Biso   1.000  N
  N47      1.0000 0.46560  0.23920  0.08918  Biso   1.000  N
  N48      1.0000 0.96560  0.73920  0.08918  Biso   1.000  N
  C161     1.0000 0.42840  0.70110  0.54120  Biso   1.000  C
  C162     1.0000 0.92840  0.20110  0.54120  Biso   1.000  C
  C163     1.0000 0.57160  0.70110  0.95880  Biso   1.000  C
  C164     1.0000 0.07160  0.20110  0.95880  Biso   1.000  C
  C165     1.0000 0.57160  0.29890  0.45880  Biso   1.000  C
  C166     1.0000 0.07160  0.79890  0.45880  Biso   1.000  C
  C167     1.0000 0.42840  0.29890  0.04120  Biso   1.000  C
  C168     1.0000 0.92840  0.79890  0.04120  Biso   1.000  C
  H185     1.0000 0.43260  0.62350  0.54900  Biso   1.000  H
  H186     1.0000 0.93260  0.12350  0.54900  Biso   1.000  H
  H187     1.0000 0.56740  0.62350  0.95100  Biso   1.000  H
  H188     1.0000 0.06740  0.12350  0.95100  Biso   1.000  H
  H189     1.0000 0.56740  0.37650  0.45100  Biso   1.000  H
  H190     1.0000 0.06740  0.87650  0.45100  Biso   1.000  H
  H191     1.0000 0.43260  0.37650  0.04900  Biso   1.000  H
  H192     1.0000 0.93260  0.87650  0.04900  Biso   1.000  H
  H193     1.0000 0.46170  0.71610  0.51330  Biso   1.000  H
  H194     1.0000 0.96170  0.21610  0.51330  Biso   1.000  H
  H195     1.0000 0.53830  0.71610  0.98670  Biso   1.000  H
  H196     1.0000 0.03830  0.21610  0.98670  Biso   1.000  H
  H197     1.0000 0.53830  0.28390  0.48670  Biso   1.000  H
  H198     1.0000 0.03830  0.78390  0.48670  Biso   1.000  H
  H199     1.0000 0.46170  0.28390  0.01330  Biso   1.000  H
  H200     1.0000 0.96170  0.78390  0.01330  Biso   1.000  H
  C169     1.0000 0.33620  0.72970  0.52082  Biso   1.000  C
  C170     1.0000 0.83620  0.22970  0.52082  Biso   1.000  C
  C171     1.0000 0.66380  0.72970  0.97918  Biso   1.000  C
  C172     1.0000 0.16380  0.22970  0.97918  Biso   1.000  C
  C173     1.0000 0.66380  0.27030  0.47918  Biso   1.000  C
  C174     1.0000 0.16380  0.77030  0.47918  Biso   1.000  C
  C175     1.0000 0.33620  0.27030  0.02082  Biso   1.000  C
  C176     1.0000 0.83620  0.77030  0.02082  Biso   1.000  C
  C177     1.0000 0.28900  0.79870  0.54638  Biso   1.000  C
  C178     1.0000 0.78900  0.29870  0.54638  Biso   1.000  C
  C179     1.0000 0.71100  0.79870  0.95362  Biso   1.000  C
  C180     1.0000 0.21100  0.29870  0.95362  Biso   1.000  C
  C181     1.0000 0.71100  0.20130  0.45362  Biso   1.000  C
  C182     1.0000 0.21100  0.70130  0.45362  Biso   1.000  C
  C183     1.0000 0.28900  0.20130  0.04638  Biso   1.000  C
  C184     1.0000 0.78900  0.70130  0.04638  Biso   1.000  C
  H201     1.0000 0.31570  0.83330  0.57810  Biso   1.000  H
  H202     1.0000 0.81570  0.33330  0.57810  Biso   1.000  H
  H203     1.0000 0.68430  0.83330  0.92190  Biso   1.000  H
  H204     1.0000 0.18430  0.33330  0.92190  Biso   1.000  H
  H205     1.0000 0.68430  0.16670  0.42190  Biso   1.000  H
  H206     1.0000 0.18430  0.66670  0.42190  Biso   1.000  H
  H207     1.0000 0.31570  0.16670  0.07810  Biso   1.000  H
  H208     1.0000 0.81570  0.66670  0.07810  Biso   1.000  H
  C185     1.0000 0.29540  0.68250  0.47351  Biso   1.000  C
  C186     1.0000 0.79540  0.18250  0.47351  Biso   1.000  C
  C187     1.0000 0.70460  0.68250  0.02649  Biso   1.000  C
  C188     1.0000 0.20460  0.18250  0.02649  Biso   1.000  C
  C189     1.0000 0.70460  0.31750  0.52649  Biso   1.000  C
  C190     1.0000 0.20460  0.81750  0.52649  Biso   1.000  C
  C191     1.0000 0.29540  0.31750  0.97351  Biso   1.000  C
  C192     1.0000 0.79540  0.81750  0.97351  Biso   1.000  C
  H209     1.0000 0.32680  0.63660  0.45480  Biso   1.000  H
  H210     1.0000 0.82680  0.13660  0.45480  Biso   1.000  H
  H211     1.0000 0.67320  0.63660  0.04520  Biso   1.000  H
  H212     1.0000 0.17320  0.13660  0.04520  Biso   1.000  H
  H213     1.0000 0.67320  0.36340  0.54520  Biso   1.000  H
  H214     1.0000 0.17320  0.86340  0.54520  Biso   1.000  H
  H215     1.0000 0.32680  0.36340  0.95480  Biso   1.000  H
  H216     1.0000 0.82680  0.86340  0.95480  Biso   1.000  H
  H217     1.0000 0.46000  0.06300  0.73100  Biso   1.000  H
  H218     1.0000 0.96000  0.56300  0.73100  Biso   1.000  H
  H219     1.0000 0.54000  0.06300  0.76900  Biso   1.000  H
  H220     1.0000 0.04000  0.56300  0.76900  Biso   1.000  H
  H221     1.0000 0.54000  0.93700  0.26900  Biso   1.000  H
  H222     1.0000 0.04000  0.43700  0.26900  Biso   1.000  H
  H223     1.0000 0.46000  0.93700  0.23100  Biso   1.000  H
  H224     1.0000 0.96000  0.43700  0.23100  Biso   1.000  H
  O5       1.0000 0.40110  0.14160  0.67610  Biso   1.000  O
  O6       1.0000 0.90110  0.64160  0.67610  Biso   1.000  O
  O7       1.0000 0.59890  0.14160  0.82390  Biso   1.000  O
  O8       1.0000 0.09890  0.64160  0.82390  Biso   1.000  O
  O9       1.0000 0.59890  0.85840  0.32390  Biso   1.000  O
  O10      1.0000 0.09890  0.35840  0.32390  Biso   1.000  O
  O11      1.0000 0.40110  0.85840  0.17610  Biso   1.000  O
  O12      1.0000 0.90110  0.35840  0.17610  Biso   1.000  O
  H225     1.0000 0.41830  0.21760  0.67170  Biso   1.000  H
  H226     1.0000 0.91830  0.71760  0.67170  Biso   1.000  H
  H227     1.0000 0.58170  0.21760  0.82830  Biso   1.000  H
  H228     1.0000 0.08170  0.71760  0.82830  Biso   1.000  H
  H229     1.0000 0.58170  0.78240  0.32830  Biso   1.000  H
  H230     1.0000 0.08170  0.28240  0.32830  Biso   1.000  H
  H231     1.0000 0.41830  0.78240  0.17170  Biso   1.000  H
  H232     1.0000 0.91830  0.28240  0.17170  Biso   1.000  H
  H233     1.0000 0.35000  0.13200  0.64700  Biso   1.000  H
  H234     1.0000 0.85000  0.63200  0.64700  Biso   1.000  H
  H235     1.0000 0.65000  0.13200  0.85300  Biso   1.000  H
  H236     1.0000 0.15000  0.63200  0.85300  Biso   1.000  H
  H237     1.0000 0.65000  0.86800  0.35300  Biso   1.000  H
  H238     1.0000 0.15000  0.36800  0.35300  Biso   1.000  H
  H239     1.0000 0.35000  0.86800  0.14700  Biso   1.000  H
  H240     1.0000 0.85000  0.36800  0.14700  Biso   1.000  H
  O13      1.0000 0.50000  0.46630  0.75000  Biso   1.000  O
  O14      1.0000 0.00000  0.96630  0.75000  Biso   1.000  O
  O15      1.0000 0.50000  0.53370  0.25000  Biso   1.000  O
  O16      1.0000 0.00000  0.03370  0.25000  Biso   1.000  O
  O17      1.0000 0.55470  0.44720  0.62270  Biso   1.000  O
  O18      1.0000 0.05470  0.94720  0.62270  Biso   1.000  O
  O19      1.0000 0.44530  0.44720  0.87730  Biso   1.000  O
  O20      1.0000 0.94530  0.94720  0.87730  Biso   1.000  O
  O21      1.0000 0.44530  0.55280  0.37730  Biso   1.000  O
  O22      1.0000 0.94530  0.05280  0.37730  Biso   1.000  O
  O23      1.0000 0.55470  0.55280  0.12270  Biso   1.000  O
  O24      1.0000 0.05470  0.05280  0.12270  Biso   1.000  O
  N49      1.0000 0.50890  0.36670  0.61860  Biso   1.000  N
  N50      1.0000 0.00890  0.86670  0.61860  Biso   1.000  N
  N51      1.0000 0.49110  0.36670  0.88140  Biso   1.000  N
  N52      1.0000 0.99110  0.86670  0.88140  Biso   1.000  N
  N53      1.0000 0.49110  0.63330  0.38140  Biso   1.000  N
  N54      1.0000 0.99110  0.13330  0.38140  Biso   1.000  N
  N55      1.0000 0.50890  0.63330  0.11860  Biso   1.000  N
  N56      1.0000 0.00890  0.13330  0.11860  Biso   1.000  N
  O25      1.0000 0.49890  0.31520  0.57680  Biso   1.000  O
  O26      1.0000 0.99890  0.81520  0.57680  Biso   1.000  O
  O27      1.0000 0.50110  0.31520  0.92320  Biso   1.000  O
  O28      1.0000 0.00110  0.81520  0.92320  Biso   1.000  O
  O29      1.0000 0.50110  0.68480  0.42320  Biso   1.000  O
  O30      1.0000 0.00110  0.18480  0.42320  Biso   1.000  O
  O31      1.0000 0.49890  0.68480  0.07680  Biso   1.000  O
  O32      1.0000 0.99890  0.18480  0.07680  Biso   1.000  O
  O33      1.0000 0.47380  0.33780  0.65510  Biso   1.000  O
  O34      1.0000 0.97380  0.83780  0.65510  Biso   1.000  O
  O35      1.0000 0.52620  0.33780  0.84490  Biso   1.000  O
  O36      1.0000 0.02620  0.83780  0.84490  Biso   1.000  O
  O37      1.0000 0.52620  0.66220  0.34490  Biso   1.000  O
  O38      1.0000 0.02620  0.16220  0.34490  Biso   1.000  O
  O39      1.0000 0.47380  0.66220  0.15510  Biso   1.000  O
  O40      1.0000 0.97380  0.16220  0.15510  Biso   1.000  O
  O41      1.0000 0.54960  0.41110  0.65830  Biso   1.000  O
  O42      1.0000 0.04960  0.91110  0.65830  Biso   1.000  O
  O43      1.0000 0.45040  0.41110  0.84170  Biso   1.000  O
  O44      1.0000 0.95040  0.91110  0.84170  Biso   1.000  O
  O45      1.0000 0.45040  0.58890  0.34170  Biso   1.000  O
  O46      1.0000 0.95040  0.08890  0.34170  Biso   1.000  O
  O47      1.0000 0.54960  0.58890  0.15830  Biso   1.000  O
  O48      1.0000 0.04960  0.08890  0.15830  Biso   1.000  O
  N57      1.0000 0.50750  0.37440  0.61670  Biso   1.000  N
  N58      1.0000 0.00750  0.87440  0.61670  Biso   1.000  N
  N59      1.0000 0.49250  0.37440  0.88330  Biso   1.000  N
  N60      1.0000 0.99250  0.87440  0.88330  Biso   1.000  N
  N61      1.0000 0.49250  0.62560  0.38330  Biso   1.000  N
  N62      1.0000 0.99250  0.12560  0.38330  Biso   1.000  N
  N63      1.0000 0.50750  0.62560  0.11670  Biso   1.000  N
  N64      1.0000 0.00750  0.12560  0.11670  Biso   1.000  N
  O49      1.0000 0.51250  0.42220  0.57520  Biso   1.000  O
  O50      1.0000 0.01250  0.92220  0.57520  Biso   1.000  O
  O51      1.0000 0.48750  0.42220  0.92480  Biso   1.000  O
  O52      1.0000 0.98750  0.92220  0.92480  Biso   1.000  O
  O53      1.0000 0.48750  0.57780  0.42480  Biso   1.000  O
  O54      1.0000 0.98750  0.07780  0.42480  Biso   1.000  O
  O55      1.0000 0.51250  0.57780  0.07520  Biso   1.000  O
  O56      1.0000 0.01250  0.07780  0.07520  Biso   1.000  O
  O57      1.0000 0.46260  0.29400  0.61730  Biso   1.000  O
  O58      1.0000 0.96260  0.79400  0.61730  Biso   1.000  O
  O59      1.0000 0.53740  0.29400  0.88270  Biso   1.000  O
  O60      1.0000 0.03740  0.79400  0.88270  Biso   1.000  O
  O61      1.0000 0.53740  0.70600  0.38270  Biso   1.000  O
  O62      1.0000 0.03740  0.20600  0.38270  Biso   1.000  O
  O63      1.0000 0.46260  0.70600  0.11730  Biso   1.000  O
  O64      1.0000 0.96260  0.20600  0.11730  Biso   1.000  O
