data_image0
_cell_length_a       9.7515
_cell_length_b       16.203
_cell_length_c       17.36
_cell_angle_alpha    90
_cell_angle_beta     97.432
_cell_angle_gamma    90

_symmetry_space_group_name_H-M    "P 1"
_symmetry_int_tables_number       1

loop_
  _symmetry_equiv_pos_as_xyz
  'x, y, z'

loop_
  _atom_site_label
  _atom_site_occupancy
  _atom_site_fract_x
  _atom_site_fract_y
  _atom_site_fract_z
  _atom_site_thermal_displace_type
  _atom_site_B_iso_or_equiv
  _atom_site_type_symbol
  Cu1      1.0000 0.52738  0.78006  0.16126  Biso   1.000  Cu
  Cu2      1.0000 0.47262  0.28006  0.33874  Biso   1.000  Cu
  Cu3      1.0000 0.47262  0.21994  0.83874  Biso   1.000  Cu
  Cu4      1.0000 0.52738  0.71994  0.66126  Biso   1.000  Cu
  N1       1.0000 0.71310  0.78240  0.12520  Biso   1.000  N
  N2       1.0000 0.28690  0.28240  0.37480  Biso   1.000  N
  N3       1.0000 0.28690  0.21760  0.87480  Biso   1.000  N
  N4       1.0000 0.71310  0.71760  0.62520  Biso   1.000  N
  N5       1.0000 0.35050  0.73940  0.70320  Biso   1.000  N
  N6       1.0000 0.64950  0.23940  0.79680  Biso   1.000  N
  N7       1.0000 0.64950  0.26060  0.29680  Biso   1.000  N
  N8       1.0000 0.35050  0.76060  0.20320  Biso   1.000  N
  C1       1.0000 0.14820  0.72800  0.75530  Biso   1.000  C
  C2       1.0000 0.85180  0.22800  0.74470  Biso   1.000  C
  C3       1.0000 0.85180  0.27200  0.24470  Biso   1.000  C
  C4       1.0000 0.14820  0.77200  0.25530  Biso   1.000  C
  N9       1.0000 0.90800  0.83420  0.09330  Biso   1.000  N
  N10      1.0000 0.09200  0.33420  0.40670  Biso   1.000  N
  N11      1.0000 0.09200  0.16580  0.90670  Biso   1.000  N
  N12      1.0000 0.90800  0.66580  0.59330  Biso   1.000  N
  O1       1.0000 0.64600  0.70350  0.28150  Biso   1.000  O
  O2       1.0000 0.35400  0.20350  0.21850  Biso   1.000  O
  O3       1.0000 0.35400  0.29650  0.71850  Biso   1.000  O
  O4       1.0000 0.64600  0.79650  0.78150  Biso   1.000  O
  O5       1.0000 0.60620  0.83420  0.26040  Biso   1.000  O
  O6       1.0000 0.39380  0.33420  0.23960  Biso   1.000  O
  O7       1.0000 0.39380  0.16580  0.73960  Biso   1.000  O
  O8       1.0000 0.60620  0.66580  0.76040  Biso   1.000  O
  C5       1.0000 0.91660  0.75110  0.07960  Biso   1.000  C
  C6       1.0000 0.08340  0.25110  0.42040  Biso   1.000  C
  C7       1.0000 0.08340  0.24890  0.92040  Biso   1.000  C
  C8       1.0000 0.91660  0.74890  0.57960  Biso   1.000  C
  C9       1.0000 0.79300  0.71770  0.09950  Biso   1.000  C
  C10      1.0000 0.20700  0.21770  0.40050  Biso   1.000  C
  C11      1.0000 0.20700  0.28230  0.90050  Biso   1.000  C
  C12      1.0000 0.79300  0.78230  0.59950  Biso   1.000  C
  N13      1.0000 0.17140  0.80970  0.73730  Biso   1.000  N
  N14      1.0000 0.82860  0.30970  0.76270  Biso   1.000  N
  N15      1.0000 0.82860  0.19030  0.26270  Biso   1.000  N
  N16      1.0000 0.17140  0.69030  0.23730  Biso   1.000  N
  C13      1.0000 0.02620  0.89780  0.99080  Biso   1.000  C
  C14      1.0000 0.97380  0.39780  0.50920  Biso   1.000  C
  C15      1.0000 0.97380  0.10220  0.00920  Biso   1.000  C
  C16      1.0000 0.02620  0.60220  0.49080  Biso   1.000  C
  C17      1.0000 0.08160  0.87980  0.74910  Biso   1.000  C
  C18      1.0000 0.91840  0.37980  0.75090  Biso   1.000  C
  C19      1.0000 0.91840  0.12020  0.25090  Biso   1.000  C
  C20      1.0000 0.08160  0.62020  0.24910  Biso   1.000  C
  H1       1.0000 0.99030  0.87170  0.71780  Biso   1.000  H
  H2       1.0000 0.00970  0.37170  0.78220  Biso   1.000  H
  H3       1.0000 0.00970  0.12830  0.28220  Biso   1.000  H
  H4       1.0000 0.99030  0.62830  0.21780  Biso   1.000  H
  H5       1.0000 0.12270  0.93100  0.73080  Biso   1.000  H
  H6       1.0000 0.87730  0.43100  0.76920  Biso   1.000  H
  H7       1.0000 0.87730  0.06900  0.26920  Biso   1.000  H
  H8       1.0000 0.12270  0.56900  0.23080  Biso   1.000  H
  C21      1.0000 0.93090  0.88850  0.85590  Biso   1.000  C
  C22      1.0000 0.06910  0.38850  0.64410  Biso   1.000  C
  C23      1.0000 0.06910  0.11150  0.14410  Biso   1.000  C
  C24      1.0000 0.93090  0.61150  0.35590  Biso   1.000  C
  H9       1.0000 0.85290  0.88450  0.81720  Biso   1.000  H
  H10      1.0000 0.14710  0.38450  0.68280  Biso   1.000  H
  H11      1.0000 0.14710  0.11550  0.18280  Biso   1.000  H
  H12      1.0000 0.85290  0.61550  0.31720  Biso   1.000  H
  C25      1.0000 0.65120  0.77700  0.30520  Biso   1.000  C
  C26      1.0000 0.34880  0.27700  0.19480  Biso   1.000  C
  C27      1.0000 0.34880  0.22300  0.69480  Biso   1.000  C
  C28      1.0000 0.65120  0.72300  0.80520  Biso   1.000  C
  C29      1.0000 0.91120  0.89310  0.93410  Biso   1.000  C
  C30      1.0000 0.08880  0.39310  0.56590  Biso   1.000  C
  C31      1.0000 0.08880  0.10690  0.06590  Biso   1.000  C
  C32      1.0000 0.91120  0.60690  0.43410  Biso   1.000  C
  H13      1.0000 0.82050  0.89300  0.94850  Biso   1.000  H
  H14      1.0000 0.17950  0.39300  0.55150  Biso   1.000  H
  H15      1.0000 0.17950  0.10700  0.05150  Biso   1.000  H
  H16      1.0000 0.82050  0.60700  0.44850  Biso   1.000  H
  C33      1.0000 0.06200  0.88980  0.83420  Biso   1.000  C
  C34      1.0000 0.93800  0.38980  0.66580  Biso   1.000  C
  C35      1.0000 0.93800  0.11020  0.16580  Biso   1.000  C
  C36      1.0000 0.06200  0.61020  0.33420  Biso   1.000  C
  C37      1.0000 0.78590  0.84940  0.12010  Biso   1.000  C
  C38      1.0000 0.21410  0.34940  0.37990  Biso   1.000  C
  C39      1.0000 0.21410  0.15060  0.87990  Biso   1.000  C
  C40      1.0000 0.78590  0.65060  0.62010  Biso   1.000  C
  H17      1.0000 0.75660  0.90280  0.13360  Biso   1.000  H
  H18      1.0000 0.24340  0.40280  0.36640  Biso   1.000  H
  H19      1.0000 0.24340  0.09720  0.86640  Biso   1.000  H
  H20      1.0000 0.75660  0.59720  0.63360  Biso   1.000  H
  C41      1.0000 0.00790  0.89820  0.07640  Biso   1.000  C
  C42      1.0000 0.99210  0.39820  0.42360  Biso   1.000  C
  C43      1.0000 0.99210  0.10180  0.92360  Biso   1.000  C
  C44      1.0000 0.00790  0.60180  0.57640  Biso   1.000  C
  H21      1.0000 0.09820  0.88790  0.10810  Biso   1.000  H
  H22      1.0000 0.90180  0.38790  0.39190  Biso   1.000  H
  H23      1.0000 0.90180  0.11210  0.89190  Biso   1.000  H
  H24      1.0000 0.09820  0.61210  0.60810  Biso   1.000  H
  H25      1.0000 0.97450  0.95310  0.09070  Biso   1.000  H
  H26      1.0000 0.02550  0.45310  0.40930  Biso   1.000  H
  H27      1.0000 0.02550  0.04690  0.90930  Biso   1.000  H
  H28      1.0000 0.97450  0.54690  0.59070  Biso   1.000  H
  C45      1.0000 0.26370  0.68410  0.73500  Biso   1.000  C
  C46      1.0000 0.73630  0.18410  0.76500  Biso   1.000  C
  C47      1.0000 0.73630  0.31590  0.26500  Biso   1.000  C
  C48      1.0000 0.26370  0.81590  0.23500  Biso   1.000  C
  C49      1.0000 0.15730  0.90070  0.96900  Biso   1.000  C
  C50      1.0000 0.84270  0.40070  0.53100  Biso   1.000  C
  C51      1.0000 0.84270  0.09930  0.03100  Biso   1.000  C
  C52      1.0000 0.15730  0.59930  0.46900  Biso   1.000  C
  H29      1.0000 0.23540  0.90530  0.00760  Biso   1.000  H
  H30      1.0000 0.76460  0.40530  0.49240  Biso   1.000  H
  H31      1.0000 0.76460  0.09470  0.99240  Biso   1.000  H
  H32      1.0000 0.23540  0.59470  0.50760  Biso   1.000  H
  C53      1.0000 0.29100  0.81390  0.70660  Biso   1.000  C
  C54      1.0000 0.70900  0.31390  0.79340  Biso   1.000  C
  C55      1.0000 0.70900  0.18610  0.29340  Biso   1.000  C
  C56      1.0000 0.29100  0.68610  0.20660  Biso   1.000  C
  H33      1.0000 0.32880  0.86360  0.68930  Biso   1.000  H
  H34      1.0000 0.67120  0.36360  0.81070  Biso   1.000  H
  H35      1.0000 0.67120  0.13640  0.31070  Biso   1.000  H
  H36      1.0000 0.32880  0.63640  0.18930  Biso   1.000  H
  C57      1.0000 0.01850  0.70280  0.05290  Biso   1.000  C
  C58      1.0000 0.98150  0.20280  0.44710  Biso   1.000  C
  C59      1.0000 0.98150  0.29720  0.94710  Biso   1.000  C
  C60      1.0000 0.01850  0.79720  0.55290  Biso   1.000  C
  H37      1.0000 0.10350  0.72540  0.04150  Biso   1.000  H
  H38      1.0000 0.89650  0.22540  0.45850  Biso   1.000  H
  H39      1.0000 0.89650  0.27460  0.95850  Biso   1.000  H
  H40      1.0000 0.10350  0.77460  0.54150  Biso   1.000  H
  C61      1.0000 0.17560  0.89700  0.89110  Biso   1.000  C
  C62      1.0000 0.82440  0.39700  0.60890  Biso   1.000  C
  C63      1.0000 0.82440  0.10300  0.10890  Biso   1.000  C
  C64      1.0000 0.17560  0.60300  0.39110  Biso   1.000  C
  H41      1.0000 0.26620  0.89940  0.87660  Biso   1.000  H
  H42      1.0000 0.73380  0.39940  0.62340  Biso   1.000  H
  H43      1.0000 0.73380  0.10060  0.12340  Biso   1.000  H
  H44      1.0000 0.26620  0.60060  0.37660  Biso   1.000  H
  C65      1.0000 0.76530  0.63470  0.09100  Biso   1.000  C
  C66      1.0000 0.23470  0.13470  0.40900  Biso   1.000  C
  C67      1.0000 0.23470  0.36530  0.90900  Biso   1.000  C
  C68      1.0000 0.76530  0.86530  0.59100  Biso   1.000  C
  H45      1.0000 0.68170  0.61130  0.10370  Biso   1.000  H
  H46      1.0000 0.31830  0.11130  0.39630  Biso   1.000  H
  H47      1.0000 0.31830  0.38870  0.89630  Biso   1.000  H
  H48      1.0000 0.68170  0.88870  0.60370  Biso   1.000  H
  C69      1.0000 0.71320  0.79750  0.38630  Biso   1.000  C
  C70      1.0000 0.28680  0.29750  0.11370  Biso   1.000  C
  C71      1.0000 0.28680  0.20250  0.61370  Biso   1.000  C
  C72      1.0000 0.71320  0.70250  0.88630  Biso   1.000  C
  H49      1.0000 0.81430  0.79770  0.38940  Biso   1.000  H
  H50      1.0000 0.18570  0.29770  0.11060  Biso   1.000  H
  H51      1.0000 0.18570  0.20230  0.61060  Biso   1.000  H
  H52      1.0000 0.81430  0.70230  0.88940  Biso   1.000  H
  H53      1.0000 0.68470  0.75610  0.42220  Biso   1.000  H
  H54      1.0000 0.31530  0.25610  0.07780  Biso   1.000  H
  H55      1.0000 0.31530  0.24390  0.57780  Biso   1.000  H
  H56      1.0000 0.68470  0.74390  0.92220  Biso   1.000  H
  H57      1.0000 0.68130  0.85210  0.40040  Biso   1.000  H
  H58      1.0000 0.31870  0.35210  0.09960  Biso   1.000  H
  H59      1.0000 0.31870  0.14790  0.59960  Biso   1.000  H
  H60      1.0000 0.68130  0.64790  0.90040  Biso   1.000  H
  C73      1.0000 0.04120  0.68910  0.78630  Biso   1.000  C
  C74      1.0000 0.95880  0.18910  0.71370  Biso   1.000  C
  C75      1.0000 0.95880  0.31090  0.21370  Biso   1.000  C
  C76      1.0000 0.04120  0.81090  0.28630  Biso   1.000  C
  H61      1.0000 0.96290  0.71880  0.79860  Biso   1.000  H
  H62      1.0000 0.03710  0.21880  0.70140  Biso   1.000  H
  H63      1.0000 0.03710  0.28120  0.20140  Biso   1.000  H
  H64      1.0000 0.96290  0.78120  0.29860  Biso   1.000  H
  C77      1.0000 0.16810  0.56170  0.77980  Biso   1.000  C
  C78      1.0000 0.83190  0.06170  0.72020  Biso   1.000  C
  C79      1.0000 0.83190  0.43830  0.22020  Biso   1.000  C
  C80      1.0000 0.16810  0.93830  0.27980  Biso   1.000  C
  H65      1.0000 0.17300  0.50400  0.78940  Biso   1.000  H
  H66      1.0000 0.82700  0.00400  0.71060  Biso   1.000  H
  H67      1.0000 0.82700  0.49600  0.21060  Biso   1.000  H
  H68      1.0000 0.17300  0.99600  0.28940  Biso   1.000  H
  C81      1.0000 0.98870  0.62070  0.04430  Biso   1.000  C
  C82      1.0000 0.01130  0.12070  0.45570  Biso   1.000  C
  C83      1.0000 0.01130  0.37930  0.95570  Biso   1.000  C
  C84      1.0000 0.98870  0.87930  0.54430  Biso   1.000  C
  H69      1.0000 0.05400  0.58530  0.02490  Biso   1.000  H
  H70      1.0000 0.94600  0.08530  0.47510  Biso   1.000  H
  H71      1.0000 0.94600  0.41470  0.97510  Biso   1.000  H
  H72      1.0000 0.05400  0.91470  0.52490  Biso   1.000  H
  C85      1.0000 0.05420  0.60540  0.79840  Biso   1.000  C
  C86      1.0000 0.94580  0.10540  0.70160  Biso   1.000  C
  C87      1.0000 0.94580  0.39460  0.20160  Biso   1.000  C
  C88      1.0000 0.05420  0.89460  0.29840  Biso   1.000  C
  H73      1.0000 0.98330  0.57660  0.82000  Biso   1.000  H
  H74      1.0000 0.01670  0.07660  0.68000  Biso   1.000  H
  H75      1.0000 0.01670  0.42340  0.18000  Biso   1.000  H
  H76      1.0000 0.98330  0.92340  0.32000  Biso   1.000  H
  C89      1.0000 0.86550  0.58710  0.06290  Biso   1.000  C
  C90      1.0000 0.13450  0.08710  0.43710  Biso   1.000  C
  C91      1.0000 0.13450  0.41290  0.93710  Biso   1.000  C
  C92      1.0000 0.86550  0.91290  0.56290  Biso   1.000  C
  H77      1.0000 0.84990  0.52960  0.05610  Biso   1.000  H
  H78      1.0000 0.15010  0.02960  0.44390  Biso   1.000  H
  H79      1.0000 0.15010  0.47040  0.94390  Biso   1.000  H
  H80      1.0000 0.84990  0.97040  0.55610  Biso   1.000  H
  C93      1.0000 0.27400  0.59950  0.74780  Biso   1.000  C
  C94      1.0000 0.72600  0.09950  0.75220  Biso   1.000  C
  C95      1.0000 0.72600  0.40050  0.25220  Biso   1.000  C
  C96      1.0000 0.27400  0.90050  0.24780  Biso   1.000  C
  H81      1.0000 0.35110  0.56890  0.73510  Biso   1.000  H
  H82      1.0000 0.64890  0.06890  0.76490  Biso   1.000  H
  H83      1.0000 0.64890  0.43110  0.26490  Biso   1.000  H
  H84      1.0000 0.35110  0.93110  0.23510  Biso   1.000  H
  O9       1.0000 0.44880  0.71870  0.06600  Biso   1.000  O
  O10      1.0000 0.55120  0.21870  0.43400  Biso   1.000  O
  O11      1.0000 0.55120  0.28130  0.93400  Biso   1.000  O
  O12      1.0000 0.44880  0.78130  0.56600  Biso   1.000  O
  O13      1.0000 0.47450  0.91790  0.11130  Biso   1.000  O
  O14      1.0000 0.52550  0.41790  0.38870  Biso   1.000  O
  O15      1.0000 0.52550  0.08210  0.88870  Biso   1.000  O
  O16      1.0000 0.47450  0.58210  0.61130  Biso   1.000  O
  O17      1.0000 0.47960  0.82730  0.98670  Biso   1.000  O
  O18      1.0000 0.52040  0.32730  0.51330  Biso   1.000  O
  O19      1.0000 0.52040  0.17270  0.01330  Biso   1.000  O
  O20      1.0000 0.47960  0.67270  0.48670  Biso   1.000  O
  C97      1.0000 0.37400  0.70410  0.93340  Biso   1.000  C
  C98      1.0000 0.62600  0.20410  0.56660  Biso   1.000  C
  C99      1.0000 0.62600  0.29590  0.06660  Biso   1.000  C
  C100     1.0000 0.37400  0.79590  0.43340  Biso   1.000  C
  H85      1.0000 0.40880  0.64730  0.93470  Biso   1.000  H
  H86      1.0000 0.59120  0.14730  0.56530  Biso   1.000  H
  H87      1.0000 0.59120  0.35270  0.06530  Biso   1.000  H
  H88      1.0000 0.40880  0.85270  0.43470  Biso   1.000  H
  H89      1.0000 0.39760  0.73190  0.88680  Biso   1.000  H
  H90      1.0000 0.60240  0.23190  0.61320  Biso   1.000  H
  H91      1.0000 0.60240  0.26810  0.11320  Biso   1.000  H
  H92      1.0000 0.39760  0.76810  0.38680  Biso   1.000  H
  H93      1.0000 0.27330  0.70340  0.93240  Biso   1.000  H
  H94      1.0000 0.72670  0.20340  0.56760  Biso   1.000  H
  H95      1.0000 0.72670  0.29660  0.06760  Biso   1.000  H
  H96      1.0000 0.27330  0.79660  0.43240  Biso   1.000  H
  C101     1.0000 0.43810  0.74910  0.00370  Biso   1.000  C
  C102     1.0000 0.56190  0.24910  0.49630  Biso   1.000  C
  C103     1.0000 0.56190  0.25090  0.99630  Biso   1.000  C
  C104     1.0000 0.43810  0.75090  0.50370  Biso   1.000  C
  O21      1.0000 0.46570  0.08080  0.14340  Biso   1.000  O
  O22      1.0000 0.53430  0.58080  0.35660  Biso   1.000  O
  O23      1.0000 0.53430  0.91920  0.85660  Biso   1.000  O
  O24      1.0000 0.46570  0.41920  0.64340  Biso   1.000  O
  O25      1.0000 0.65210  0.99750  0.28900  Biso   1.000  O
  O26      1.0000 0.34790  0.49750  0.21100  Biso   1.000  O
  O27      1.0000 0.34790  0.00250  0.71100  Biso   1.000  O
  O28      1.0000 0.65210  0.50250  0.78900  Biso   1.000  O
  O29      1.0000 0.58190  0.03850  0.44490  Biso   1.000  O
  O30      1.0000 0.41810  0.53850  0.05510  Biso   1.000  O
  O31      1.0000 0.41810  0.96150  0.55510  Biso   1.000  O
  O32      1.0000 0.58190  0.46150  0.94490  Biso   1.000  O
