data_image0
_cell_length_a       9.373
_cell_length_b       9.7008
_cell_length_c       13.3403
_cell_angle_alpha    90
_cell_angle_beta     107.908
_cell_angle_gamma    90

_symmetry_space_group_name_H-M    "P 1"
_symmetry_int_tables_number       1

loop_
  _symmetry_equiv_pos_as_xyz
  'x, y, z'

loop_
  _atom_site_label
  _atom_site_occupancy
  _atom_site_fract_x
  _atom_site_fract_y
  _atom_site_fract_z
  _atom_site_thermal_displace_type
  _atom_site_B_iso_or_equiv
  _atom_site_type_symbol
  Cu1      1.0000 0.50000  0.50000  0.00000  Biso   1.000  Cu
  Cu2      1.0000 0.50000  0.00000  0.50000  Biso   1.000  Cu
  O1       1.0000 0.45496  0.29880  0.99175  Biso   1.000  O
  O2       1.0000 0.54504  0.79880  0.50825  Biso   1.000  O
  O3       1.0000 0.54504  0.70120  0.00825  Biso   1.000  O
  O4       1.0000 0.45496  0.20120  0.49175  Biso   1.000  O
  N1       1.0000 0.93445  0.36781  0.05831  Biso   1.000  N
  N2       1.0000 0.06555  0.86781  0.44169  Biso   1.000  N
  N3       1.0000 0.06555  0.63219  0.94169  Biso   1.000  N
  N4       1.0000 0.93445  0.13219  0.55831  Biso   1.000  N
  N5       1.0000 0.71590  0.45450  0.04973  Biso   1.000  N
  N6       1.0000 0.28410  0.95450  0.45027  Biso   1.000  N
  N7       1.0000 0.28410  0.54550  0.95027  Biso   1.000  N
  N8       1.0000 0.71590  0.04550  0.54973  Biso   1.000  N
  O5       1.0000 0.47160  0.35535  0.15440  Biso   1.000  O
  O6       1.0000 0.52840  0.85535  0.34560  Biso   1.000  O
  O7       1.0000 0.52840  0.64465  0.84560  Biso   1.000  O
  O8       1.0000 0.47160  0.14465  0.65440  Biso   1.000  O
  C1       1.0000 0.45730  0.26720  0.08514  Biso   1.000  C
  C2       1.0000 0.54270  0.76720  0.41486  Biso   1.000  C
  C3       1.0000 0.54270  0.73280  0.91486  Biso   1.000  C
  C4       1.0000 0.45730  0.23280  0.58514  Biso   1.000  C
  C5       1.0000 0.79300  0.38800  0.99625  Biso   1.000  C
  C6       1.0000 0.20700  0.88800  0.50375  Biso   1.000  C
  C7       1.0000 0.20700  0.61200  0.00375  Biso   1.000  C
  C8       1.0000 0.79300  0.11200  0.49625  Biso   1.000  C
  C9       1.0000 0.05400  0.29440  0.03020  Biso   1.000  C
  C10      1.0000 0.94600  0.79440  0.46980  Biso   1.000  C
  C11      1.0000 0.94600  0.70560  0.96980  Biso   1.000  C
  C12      1.0000 0.05400  0.20560  0.53020  Biso   1.000  C
  H1       1.0000 0.15010  0.30790  0.08680  Biso   1.000  H
  H2       1.0000 0.84990  0.80790  0.41320  Biso   1.000  H
  H3       1.0000 0.84990  0.69210  0.91320  Biso   1.000  H
  H4       1.0000 0.15010  0.19210  0.58680  Biso   1.000  H
  H5       1.0000 0.06460  0.33420  0.96460  Biso   1.000  H
  H6       1.0000 0.93540  0.83420  0.53540  Biso   1.000  H
  H7       1.0000 0.93540  0.66580  0.03540  Biso   1.000  H
  H8       1.0000 0.06460  0.16580  0.46460  Biso   1.000  H
  C13      1.0000 0.73370  0.34150  0.88540  Biso   1.000  C
  C14      1.0000 0.26630  0.84150  0.61460  Biso   1.000  C
  C15      1.0000 0.26630  0.65850  0.11460  Biso   1.000  C
  C16      1.0000 0.73370  0.15850  0.38540  Biso   1.000  C
  H9       1.0000 0.68570  0.25130  0.88290  Biso   1.000  H
  H10      1.0000 0.31430  0.75130  0.61710  Biso   1.000  H
  H11      1.0000 0.31430  0.74870  0.11710  Biso   1.000  H
  H12      1.0000 0.68570  0.24870  0.38290  Biso   1.000  H
  H13      1.0000 0.81620  0.33420  0.85500  Biso   1.000  H
  H14      1.0000 0.18380  0.83420  0.64500  Biso   1.000  H
  H15      1.0000 0.18380  0.66580  0.14500  Biso   1.000  H
  H16      1.0000 0.81620  0.16580  0.35500  Biso   1.000  H
  H17      1.0000 0.65980  0.40830  0.84490  Biso   1.000  H
  H18      1.0000 0.34020  0.90830  0.65510  Biso   1.000  H
  H19      1.0000 0.34020  0.59170  0.15510  Biso   1.000  H
  H20      1.0000 0.65980  0.09170  0.34490  Biso   1.000  H
  C17      1.0000 0.81250  0.47650  0.14950  Biso   1.000  C
  C18      1.0000 0.18750  0.97650  0.35050  Biso   1.000  C
  C19      1.0000 0.18750  0.52350  0.85050  Biso   1.000  C
  C20      1.0000 0.81250  0.02350  0.64950  Biso   1.000  C
  H21      1.0000 0.78790  0.52230  0.20500  Biso   1.000  H
  H22      1.0000 0.21210  0.02230  0.29500  Biso   1.000  H
  H23      1.0000 0.21210  0.47770  0.79500  Biso   1.000  H
  H24      1.0000 0.78790  0.97770  0.70500  Biso   1.000  H
  C21      1.0000 0.94810  0.42220  0.15578  Biso   1.000  C
  C22      1.0000 0.05190  0.92220  0.34422  Biso   1.000  C
  C23      1.0000 0.05190  0.57780  0.84422  Biso   1.000  C
  C24      1.0000 0.94810  0.07780  0.65578  Biso   1.000  C
  H25      1.0000 0.03510  0.42180  0.21560  Biso   1.000  H
  H26      1.0000 0.96490  0.92180  0.28440  Biso   1.000  H
  H27      1.0000 0.96490  0.57820  0.78440  Biso   1.000  H
  H28      1.0000 0.03510  0.07820  0.71560  Biso   1.000  H
  C25      1.0000 0.44740  0.11640  0.10920  Biso   1.000  C
  C26      1.0000 0.55260  0.61640  0.39080  Biso   1.000  C
  C27      1.0000 0.55260  0.88360  0.89080  Biso   1.000  C
  C28      1.0000 0.44740  0.38360  0.60920  Biso   1.000  C
  H29      1.0000 0.54850  0.07710  0.13400  Biso   1.000  H
  H30      1.0000 0.45150  0.57710  0.36600  Biso   1.000  H
  H31      1.0000 0.45150  0.92290  0.86600  Biso   1.000  H
  H32      1.0000 0.54850  0.42290  0.63400  Biso   1.000  H
  H33      1.0000 0.38880  0.06820  0.04520  Biso   1.000  H
  H34      1.0000 0.61120  0.56820  0.45480  Biso   1.000  H
  H35      1.0000 0.61120  0.93180  0.95480  Biso   1.000  H
  H36      1.0000 0.38880  0.43180  0.54520  Biso   1.000  H
  H37      1.0000 0.39850  0.10590  0.16390  Biso   1.000  H
  H38      1.0000 0.60150  0.60590  0.33610  Biso   1.000  H
  H39      1.0000 0.60150  0.89410  0.83610  Biso   1.000  H
  H40      1.0000 0.39850  0.39410  0.66390  Biso   1.000  H
  C29      1.0000 0.02270  0.14200  0.01457  Biso   1.000  C
  C30      1.0000 0.97730  0.64200  0.48543  Biso   1.000  C
  C31      1.0000 0.97730  0.85800  0.98543  Biso   1.000  C
  C32      1.0000 0.02270  0.35800  0.51457  Biso   1.000  C
  C33      1.0000 0.07110  0.07180  0.94015  Biso   1.000  C
  C34      1.0000 0.92890  0.57180  0.55985  Biso   1.000  C
  C35      1.0000 0.92890  0.92820  0.05985  Biso   1.000  C
  C36      1.0000 0.07110  0.42820  0.44015  Biso   1.000  C
  H41      1.0000 0.12020  0.12100  0.89860  Biso   1.000  H
  H42      1.0000 0.87980  0.62100  0.60140  Biso   1.000  H
  H43      1.0000 0.87980  0.87900  0.10140  Biso   1.000  H
  H44      1.0000 0.12020  0.37900  0.39860  Biso   1.000  H
  C37      1.0000 0.95110  0.06730  0.07412  Biso   1.000  C
  C38      1.0000 0.04890  0.56730  0.42588  Biso   1.000  C
  C39      1.0000 0.04890  0.93270  0.92588  Biso   1.000  C
  C40      1.0000 0.95110  0.43270  0.57412  Biso   1.000  C
  H45      1.0000 0.91720  0.11330  0.12540  Biso   1.000  H
  H46      1.0000 0.08280  0.61330  0.37460  Biso   1.000  H
  H47      1.0000 0.08280  0.88670  0.87460  Biso   1.000  H
  H48      1.0000 0.91720  0.38670  0.62540  Biso   1.000  H
  O9       1.0000 0.69810  0.82560  0.20642  Biso   1.000  O
  O10      1.0000 0.30190  0.32560  0.29358  Biso   1.000  O
  O11      1.0000 0.30190  0.17440  0.79358  Biso   1.000  O
  O12      1.0000 0.69810  0.67440  0.70642  Biso   1.000  O
  H49      1.0000 0.64060  0.79750  0.14590  Biso   1.000  H
  H50      1.0000 0.35940  0.29750  0.35410  Biso   1.000  H
  H51      1.0000 0.35940  0.20250  0.85410  Biso   1.000  H
  H52      1.0000 0.64060  0.70250  0.64590  Biso   1.000  H
  H53      1.0000 0.63920  0.83170  0.24290  Biso   1.000  H
  H54      1.0000 0.36080  0.33170  0.25710  Biso   1.000  H
  H55      1.0000 0.36080  0.16830  0.75710  Biso   1.000  H
  H56      1.0000 0.63920  0.66830  0.74290  Biso   1.000  H
