data_image0
_cell_length_a       8.6476
_cell_length_b       18.2227
_cell_length_c       12.5373
_cell_angle_alpha    90
_cell_angle_beta     98.4128
_cell_angle_gamma    90

_symmetry_space_group_name_H-M    "P 1"
_symmetry_int_tables_number       1

loop_
  _symmetry_equiv_pos_as_xyz
  'x, y, z'

loop_
  _atom_site_label
  _atom_site_occupancy
  _atom_site_fract_x
  _atom_site_fract_y
  _atom_site_fract_z
  _atom_site_thermal_displace_type
  _atom_site_B_iso_or_equiv
  _atom_site_type_symbol
  Cu1      1.0000 0.40986  0.05354  0.45852  Biso   1.000  Cu
  Cu2      1.0000 0.09014  0.55354  0.04148  Biso   1.000  Cu
  Cu3      1.0000 0.59014  0.94646  0.54148  Biso   1.000  Cu
  Cu4      1.0000 0.90986  0.44646  0.95852  Biso   1.000  Cu
  O1       1.0000 0.20130  0.52927  0.92160  Biso   1.000  O
  O2       1.0000 0.29870  0.02927  0.57840  Biso   1.000  O
  O3       1.0000 0.79870  0.47073  0.07840  Biso   1.000  O
  O4       1.0000 0.70130  0.97073  0.42160  Biso   1.000  O
  O5       1.0000 0.61370  0.55405  0.67880  Biso   1.000  O
  O6       1.0000 0.88630  0.05405  0.82120  Biso   1.000  O
  O7       1.0000 0.38630  0.44595  0.32120  Biso   1.000  O
  O8       1.0000 0.11370  0.94595  0.17880  Biso   1.000  O
  O9       1.0000 0.32430  0.34904  0.54430  Biso   1.000  O
  O10      1.0000 0.17570  0.84904  0.95570  Biso   1.000  O
  O11      1.0000 0.67570  0.65096  0.45570  Biso   1.000  O
  O12      1.0000 0.82430  0.15096  0.04430  Biso   1.000  O
  O13      1.0000 0.26480  0.15012  0.42260  Biso   1.000  O
  O14      1.0000 0.23520  0.65012  0.07740  Biso   1.000  O
  O15      1.0000 0.73520  0.84988  0.57740  Biso   1.000  O
  O16      1.0000 0.76480  0.34988  0.92260  Biso   1.000  O
  O17      1.0000 0.94040  0.61063  0.93820  Biso   1.000  O
  O18      1.0000 0.55960  0.11063  0.56180  Biso   1.000  O
  O19      1.0000 0.05960  0.38937  0.06180  Biso   1.000  O
  O20      1.0000 0.44040  0.88937  0.43820  Biso   1.000  O
  O21      1.0000 0.78590  0.51986  0.87080  Biso   1.000  O
  O22      1.0000 0.71410  0.01986  0.62920  Biso   1.000  O
  O23      1.0000 0.21410  0.48014  0.12920  Biso   1.000  O
  O24      1.0000 0.28590  0.98014  0.37080  Biso   1.000  O
  O25      1.0000 0.33600  0.20930  0.57610  Biso   1.000  O
  O26      1.0000 0.16400  0.70930  0.92390  Biso   1.000  O
  O27      1.0000 0.66400  0.79070  0.42390  Biso   1.000  O
  O28      1.0000 0.83600  0.29070  0.07610  Biso   1.000  O
  H1       1.0000 0.40630  0.17870  0.58360  Biso   1.000  H
  H2       1.0000 0.09370  0.67870  0.91640  Biso   1.000  H
  H3       1.0000 0.59370  0.82130  0.41640  Biso   1.000  H
  H4       1.0000 0.90630  0.32130  0.08360  Biso   1.000  H
  C1       1.0000 0.39570  0.51680  0.76860  Biso   1.000  C
  C2       1.0000 0.10430  0.01680  0.73140  Biso   1.000  C
  C3       1.0000 0.60430  0.48320  0.23140  Biso   1.000  C
  C4       1.0000 0.89570  0.98320  0.26860  Biso   1.000  C
  H5       1.0000 0.41470  0.55410  0.81930  Biso   1.000  H
  H6       1.0000 0.08530  0.05410  0.68070  Biso   1.000  H
  H7       1.0000 0.58530  0.44590  0.18070  Biso   1.000  H
  H8       1.0000 0.91470  0.94590  0.31930  Biso   1.000  H
  C5       1.0000 0.49100  0.50840  0.68990  Biso   1.000  C
  C6       1.0000 0.00900  0.00840  0.81010  Biso   1.000  C
  C7       1.0000 0.50900  0.49160  0.31010  Biso   1.000  C
  C8       1.0000 0.99100  0.99160  0.18990  Biso   1.000  C
  C9       1.0000 0.18170  0.33570  0.48460  Biso   1.000  C
  C10      1.0000 0.31830  0.83570  0.01540  Biso   1.000  C
  C11      1.0000 0.81830  0.66430  0.51540  Biso   1.000  C
  C12      1.0000 0.68170  0.16430  0.98460  Biso   1.000  C
  C13      1.0000 0.61290  0.62370  0.72530  Biso   1.000  C
  C14      1.0000 0.88710  0.12370  0.77470  Biso   1.000  C
  C15      1.0000 0.38710  0.37630  0.27470  Biso   1.000  C
  C16      1.0000 0.11290  0.87630  0.22530  Biso   1.000  C
  C17      1.0000 0.14930  0.26480  0.44770  Biso   1.000  C
  C18      1.0000 0.35070  0.76480  0.05230  Biso   1.000  C
  C19      1.0000 0.85070  0.73520  0.55230  Biso   1.000  C
  C20      1.0000 0.64930  0.23520  0.94770  Biso   1.000  C
  C21      1.0000 0.27190  0.46890  0.77110  Biso   1.000  C
  C22      1.0000 0.22810  0.96890  0.72890  Biso   1.000  C
  C23      1.0000 0.72810  0.53110  0.22890  Biso   1.000  C
  C24      1.0000 0.77190  0.03110  0.27110  Biso   1.000  C
  C25      1.0000 0.46570  0.45170  0.61570  Biso   1.000  C
  C26      1.0000 0.03430  0.95170  0.88430  Biso   1.000  C
  C27      1.0000 0.53430  0.54830  0.38430  Biso   1.000  C
  C28      1.0000 0.96570  0.04830  0.11570  Biso   1.000  C
  H9       1.0000 0.53220  0.44510  0.56450  Biso   1.000  H
  H10      1.0000 0.96780  0.94510  0.93550  Biso   1.000  H
  H11      1.0000 0.46780  0.55490  0.43550  Biso   1.000  H
  H12      1.0000 0.03220  0.05490  0.06450  Biso   1.000  H
  C29      1.0000 0.24280  0.41250  0.69590  Biso   1.000  C
  C30      1.0000 0.25720  0.91250  0.80410  Biso   1.000  C
  C31      1.0000 0.75720  0.58750  0.30410  Biso   1.000  C
  C32      1.0000 0.74280  0.08750  0.19590  Biso   1.000  C
  H13      1.0000 0.15960  0.38040  0.69730  Biso   1.000  H
  H14      1.0000 0.34040  0.88040  0.80270  Biso   1.000  H
  H15      1.0000 0.84040  0.61960  0.30270  Biso   1.000  H
  H16      1.0000 0.65960  0.11960  0.19730  Biso   1.000  H
  C33      1.0000 0.34150  0.40550  0.61890  Biso   1.000  C
  C34      1.0000 0.15850  0.90550  0.88110  Biso   1.000  C
  C35      1.0000 0.65850  0.59450  0.38110  Biso   1.000  C
  C36      1.0000 0.84150  0.09450  0.11890  Biso   1.000  C
  C37      1.0000 0.71700  0.64090  0.81630  Biso   1.000  C
  C38      1.0000 0.78300  0.14090  0.68370  Biso   1.000  C
  C39      1.0000 0.28300  0.35910  0.18370  Biso   1.000  C
  C40      1.0000 0.21700  0.85910  0.31630  Biso   1.000  C
  C41      1.0000 0.07850  0.39220  0.45110  Biso   1.000  C
  C42      1.0000 0.42150  0.89220  0.04890  Biso   1.000  C
  C43      1.0000 0.92150  0.60780  0.54890  Biso   1.000  C
  C44      1.0000 0.57850  0.10780  0.95110  Biso   1.000  C
  H17      1.0000 0.10040  0.43980  0.47550  Biso   1.000  H
  H18      1.0000 0.39960  0.93980  0.02450  Biso   1.000  H
  H19      1.0000 0.89960  0.56020  0.52450  Biso   1.000  H
  H20      1.0000 0.60040  0.06020  0.97550  Biso   1.000  H
  C45      1.0000 0.62310  0.76580  0.79950  Biso   1.000  C
  C46      1.0000 0.87690  0.26580  0.70050  Biso   1.000  C
  C47      1.0000 0.37690  0.23420  0.20050  Biso   1.000  C
  C48      1.0000 0.12310  0.73420  0.29950  Biso   1.000  C
  H21      1.0000 0.62720  0.81390  0.82460  Biso   1.000  H
  H22      1.0000 0.87280  0.31390  0.67540  Biso   1.000  H
  H23      1.0000 0.37280  0.18610  0.17540  Biso   1.000  H
  H24      1.0000 0.12720  0.68610  0.32460  Biso   1.000  H
  C49      1.0000 0.25460  0.20260  0.48020  Biso   1.000  C
  C50      1.0000 0.24540  0.70260  0.01980  Biso   1.000  C
  C51      1.0000 0.74540  0.79740  0.51980  Biso   1.000  C
  C52      1.0000 0.75460  0.29740  0.98020  Biso   1.000  C
  C53      1.0000 0.52010  0.74720  0.71060  Biso   1.000  C
  C54      1.0000 0.97990  0.24720  0.78940  Biso   1.000  C
  C55      1.0000 0.47990  0.25280  0.28940  Biso   1.000  C
  C56      1.0000 0.02010  0.75280  0.21060  Biso   1.000  C
  H25      1.0000 0.45360  0.78260  0.67560  Biso   1.000  H
  H26      1.0000 0.04640  0.28260  0.82440  Biso   1.000  H
  H27      1.0000 0.54640  0.21740  0.32440  Biso   1.000  H
  H28      1.0000 0.95360  0.71740  0.17560  Biso   1.000  H
  C57      1.0000 0.51450  0.67610  0.67230  Biso   1.000  C
  C58      1.0000 0.98550  0.17610  0.82770  Biso   1.000  C
  C59      1.0000 0.48550  0.32390  0.32770  Biso   1.000  C
  C60      1.0000 0.01450  0.82390  0.17230  Biso   1.000  C
  H29      1.0000 0.44490  0.66350  0.61140  Biso   1.000  H
  H30      1.0000 0.05510  0.16350  0.88860  Biso   1.000  H
  H31      1.0000 0.55510  0.33650  0.38860  Biso   1.000  H
  H32      1.0000 0.94490  0.83650  0.11140  Biso   1.000  H
  C61      1.0000 0.82160  0.58580  0.87760  Biso   1.000  C
  C62      1.0000 0.67840  0.08580  0.62240  Biso   1.000  C
  C63      1.0000 0.17840  0.41420  0.12240  Biso   1.000  C
  C64      1.0000 0.32160  0.91420  0.37760  Biso   1.000  C
  C65      1.0000 0.72060  0.71370  0.85200  Biso   1.000  C
  C66      1.0000 0.77940  0.21370  0.64800  Biso   1.000  C
  C67      1.0000 0.27940  0.28630  0.14800  Biso   1.000  C
  C68      1.0000 0.22060  0.78630  0.35200  Biso   1.000  C
  H33      1.0000 0.79040  0.72700  0.91250  Biso   1.000  H
  H34      1.0000 0.70960  0.22700  0.58750  Biso   1.000  H
  H35      1.0000 0.20960  0.27300  0.08750  Biso   1.000  H
  H36      1.0000 0.29040  0.77300  0.41250  Biso   1.000  H
  C69      1.0000 0.01420  0.25240  0.37530  Biso   1.000  C
  C70      1.0000 0.48580  0.75240  0.12470  Biso   1.000  C
  C71      1.0000 0.98580  0.74760  0.62470  Biso   1.000  C
  C72      1.0000 0.51420  0.24760  0.87530  Biso   1.000  C
  H37      1.0000 0.99300  0.20540  0.34820  Biso   1.000  H
  H38      1.0000 0.50700  0.70540  0.15180  Biso   1.000  H
  H39      1.0000 0.00700  0.79460  0.65180  Biso   1.000  H
  H40      1.0000 0.49300  0.29460  0.84820  Biso   1.000  H
  C73      1.0000 0.91290  0.30730  0.34330  Biso   1.000  C
  C74      1.0000 0.58710  0.80730  0.15670  Biso   1.000  C
  C75      1.0000 0.08710  0.69270  0.65670  Biso   1.000  C
  C76      1.0000 0.41290  0.19270  0.84330  Biso   1.000  C
  H41      1.0000 0.82240  0.29790  0.29540  Biso   1.000  H
  H42      1.0000 0.67760  0.79790  0.20460  Biso   1.000  H
  H43      1.0000 0.17760  0.70210  0.70460  Biso   1.000  H
  H44      1.0000 0.32240  0.20210  0.79540  Biso   1.000  H
  C77      1.0000 0.94470  0.37760  0.38220  Biso   1.000  C
  C78      1.0000 0.55530  0.87760  0.11780  Biso   1.000  C
  C79      1.0000 0.05530  0.62240  0.61780  Biso   1.000  C
  C80      1.0000 0.44470  0.12240  0.88220  Biso   1.000  C
  H45      1.0000 0.87420  0.41530  0.36120  Biso   1.000  H
  H46      1.0000 0.62580  0.91530  0.13880  Biso   1.000  H
  H47      1.0000 0.12580  0.58470  0.63880  Biso   1.000  H
  H48      1.0000 0.37420  0.08470  0.86120  Biso   1.000  H
  O29      1.0000 0.05180  0.43648  0.85260  Biso   1.000  O
  O30      1.0000 0.44820  0.93648  0.64740  Biso   1.000  O
  O31      1.0000 0.94820  0.56352  0.14740  Biso   1.000  O
  O32      1.0000 0.55180  0.06352  0.35260  Biso   1.000  O
  C81      1.0000 0.16750  0.47860  0.85460  Biso   1.000  C
  C82      1.0000 0.33250  0.97860  0.64540  Biso   1.000  C
  C83      1.0000 0.83250  0.52140  0.14540  Biso   1.000  C
  C84      1.0000 0.66750  0.02140  0.35460  Biso   1.000  C
