data_image0
_cell_length_a       10.291
_cell_length_b       9.597
_cell_length_c       11.006
_cell_angle_alpha    90
_cell_angle_beta     107.59
_cell_angle_gamma    90

_symmetry_space_group_name_H-M    "P 1"
_symmetry_int_tables_number       1

loop_
  _symmetry_equiv_pos_as_xyz
  'x, y, z'

loop_
  _atom_site_label
  _atom_site_occupancy
  _atom_site_fract_x
  _atom_site_fract_y
  _atom_site_fract_z
  _atom_site_thermal_displace_type
  _atom_site_B_iso_or_equiv
  _atom_site_type_symbol
  Cu1      1.0000 0.67747  0.16041  0.68401  Biso   1.000  Cu
  Cu2      1.0000 0.32253  0.66041  0.31599  Biso   1.000  Cu
  O1       1.0000 0.56830  0.07910  0.77660  Biso   1.000  O
  O2       1.0000 0.43170  0.57910  0.22340  Biso   1.000  O
  O3       1.0000 0.97920  0.38870  0.63590  Biso   1.000  O
  O4       1.0000 0.02080  0.88870  0.36410  Biso   1.000  O
  O5       1.0000 0.78900  0.26660  0.60060  Biso   1.000  O
  O6       1.0000 0.21100  0.76660  0.39940  Biso   1.000  O
  N1       1.0000 0.80620  0.23670  0.83800  Biso   1.000  N
  N2       1.0000 0.19380  0.73670  0.16200  Biso   1.000  N
  N3       1.0000 0.05860  0.91140  0.63150  Biso   1.000  N
  N4       1.0000 0.94140  0.41140  0.36850  Biso   1.000  N
  H1       1.0000 0.08720  0.87630  0.57230  Biso   1.000  H
  H2       1.0000 0.91280  0.37630  0.42770  Biso   1.000  H
  N5       1.0000 0.63340  0.01370  0.53740  Biso   1.000  N
  N6       1.0000 0.36660  0.51370  0.46260  Biso   1.000  N
  N7       1.0000 0.50510  0.83610  0.40100  Biso   1.000  N
  N8       1.0000 0.49490  0.33610  0.59900  Biso   1.000  N
  N9       1.0000 0.43230  0.92950  0.56090  Biso   1.000  N
  N10      1.0000 0.56770  0.42950  0.43910  Biso   1.000  N
  H3       1.0000 0.36190  0.87630  0.53740  Biso   1.000  H
  H4       1.0000 0.63810  0.37630  0.46260  Biso   1.000  H
  H5       1.0000 0.44260  0.98550  0.62410  Biso   1.000  H
  H6       1.0000 0.55740  0.48550  0.37590  Biso   1.000  H
  C1       1.0000 0.79110  0.24140  0.94940  Biso   1.000  C
  C2       1.0000 0.20890  0.74140  0.05060  Biso   1.000  C
  H7       1.0000 0.85840  0.28570  0.01360  Biso   1.000  H
  H8       1.0000 0.14160  0.78570  0.98640  Biso   1.000  H
  C3       1.0000 0.67730  0.18300  0.98210  Biso   1.000  C
  C4       1.0000 0.32270  0.68300  0.01790  Biso   1.000  C
  C5       1.0000 0.67260  0.20260  0.10970  Biso   1.000  C
  C6       1.0000 0.32740  0.70260  0.89030  Biso   1.000  C
  H9       1.0000 0.74230  0.25130  0.16780  Biso   1.000  H
  H10      1.0000 0.25770  0.75130  0.83220  Biso   1.000  H
  C7       1.0000 0.56850  0.15140  0.14700  Biso   1.000  C
  C8       1.0000 0.43150  0.65140  0.85300  Biso   1.000  C
  H11      1.0000 0.56410  0.16960  0.22870  Biso   1.000  H
  H12      1.0000 0.43590  0.66960  0.77130  Biso   1.000  H
  C9       1.0000 0.46820  0.07170  0.06350  Biso   1.000  C
  C10      1.0000 0.53180  0.57170  0.93650  Biso   1.000  C
  H13      1.0000 0.39900  0.03310  0.09100  Biso   1.000  H
  H14      1.0000 0.60100  0.53310  0.90900  Biso   1.000  H
  C11      1.0000 0.46950  0.04860  0.93960  Biso   1.000  C
  C12      1.0000 0.53050  0.54860  0.06040  Biso   1.000  C
  H15      1.0000 0.40040  0.99630  0.88450  Biso   1.000  H
  H16      1.0000 0.59960  0.49630  0.11550  Biso   1.000  H
  C13      1.0000 0.57380  0.10320  0.89660  Biso   1.000  C
  C14      1.0000 0.42620  0.60320  0.10340  Biso   1.000  C
  C15      1.0000 0.92980  0.29200  0.81730  Biso   1.000  C
  C16      1.0000 0.07020  0.79200  0.18270  Biso   1.000  C
  H17      1.0000 0.95470  0.37940  0.86460  Biso   1.000  H
  H18      1.0000 0.04530  0.87940  0.13540  Biso   1.000  H
  C17      1.0000 0.05010  0.18990  0.85940  Biso   1.000  C
  C18      1.0000 0.94990  0.68990  0.14060  Biso   1.000  C
  H19      1.0000 0.13230  0.23790  0.85730  Biso   1.000  H
  H20      1.0000 0.86770  0.73790  0.14270  Biso   1.000  H
  H21      1.0000 0.06200  0.16280  0.94700  Biso   1.000  H
  H22      1.0000 0.93800  0.66280  0.05300  Biso   1.000  H
  C19      1.0000 0.03470  0.06070  0.77980  Biso   1.000  C
  C20      1.0000 0.96530  0.56070  0.22020  Biso   1.000  C
  C21      1.0000 0.09440  0.03930  0.68710  Biso   1.000  C
  C22      1.0000 0.90560  0.53930  0.31290  Biso   1.000  C
  H23      1.0000 0.15150  0.10240  0.66440  Biso   1.000  H
  H24      1.0000 0.84850  0.60240  0.33560  Biso   1.000  H
  C23      1.0000 0.97040  0.84900  0.68520  Biso   1.000  C
  C24      1.0000 0.02960  0.34900  0.31480  Biso   1.000  C
  C25      1.0000 0.90020  0.72410  0.65680  Biso   1.000  C
  C26      1.0000 0.09980  0.22410  0.34320  Biso   1.000  C
  H25      1.0000 0.91390  0.66460  0.59510  Biso   1.000  H
  H26      1.0000 0.08610  0.16460  0.40490  Biso   1.000  H
  C27      1.0000 0.81020  0.69070  0.72170  Biso   1.000  C
  C28      1.0000 0.18980  0.19070  0.27830  Biso   1.000  C
  H27      1.0000 0.76090  0.60810  0.70260  Biso   1.000  H
  H28      1.0000 0.23910  0.10810  0.29740  Biso   1.000  H
  C29      1.0000 0.79100  0.77790  0.81590  Biso   1.000  C
  C30      1.0000 0.20900  0.27790  0.18410  Biso   1.000  C
  H29      1.0000 0.72940  0.75300  0.85890  Biso   1.000  H
  H30      1.0000 0.27060  0.25300  0.14110  Biso   1.000  H
  C31      1.0000 0.86200  0.89970  0.84580  Biso   1.000  C
  C32      1.0000 0.13800  0.39970  0.15420  Biso   1.000  C
  H31      1.0000 0.84970  0.95600  0.91020  Biso   1.000  H
  H32      1.0000 0.15030  0.45600  0.08980  Biso   1.000  H
  C33      1.0000 0.95310  0.94070  0.78020  Biso   1.000  C
  C34      1.0000 0.04690  0.44070  0.21980  Biso   1.000  C
  C35      1.0000 0.89910  0.32110  0.67410  Biso   1.000  C
  C36      1.0000 0.10090  0.82110  0.32590  Biso   1.000  C
  C37      1.0000 0.72900  0.00150  0.47730  Biso   1.000  C
  C38      1.0000 0.27100  0.50150  0.52270  Biso   1.000  C
  H33      1.0000 0.80680  0.05660  0.50460  Biso   1.000  H
  H34      1.0000 0.19320  0.55660  0.49540  Biso   1.000  H
  C39      1.0000 0.71690  0.91170  0.37780  Biso   1.000  C
  C40      1.0000 0.28310  0.41170  0.62220  Biso   1.000  C
  H35      1.0000 0.78360  0.90510  0.33690  Biso   1.000  H
  H36      1.0000 0.21640  0.40510  0.66310  Biso   1.000  H
  C41      1.0000 0.60130  0.83200  0.34190  Biso   1.000  C
  C42      1.0000 0.39870  0.33200  0.65810  Biso   1.000  C
  H37      1.0000 0.58890  0.77200  0.27300  Biso   1.000  H
  H38      1.0000 0.41110  0.27200  0.72700  Biso   1.000  H
  C43      1.0000 0.52510  0.92520  0.49940  Biso   1.000  C
  C44      1.0000 0.47490  0.42520  0.50060  Biso   1.000  C
