data_image0
_cell_length_a       6.8319
_cell_length_b       11.0582
_cell_length_c       21.9995
_cell_angle_alpha    90
_cell_angle_beta     97.2546
_cell_angle_gamma    90

_symmetry_space_group_name_H-M    "P 1"
_symmetry_int_tables_number       1

loop_
  _symmetry_equiv_pos_as_xyz
  'x, y, z'

loop_
  _atom_site_label
  _atom_site_occupancy
  _atom_site_fract_x
  _atom_site_fract_y
  _atom_site_fract_z
  _atom_site_thermal_displace_type
  _atom_site_B_iso_or_equiv
  _atom_site_type_symbol
  Cu1      1.0000 0.25000  0.22626  0.25000  Biso   1.000  Cu
  Cu2      1.0000 0.75000  0.77374  0.75000  Biso   1.000  Cu
  Cl1      1.0000 0.67397  0.64733  0.11294  Biso   1.000  Cl
  Cl2      1.0000 0.17397  0.35267  0.61294  Biso   1.000  Cl
  Cl3      1.0000 0.32603  0.35267  0.88706  Biso   1.000  Cl
  Cl4      1.0000 0.82603  0.64733  0.38706  Biso   1.000  Cl
  O1       1.0000 0.13700  0.20832  0.16365  Biso   1.000  O
  O2       1.0000 0.63700  0.79168  0.66365  Biso   1.000  O
  O3       1.0000 0.86300  0.79168  0.83635  Biso   1.000  O
  O4       1.0000 0.36300  0.20832  0.33635  Biso   1.000  O
  O5       1.0000 0.63770  0.07090  0.11873  Biso   1.000  O
  O6       1.0000 0.13770  0.92910  0.61873  Biso   1.000  O
  O7       1.0000 0.36230  0.92910  0.88127  Biso   1.000  O
  O8       1.0000 0.86230  0.07090  0.38127  Biso   1.000  O
  O9       1.0000 0.59150  0.23310  0.20597  Biso   1.000  O
  O10      1.0000 0.09150  0.76690  0.70597  Biso   1.000  O
  O11      1.0000 0.40850  0.76690  0.79403  Biso   1.000  O
  O12      1.0000 0.90850  0.23310  0.29403  Biso   1.000  O
  O13      1.0000 0.54800  0.66400  0.05759  Biso   1.000  O
  O14      1.0000 0.04800  0.33600  0.55759  Biso   1.000  O
  O15      1.0000 0.45200  0.33600  0.94241  Biso   1.000  O
  O16      1.0000 0.95200  0.66400  0.44241  Biso   1.000  O
  O17      1.0000 0.63100  0.72810  0.16039  Biso   1.000  O
  O18      1.0000 0.13100  0.27190  0.66039  Biso   1.000  O
  O19      1.0000 0.36900  0.27190  0.83961  Biso   1.000  O
  O20      1.0000 0.86900  0.72810  0.33961  Biso   1.000  O
  O21      1.0000 0.87390  0.67500  0.10202  Biso   1.000  O
  O22      1.0000 0.37390  0.32500  0.60202  Biso   1.000  O
  O23      1.0000 0.12610  0.32500  0.89798  Biso   1.000  O
  O24      1.0000 0.62610  0.67500  0.39798  Biso   1.000  O
  O25      1.0000 0.66340  0.52570  0.13391  Biso   1.000  O
  O26      1.0000 0.16340  0.47430  0.63391  Biso   1.000  O
  O27      1.0000 0.33660  0.47430  0.86609  Biso   1.000  O
  O28      1.0000 0.83660  0.52570  0.36609  Biso   1.000  O
  N1       1.0000 0.10160  0.29180  0.11967  Biso   1.000  N
  N2       1.0000 0.60160  0.70820  0.61967  Biso   1.000  N
  N3       1.0000 0.89840  0.70820  0.88033  Biso   1.000  N
  N4       1.0000 0.39840  0.29180  0.38033  Biso   1.000  N
  N5       1.0000 0.46500  0.04920  0.08576  Biso   1.000  N
  N6       1.0000 0.96500  0.95080  0.58576  Biso   1.000  N
  N7       1.0000 0.53500  0.95080  0.91424  Biso   1.000  N
  N8       1.0000 0.03500  0.04920  0.41424  Biso   1.000  N
  N9       1.0000 0.25000  0.04630  0.25000  Biso   1.000  N
  N10      1.0000 0.75000  0.95370  0.75000  Biso   1.000  N
  N11      1.0000 0.25000  0.40610  0.25000  Biso   1.000  N
  N12      1.0000 0.75000  0.59390  0.75000  Biso   1.000  N
  C1       1.0000 0.92870  0.28750  0.08402  Biso   1.000  C
  C2       1.0000 0.42870  0.71250  0.58402  Biso   1.000  C
  C3       1.0000 0.07130  0.71250  0.91598  Biso   1.000  C
  C4       1.0000 0.57130  0.28750  0.41598  Biso   1.000  C
  H1       1.0000 0.83570  0.22950  0.09120  Biso   1.000  H
  H2       1.0000 0.33570  0.77050  0.59120  Biso   1.000  H
  H3       1.0000 0.16430  0.77050  0.90880  Biso   1.000  H
  H4       1.0000 0.66430  0.22950  0.40880  Biso   1.000  H
  C5       1.0000 0.88780  0.36810  0.03680  Biso   1.000  C
  C6       1.0000 0.38780  0.63190  0.53680  Biso   1.000  C
  C7       1.0000 0.11220  0.63190  0.96320  Biso   1.000  C
  C8       1.0000 0.61220  0.36810  0.46320  Biso   1.000  C
  H5       1.0000 0.76690  0.36360  0.01220  Biso   1.000  H
  H6       1.0000 0.26690  0.63640  0.51220  Biso   1.000  H
  H7       1.0000 0.23310  0.63640  0.98780  Biso   1.000  H
  H8       1.0000 0.73310  0.36360  0.48780  Biso   1.000  H
  C9       1.0000 0.02070  0.45510  0.02500  Biso   1.000  C
  C10      1.0000 0.52070  0.54490  0.52500  Biso   1.000  C
  C11      1.0000 0.97930  0.54490  0.97500  Biso   1.000  C
  C12      1.0000 0.47930  0.45510  0.47500  Biso   1.000  C
  C13      1.0000 0.19950  0.45480  0.06263  Biso   1.000  C
  C14      1.0000 0.69950  0.54520  0.56263  Biso   1.000  C
  C15      1.0000 0.80050  0.54520  0.93737  Biso   1.000  C
  C16      1.0000 0.30050  0.45480  0.43737  Biso   1.000  C
  H9       1.0000 0.29560  0.51110  0.05590  Biso   1.000  H
  H10      1.0000 0.79560  0.48890  0.55590  Biso   1.000  H
  H11      1.0000 0.70440  0.48890  0.94410  Biso   1.000  H
  H12      1.0000 0.20440  0.51110  0.44410  Biso   1.000  H
  C17      1.0000 0.23740  0.37360  0.10940  Biso   1.000  C
  C18      1.0000 0.73740  0.62640  0.60940  Biso   1.000  C
  C19      1.0000 0.76260  0.62640  0.89060  Biso   1.000  C
  C20      1.0000 0.26260  0.37360  0.39060  Biso   1.000  C
  H13      1.0000 0.35820  0.37520  0.13420  Biso   1.000  H
  H14      1.0000 0.85820  0.62480  0.63420  Biso   1.000  H
  H15      1.0000 0.64180  0.62480  0.86580  Biso   1.000  H
  H16      1.0000 0.14180  0.37520  0.36580  Biso   1.000  H
  C21      1.0000 0.40090  0.12080  0.03798  Biso   1.000  C
  C22      1.0000 0.90090  0.87920  0.53798  Biso   1.000  C
  C23      1.0000 0.59910  0.87920  0.96202  Biso   1.000  C
  C24      1.0000 0.09910  0.12080  0.46202  Biso   1.000  C
  H17      1.0000 0.47990  0.18430  0.02780  Biso   1.000  H
  H18      1.0000 0.97990  0.81570  0.52780  Biso   1.000  H
  H19      1.0000 0.52010  0.81570  0.97220  Biso   1.000  H
  H20      1.0000 0.02010  0.18430  0.47220  Biso   1.000  H
  C25      1.0000 0.22300  0.10210  0.00427  Biso   1.000  C
  C26      1.0000 0.72300  0.89790  0.50427  Biso   1.000  C
  C27      1.0000 0.77700  0.89790  0.99573  Biso   1.000  C
  C28      1.0000 0.27700  0.10210  0.49573  Biso   1.000  C
  H21      1.0000 0.18360  0.15270  0.97120  Biso   1.000  H
  H22      1.0000 0.68360  0.84730  0.47120  Biso   1.000  H
  H23      1.0000 0.81640  0.84730  0.02880  Biso   1.000  H
  H24      1.0000 0.31640  0.15270  0.52880  Biso   1.000  H
  C29      1.0000 0.09830  0.00950  0.01779  Biso   1.000  C
  C30      1.0000 0.59830  0.99050  0.51779  Biso   1.000  C
  C31      1.0000 0.90170  0.99050  0.98221  Biso   1.000  C
  C32      1.0000 0.40170  0.00950  0.48221  Biso   1.000  C
  C33      1.0000 0.17290  0.93540  0.06618  Biso   1.000  C
  C34      1.0000 0.67290  0.06460  0.56618  Biso   1.000  C
  C35      1.0000 0.82710  0.06460  0.93382  Biso   1.000  C
  C36      1.0000 0.32710  0.93540  0.43382  Biso   1.000  C
  H25      1.0000 0.09820  0.87000  0.07650  Biso   1.000  H
  H26      1.0000 0.59820  0.13000  0.57650  Biso   1.000  H
  H27      1.0000 0.90180  0.13000  0.92350  Biso   1.000  H
  H28      1.0000 0.40180  0.87000  0.42350  Biso   1.000  H
  C37      1.0000 0.35320  0.95590  0.09912  Biso   1.000  C
  C38      1.0000 0.85320  0.04410  0.59912  Biso   1.000  C
  C39      1.0000 0.64680  0.04410  0.90088  Biso   1.000  C
  C40      1.0000 0.14680  0.95590  0.40088  Biso   1.000  C
  H29      1.0000 0.39870  0.90440  0.13120  Biso   1.000  H
  H30      1.0000 0.89870  0.09560  0.63120  Biso   1.000  H
  H31      1.0000 0.60130  0.09560  0.86880  Biso   1.000  H
  H32      1.0000 0.10130  0.90440  0.36880  Biso   1.000  H
  C41      1.0000 0.09150  0.98310  0.22538  Biso   1.000  C
  C42      1.0000 0.59150  0.01690  0.72538  Biso   1.000  C
  C43      1.0000 0.90850  0.01690  0.77462  Biso   1.000  C
  C44      1.0000 0.40850  0.98310  0.27462  Biso   1.000  C
  H33      1.0000 0.98090  0.02530  0.20790  Biso   1.000  H
  H34      1.0000 0.48090  0.97470  0.70790  Biso   1.000  H
  H35      1.0000 0.01910  0.97470  0.79210  Biso   1.000  H
  H36      1.0000 0.51910  0.02530  0.29210  Biso   1.000  H
  C45      1.0000 0.08550  0.85850  0.22487  Biso   1.000  C
  C46      1.0000 0.58550  0.14150  0.72487  Biso   1.000  C
  C47      1.0000 0.91450  0.14150  0.77513  Biso   1.000  C
  C48      1.0000 0.41450  0.85850  0.27513  Biso   1.000  C
  H37      1.0000 0.97180  0.81860  0.20780  Biso   1.000  H
  H38      1.0000 0.47180  0.18140  0.70780  Biso   1.000  H
  H39      1.0000 0.02820  0.18140  0.79220  Biso   1.000  H
  H40      1.0000 0.52820  0.81860  0.29220  Biso   1.000  H
  C49      1.0000 0.25000  0.79230  0.25000  Biso   1.000  C
  C50      1.0000 0.75000  0.20770  0.75000  Biso   1.000  C
  C51      1.0000 0.25000  0.65810  0.25000  Biso   1.000  C
  C52      1.0000 0.75000  0.34190  0.75000  Biso   1.000  C
  C53      1.0000 0.07570  0.59240  0.23857  Biso   1.000  C
  C54      1.0000 0.57570  0.40760  0.73857  Biso   1.000  C
  C55      1.0000 0.92430  0.40760  0.76143  Biso   1.000  C
  C56      1.0000 0.42430  0.59240  0.26143  Biso   1.000  C
  H41      1.0000 0.95540  0.63240  0.23110  Biso   1.000  H
  H42      1.0000 0.45540  0.36760  0.73110  Biso   1.000  H
  H43      1.0000 0.04460  0.36760  0.76890  Biso   1.000  H
  H44      1.0000 0.54460  0.63240  0.26890  Biso   1.000  H
  C57      1.0000 0.08150  0.46810  0.23841  Biso   1.000  C
  C58      1.0000 0.58150  0.53190  0.73841  Biso   1.000  C
  C59      1.0000 0.91850  0.53190  0.76159  Biso   1.000  C
  C60      1.0000 0.41850  0.46810  0.26159  Biso   1.000  C
  H45      1.0000 0.96370  0.42560  0.22990  Biso   1.000  H
  H46      1.0000 0.46370  0.57440  0.72990  Biso   1.000  H
  H47      1.0000 0.03630  0.57440  0.77010  Biso   1.000  H
  H48      1.0000 0.53630  0.42560  0.27010  Biso   1.000  H
  H49      1.0000 0.61900  0.16700  0.18010  Biso   1.000  H
  H50      1.0000 0.11900  0.83300  0.68010  Biso   1.000  H
  H51      1.0000 0.38100  0.83300  0.81990  Biso   1.000  H
  H52      1.0000 0.88100  0.16700  0.31990  Biso   1.000  H
  H53      1.0000 0.65000  0.30100  0.18680  Biso   1.000  H
  H54      1.0000 0.15000  0.69900  0.68680  Biso   1.000  H
  H55      1.0000 0.35000  0.69900  0.81320  Biso   1.000  H
  H56      1.0000 0.85000  0.30100  0.31320  Biso   1.000  H
