data_image0
_cell_length_a       18.3842
_cell_length_b       16.5424
_cell_length_c       20.9112
_cell_angle_alpha    90
_cell_angle_beta     110.453
_cell_angle_gamma    90

_symmetry_space_group_name_H-M    "P 1"
_symmetry_int_tables_number       1

loop_
  _symmetry_equiv_pos_as_xyz
  'x, y, z'

loop_
  _atom_site_label
  _atom_site_occupancy
  _atom_site_fract_x
  _atom_site_fract_y
  _atom_site_fract_z
  _atom_site_thermal_displace_type
  _atom_site_B_iso_or_equiv
  _atom_site_type_symbol
  Cu1      1.0000 0.18964  0.47775  0.48403  Biso   1.000  Cu
  Cu2      1.0000 0.18964  0.02225  0.98403  Biso   1.000  Cu
  Cu3      1.0000 0.81036  0.52225  0.51597  Biso   1.000  Cu
  Cu4      1.0000 0.81036  0.97775  0.01597  Biso   1.000  Cu
  Cu5      1.0000 0.50000  0.00000  0.00000  Biso   1.000  Cu
  Cu6      1.0000 0.50000  0.50000  0.50000  Biso   1.000  Cu
  Cl1      1.0000 0.48936  0.37387  0.86464  Biso   1.000  Cl
  Cl2      1.0000 0.48936  0.12613  0.36464  Biso   1.000  Cl
  Cl3      1.0000 0.51064  0.62613  0.13536  Biso   1.000  Cl
  Cl4      1.0000 0.51064  0.87387  0.63536  Biso   1.000  Cl
  Cl5      1.0000 0.08800  0.44060  0.90430  Biso   1.000  Cl
  Cl6      1.0000 0.08800  0.05940  0.40430  Biso   1.000  Cl
  Cl7      1.0000 0.91200  0.55940  0.09570  Biso   1.000  Cl
  Cl8      1.0000 0.91200  0.94060  0.59570  Biso   1.000  Cl
  Cl9      1.0000 0.13030  0.40060  0.85620  Biso   1.000  Cl
  Cl10     1.0000 0.13030  0.09940  0.35620  Biso   1.000  Cl
  Cl11     1.0000 0.86970  0.59940  0.14380  Biso   1.000  Cl
  Cl12     1.0000 0.86970  0.90060  0.64380  Biso   1.000  Cl
  Cl13     1.0000 0.77513  0.14912  0.37467  Biso   1.000  Cl
  Cl14     1.0000 0.77513  0.35088  0.87467  Biso   1.000  Cl
  Cl15     1.0000 0.22487  0.85088  0.62533  Biso   1.000  Cl
  Cl16     1.0000 0.22487  0.64912  0.12533  Biso   1.000  Cl
  O1       1.0000 0.17890  0.34260  0.52130  Biso   1.000  O
  O2       1.0000 0.17890  0.15740  0.02130  Biso   1.000  O
  O3       1.0000 0.82110  0.65740  0.47870  Biso   1.000  O
  O4       1.0000 0.82110  0.84260  0.97870  Biso   1.000  O
  O5       1.0000 0.46910  0.97750  0.88180  Biso   1.000  O
  O6       1.0000 0.46910  0.52250  0.38180  Biso   1.000  O
  O7       1.0000 0.53090  0.02250  0.11820  Biso   1.000  O
  O8       1.0000 0.53090  0.47750  0.61820  Biso   1.000  O
  O9       1.0000 0.30220  0.48580  0.54020  Biso   1.000  O
  O10      1.0000 0.30220  0.01420  0.04020  Biso   1.000  O
  O11      1.0000 0.69780  0.51420  0.45980  Biso   1.000  O
  O12      1.0000 0.69780  0.98580  0.95980  Biso   1.000  O
  O13      1.0000 0.57560  0.78720  0.95110  Biso   1.000  O
  O14      1.0000 0.57560  0.71280  0.45110  Biso   1.000  O
  O15      1.0000 0.42440  0.21280  0.04890  Biso   1.000  O
  O16      1.0000 0.42440  0.28720  0.54890  Biso   1.000  O
  O17      1.0000 0.56900  0.09050  0.99127  Biso   1.000  O
  O18      1.0000 0.56900  0.40950  0.49127  Biso   1.000  O
  O19      1.0000 0.43100  0.90950  0.00873  Biso   1.000  O
  O20      1.0000 0.43100  0.59050  0.50873  Biso   1.000  O
  O21      1.0000 0.80680  0.51640  0.31530  Biso   1.000  O
  O22      1.0000 0.80680  0.98360  0.81530  Biso   1.000  O
  O23      1.0000 0.19320  0.48360  0.68470  Biso   1.000  O
  O24      1.0000 0.19320  0.01640  0.18470  Biso   1.000  O
  O25      1.0000 0.93660  0.37060  0.43780  Biso   1.000  O
  O26      1.0000 0.93660  0.12940  0.93780  Biso   1.000  O
  O27      1.0000 0.06340  0.62940  0.56220  Biso   1.000  O
  O28      1.0000 0.06340  0.87060  0.06220  Biso   1.000  O
  O29      1.0000 0.22480  0.01440  0.80510  Biso   1.000  O
  O30      1.0000 0.22480  0.48560  0.30510  Biso   1.000  O
  O31      1.0000 0.77520  0.98560  0.19490  Biso   1.000  O
  O32      1.0000 0.77520  0.51440  0.69490  Biso   1.000  O
  O33      1.0000 0.20030  0.62150  0.44850  Biso   1.000  O
  O34      1.0000 0.20030  0.87850  0.94850  Biso   1.000  O
  O35      1.0000 0.79970  0.37850  0.55150  Biso   1.000  O
  O36      1.0000 0.79970  0.12150  0.05150  Biso   1.000  O
  O37      1.0000 0.91930  0.98130  0.07970  Biso   1.000  O
  O38      1.0000 0.91930  0.51870  0.57970  Biso   1.000  O
  O39      1.0000 0.08070  0.01870  0.92030  Biso   1.000  O
  O40      1.0000 0.08070  0.48130  0.42030  Biso   1.000  O
  O41      1.0000 0.15890  0.52380  0.55470  Biso   1.000  O
  O42      1.0000 0.15890  0.97620  0.05470  Biso   1.000  O
  O43      1.0000 0.84110  0.47620  0.44530  Biso   1.000  O
  O44      1.0000 0.84110  0.02380  0.94530  Biso   1.000  O
  O45      1.0000 0.22480  0.42550  0.41760  Biso   1.000  O
  O46      1.0000 0.22480  0.07450  0.91760  Biso   1.000  O
  O47      1.0000 0.77520  0.57450  0.58240  Biso   1.000  O
  O48      1.0000 0.77520  0.92550  0.08240  Biso   1.000  O
  O49      1.0000 0.41370  0.07190  0.99241  Biso   1.000  O
  O50      1.0000 0.41370  0.42810  0.49241  Biso   1.000  O
  O51      1.0000 0.58630  0.92810  0.00759  Biso   1.000  O
  O52      1.0000 0.58630  0.57190  0.50759  Biso   1.000  O
  O53      1.0000 0.29590  0.27860  0.42620  Biso   1.000  O
  O54      1.0000 0.29590  0.22140  0.92620  Biso   1.000  O
  O55      1.0000 0.70410  0.72140  0.57380  Biso   1.000  O
  O56      1.0000 0.70410  0.77860  0.07380  Biso   1.000  O
  O57      1.0000 0.68440  0.03000  0.48880  Biso   1.000  O
  O58      1.0000 0.68440  0.47000  0.98880  Biso   1.000  O
  O59      1.0000 0.31560  0.97000  0.51120  Biso   1.000  O
  O60      1.0000 0.31560  0.53000  0.01120  Biso   1.000  O
  O61      1.0000 0.66520  0.90430  0.55110  Biso   1.000  O
  O62      1.0000 0.66520  0.59570  0.05110  Biso   1.000  O
  O63      1.0000 0.33480  0.09570  0.44890  Biso   1.000  O
  O64      1.0000 0.33480  0.40430  0.94890  Biso   1.000  O
  O65      1.0000 0.42190  0.37630  0.81310  Biso   1.000  O
  O66      1.0000 0.42190  0.12370  0.31310  Biso   1.000  O
  O67      1.0000 0.57810  0.62370  0.18690  Biso   1.000  O
  O68      1.0000 0.57810  0.87630  0.68690  Biso   1.000  O
  O69      1.0000 0.51810  0.29860  0.87300  Biso   1.000  O
  O70      1.0000 0.51810  0.20140  0.37300  Biso   1.000  O
  O71      1.0000 0.48190  0.70140  0.12700  Biso   1.000  O
  O72      1.0000 0.48190  0.79860  0.62700  Biso   1.000  O
  O73      1.0000 0.48620  0.41150  0.91460  Biso   1.000  O
  O74      1.0000 0.48620  0.08850  0.41460  Biso   1.000  O
  O75      1.0000 0.51380  0.58850  0.08540  Biso   1.000  O
  O76      1.0000 0.51380  0.91150  0.58540  Biso   1.000  O
  O77      1.0000 0.53980  0.42780  0.85120  Biso   1.000  O
  O78      1.0000 0.53980  0.07220  0.35120  Biso   1.000  O
  O79      1.0000 0.46020  0.57220  0.14880  Biso   1.000  O
  O80      1.0000 0.46020  0.92780  0.64880  Biso   1.000  O
  O81      1.0000 0.07970  0.47560  0.96420  Biso   1.000  O
  O82      1.0000 0.07970  0.02440  0.46420  Biso   1.000  O
  O83      1.0000 0.92030  0.52440  0.03580  Biso   1.000  O
  O84      1.0000 0.92030  0.97560  0.53580  Biso   1.000  O
  O85      1.0000 0.21730  0.37180  0.86210  Biso   1.000  O
  O86      1.0000 0.21730  0.12820  0.36210  Biso   1.000  O
  O87      1.0000 0.78270  0.62820  0.13790  Biso   1.000  O
  O88      1.0000 0.78270  0.87180  0.63790  Biso   1.000  O
  O89      1.0000 0.01530  0.43330  0.84810  Biso   1.000  O
  O90      1.0000 0.01530  0.06670  0.34810  Biso   1.000  O
  O91      1.0000 0.98470  0.56670  0.15190  Biso   1.000  O
  O92      1.0000 0.98470  0.93330  0.65190  Biso   1.000  O
  O93      1.0000 0.09310  0.39360  0.78560  Biso   1.000  O
  O94      1.0000 0.09310  0.10640  0.28560  Biso   1.000  O
  O95      1.0000 0.90690  0.60640  0.21440  Biso   1.000  O
  O96      1.0000 0.90690  0.89360  0.71440  Biso   1.000  O
  O97      1.0000 0.12110  0.35830  0.90950  Biso   1.000  O
  O98      1.0000 0.12110  0.14170  0.40950  Biso   1.000  O
  O99      1.0000 0.87890  0.64170  0.09050  Biso   1.000  O
  O100     1.0000 0.87890  0.85830  0.59050  Biso   1.000  O
  O101     1.0000 0.14660  0.48790  0.88390  Biso   1.000  O
  O102     1.0000 0.14660  0.01210  0.38390  Biso   1.000  O
  O103     1.0000 0.85340  0.51210  0.11610  Biso   1.000  O
  O104     1.0000 0.85340  0.98790  0.61610  Biso   1.000  O
  O105     1.0000 0.78050  0.21580  0.41720  Biso   1.000  O
  O106     1.0000 0.78050  0.28420  0.91720  Biso   1.000  O
  O107     1.0000 0.21950  0.78420  0.58280  Biso   1.000  O
  O108     1.0000 0.21950  0.71580  0.08280  Biso   1.000  O
  O109     1.0000 0.83760  0.15670  0.34550  Biso   1.000  O
  O110     1.0000 0.83760  0.34330  0.84550  Biso   1.000  O
  O111     1.0000 0.16240  0.84330  0.65450  Biso   1.000  O
  O112     1.0000 0.16240  0.65670  0.15450  Biso   1.000  O
  O113     1.0000 0.70450  0.15210  0.31930  Biso   1.000  O
  O114     1.0000 0.70450  0.34790  0.81930  Biso   1.000  O
  O115     1.0000 0.29550  0.84790  0.68070  Biso   1.000  O
  O116     1.0000 0.29550  0.65210  0.18070  Biso   1.000  O
  O117     1.0000 0.78240  0.07270  0.40680  Biso   1.000  O
  O118     1.0000 0.78240  0.42730  0.90680  Biso   1.000  O
  O119     1.0000 0.21760  0.92730  0.59320  Biso   1.000  O
  O120     1.0000 0.21760  0.57270  0.09320  Biso   1.000  O
  N1       1.0000 0.22280  0.29410  0.56930  Biso   1.000  N
  N2       1.0000 0.22280  0.20590  0.06930  Biso   1.000  N
  N3       1.0000 0.77720  0.70590  0.43070  Biso   1.000  N
  N4       1.0000 0.77720  0.79410  0.93070  Biso   1.000  N
  N5       1.0000 0.42950  0.02800  0.83230  Biso   1.000  N
  N6       1.0000 0.42950  0.47200  0.33230  Biso   1.000  N
  N7       1.0000 0.57050  0.97200  0.16770  Biso   1.000  N
  N8       1.0000 0.57050  0.52800  0.66770  Biso   1.000  N
  N9       1.0000 0.33410  0.52970  0.59670  Biso   1.000  N
  N10      1.0000 0.33410  0.97030  0.09670  Biso   1.000  N
  N11      1.0000 0.66590  0.47030  0.40330  Biso   1.000  N
  N12      1.0000 0.66590  0.02970  0.90330  Biso   1.000  N
  N13      1.0000 0.53500  0.74670  0.89480  Biso   1.000  N
  N14      1.0000 0.53500  0.75330  0.39480  Biso   1.000  N
  N15      1.0000 0.46500  0.25330  0.10520  Biso   1.000  N
  N16      1.0000 0.46500  0.24670  0.60520  Biso   1.000  N
  N17      1.0000 0.60450  0.14690  0.03790  Biso   1.000  N
  N18      1.0000 0.60450  0.35310  0.53790  Biso   1.000  N
  N19      1.0000 0.39550  0.85310  0.96210  Biso   1.000  N
  N20      1.0000 0.39550  0.64690  0.46210  Biso   1.000  N
  N21      1.0000 0.77740  0.45640  0.27170  Biso   1.000  N
  N22      1.0000 0.77740  0.04360  0.77170  Biso   1.000  N
  N23      1.0000 0.22260  0.54360  0.72830  Biso   1.000  N
  N24      1.0000 0.22260  0.95640  0.22830  Biso   1.000  N
  N25      1.0000 0.97500  0.32230  0.48810  Biso   1.000  N
  N26      1.0000 0.97500  0.17770  0.98810  Biso   1.000  N
  N27      1.0000 0.02500  0.67770  0.51190  Biso   1.000  N
  N28      1.0000 0.02500  0.82230  0.01190  Biso   1.000  N
  N29      1.0000 0.18390  0.06340  0.75550  Biso   1.000  N
  N30      1.0000 0.18390  0.43660  0.25550  Biso   1.000  N
  N31      1.0000 0.81610  0.93660  0.24450  Biso   1.000  N
  N32      1.0000 0.81610  0.56340  0.74450  Biso   1.000  N
  N33      1.0000 0.15770  0.66900  0.39950  Biso   1.000  N
  N34      1.0000 0.15770  0.83100  0.89950  Biso   1.000  N
  N35      1.0000 0.84230  0.33100  0.60050  Biso   1.000  N
  N36      1.0000 0.84230  0.16900  0.10050  Biso   1.000  N
  N37      1.0000 0.95150  0.93010  0.13120  Biso   1.000  N
  N38      1.0000 0.95150  0.56990  0.63120  Biso   1.000  N
  N39      1.0000 0.04850  0.06990  0.86880  Biso   1.000  N
  N40      1.0000 0.04850  0.43010  0.36880  Biso   1.000  N
  C1       1.0000 0.25610  0.32030  0.63330  Biso   1.000  C
  C2       1.0000 0.25610  0.17970  0.13330  Biso   1.000  C
  C3       1.0000 0.74390  0.67970  0.36670  Biso   1.000  C
  C4       1.0000 0.74390  0.82030  0.86670  Biso   1.000  C
  H1       1.0000 0.24600  0.36800  0.64100  Biso   1.000  H
  H2       1.0000 0.24600  0.13200  0.14100  Biso   1.000  H
  H3       1.0000 0.75400  0.63200  0.35900  Biso   1.000  H
  H4       1.0000 0.75400  0.86800  0.85900  Biso   1.000  H
  C5       1.0000 0.29750  0.27030  0.68390  Biso   1.000  C
  C6       1.0000 0.29750  0.22970  0.18390  Biso   1.000  C
  C7       1.0000 0.70250  0.72970  0.31610  Biso   1.000  C
  C8       1.0000 0.70250  0.77030  0.81610  Biso   1.000  C
  H5       1.0000 0.31800  0.28400  0.71800  Biso   1.000  H
  H6       1.0000 0.31800  0.21600  0.21800  Biso   1.000  H
  H7       1.0000 0.68200  0.71600  0.28200  Biso   1.000  H
  H8       1.0000 0.68200  0.78400  0.78200  Biso   1.000  H
  C9       1.0000 0.30860  0.18860  0.67200  Biso   1.000  C
  C10      1.0000 0.30860  0.31140  0.17200  Biso   1.000  C
  C11      1.0000 0.69140  0.81140  0.32800  Biso   1.000  C
  C12      1.0000 0.69140  0.68860  0.82800  Biso   1.000  C
  C13      1.0000 0.27550  0.16330  0.60430  Biso   1.000  C
  C14      1.0000 0.27550  0.33670  0.10430  Biso   1.000  C
  C15      1.0000 0.72450  0.83670  0.39570  Biso   1.000  C
  C16      1.0000 0.72450  0.66330  0.89570  Biso   1.000  C
  H9       1.0000 0.27100  0.10500  0.59400  Biso   1.000  H
  H10      1.0000 0.27100  0.39500  0.09400  Biso   1.000  H
  H11      1.0000 0.72900  0.89500  0.40600  Biso   1.000  H
  H12      1.0000 0.72900  0.60500  0.90600  Biso   1.000  H
  C17      1.0000 0.23230  0.21700  0.55380  Biso   1.000  C
  C18      1.0000 0.23230  0.28300  0.05380  Biso   1.000  C
  C19      1.0000 0.76770  0.78300  0.44620  Biso   1.000  C
  C20      1.0000 0.76770  0.71700  0.94620  Biso   1.000  C
  H13      1.0000 0.20700  0.20800  0.50600  Biso   1.000  H
  H14      1.0000 0.20700  0.29200  0.00600  Biso   1.000  H
  H15      1.0000 0.79300  0.79200  0.49400  Biso   1.000  H
  H16      1.0000 0.79300  0.70800  0.99400  Biso   1.000  H
  C21      1.0000 0.35060  0.13240  0.72700  Biso   1.000  C
  C22      1.0000 0.35060  0.36760  0.22700  Biso   1.000  C
  C23      1.0000 0.64940  0.86760  0.27300  Biso   1.000  C
  C24      1.0000 0.64940  0.63240  0.77300  Biso   1.000  C
  C25      1.0000 0.39350  0.15990  0.79250  Biso   1.000  C
  C26      1.0000 0.39350  0.34010  0.29250  Biso   1.000  C
  C27      1.0000 0.60650  0.84010  0.20750  Biso   1.000  C
  C28      1.0000 0.60650  0.65990  0.70750  Biso   1.000  C
  H17      1.0000 0.39800  0.21500  0.80400  Biso   1.000  H
  H18      1.0000 0.39800  0.28500  0.30400  Biso   1.000  H
  H19      1.0000 0.60200  0.78500  0.19600  Biso   1.000  H
  H20      1.0000 0.60200  0.71500  0.69600  Biso   1.000  H
  C29      1.0000 0.43200  0.10840  0.84400  Biso   1.000  C
  C30      1.0000 0.43200  0.39160  0.34400  Biso   1.000  C
  C31      1.0000 0.56800  0.89160  0.15600  Biso   1.000  C
  C32      1.0000 0.56800  0.60840  0.65600  Biso   1.000  C
  H21      1.0000 0.46300  0.12200  0.89100  Biso   1.000  H
  H22      1.0000 0.46300  0.37800  0.39100  Biso   1.000  H
  H23      1.0000 0.53700  0.87800  0.10900  Biso   1.000  H
  H24      1.0000 0.53700  0.62200  0.60900  Biso   1.000  H
  C33      1.0000 0.38910  0.99950  0.76970  Biso   1.000  C
  C34      1.0000 0.38910  0.50050  0.26970  Biso   1.000  C
  C35      1.0000 0.61090  0.00050  0.23030  Biso   1.000  C
  C36      1.0000 0.61090  0.49950  0.73030  Biso   1.000  C
  H25      1.0000 0.39100  0.95300  0.75800  Biso   1.000  H
  H26      1.0000 0.39100  0.54700  0.25800  Biso   1.000  H
  H27      1.0000 0.60900  0.04700  0.24200  Biso   1.000  H
  H28      1.0000 0.60900  0.45300  0.74200  Biso   1.000  H
  C37      1.0000 0.35040  0.04930  0.71730  Biso   1.000  C
  C38      1.0000 0.35040  0.45070  0.21730  Biso   1.000  C
  C39      1.0000 0.64960  0.95070  0.28270  Biso   1.000  C
  C40      1.0000 0.64960  0.54930  0.78270  Biso   1.000  C
  H29      1.0000 0.32300  0.02800  0.67300  Biso   1.000  H
  H30      1.0000 0.32300  0.47200  0.17300  Biso   1.000  H
  H31      1.0000 0.67700  0.97200  0.32700  Biso   1.000  H
  H32      1.0000 0.67700  0.52800  0.82700  Biso   1.000  H
  C41      1.0000 0.32350  0.61050  0.59670  Biso   1.000  C
  C42      1.0000 0.32350  0.88950  0.09670  Biso   1.000  C
  C43      1.0000 0.67650  0.38950  0.40330  Biso   1.000  C
  C44      1.0000 0.67650  0.11050  0.90330  Biso   1.000  C
  H33      1.0000 0.29000  0.63500  0.56300  Biso   1.000  H
  H34      1.0000 0.29000  0.86500  0.06300  Biso   1.000  H
  H35      1.0000 0.71000  0.36500  0.43700  Biso   1.000  H
  H36      1.0000 0.71000  0.13500  0.93700  Biso   1.000  H
  C45      1.0000 0.36110  0.65450  0.65410  Biso   1.000  C
  C46      1.0000 0.36110  0.84550  0.15410  Biso   1.000  C
  C47      1.0000 0.63890  0.34550  0.34590  Biso   1.000  C
  C48      1.0000 0.63890  0.15450  0.84590  Biso   1.000  C
  H37      1.0000 0.35400  0.70800  0.66000  Biso   1.000  H
  H38      1.0000 0.35400  0.79200  0.16000  Biso   1.000  H
  H39      1.0000 0.64600  0.29200  0.34000  Biso   1.000  H
  H40      1.0000 0.64600  0.20800  0.84000  Biso   1.000  H
  C49      1.0000 0.40950  0.61780  0.71360  Biso   1.000  C
  C50      1.0000 0.40950  0.88220  0.21360  Biso   1.000  C
  C51      1.0000 0.59050  0.38220  0.28640  Biso   1.000  C
  C52      1.0000 0.59050  0.11780  0.78640  Biso   1.000  C
  C53      1.0000 0.41650  0.53380  0.71160  Biso   1.000  C
  C54      1.0000 0.41650  0.96620  0.21160  Biso   1.000  C
  C55      1.0000 0.58350  0.46620  0.28840  Biso   1.000  C
  C56      1.0000 0.58350  0.03380  0.78840  Biso   1.000  C
  H41      1.0000 0.45700  0.50400  0.75600  Biso   1.000  H
  H42      1.0000 0.45700  0.99600  0.25600  Biso   1.000  H
  H43      1.0000 0.54300  0.49600  0.24400  Biso   1.000  H
  H44      1.0000 0.54300  0.00400  0.74400  Biso   1.000  H
  C57      1.0000 0.37920  0.49160  0.65320  Biso   1.000  C
  C58      1.0000 0.37920  0.00840  0.15320  Biso   1.000  C
  C59      1.0000 0.62080  0.50840  0.34680  Biso   1.000  C
  C60      1.0000 0.62080  0.99160  0.84680  Biso   1.000  C
  H45      1.0000 0.38600  0.42900  0.64800  Biso   1.000  H
  H46      1.0000 0.38600  0.07100  0.14800  Biso   1.000  H
  H47      1.0000 0.61400  0.57100  0.35200  Biso   1.000  H
  H48      1.0000 0.61400  0.92900  0.85200  Biso   1.000  H
  C61      1.0000 0.45240  0.66400  0.77650  Biso   1.000  C
  C62      1.0000 0.45240  0.83600  0.27650  Biso   1.000  C
  C63      1.0000 0.54760  0.33600  0.22350  Biso   1.000  C
  C64      1.0000 0.54760  0.16400  0.72350  Biso   1.000  C
  C65      1.0000 0.45560  0.74690  0.77880  Biso   1.000  C
  C66      1.0000 0.45560  0.75310  0.27880  Biso   1.000  C
  C67      1.0000 0.54440  0.25310  0.22120  Biso   1.000  C
  C68      1.0000 0.54440  0.24690  0.72120  Biso   1.000  C
  H49      1.0000 0.43500  0.76700  0.74200  Biso   1.000  H
  H50      1.0000 0.43500  0.73300  0.24200  Biso   1.000  H
  H51      1.0000 0.56500  0.23300  0.25800  Biso   1.000  H
  H52      1.0000 0.56500  0.26700  0.75800  Biso   1.000  H
  C69      1.0000 0.49700  0.78790  0.83740  Biso   1.000  C
  C70      1.0000 0.49700  0.71210  0.33740  Biso   1.000  C
  C71      1.0000 0.50300  0.21210  0.16260  Biso   1.000  C
  C72      1.0000 0.50300  0.28790  0.66260  Biso   1.000  C
  H53      1.0000 0.49000  0.85200  0.84000  Biso   1.000  H
  H54      1.0000 0.49000  0.64800  0.34000  Biso   1.000  H
  H55      1.0000 0.51000  0.14800  0.16000  Biso   1.000  H
  H56      1.0000 0.51000  0.35200  0.66000  Biso   1.000  H
  C73      1.0000 0.53380  0.66710  0.89580  Biso   1.000  C
  C74      1.0000 0.53380  0.83290  0.39580  Biso   1.000  C
  C75      1.0000 0.46620  0.33290  0.10420  Biso   1.000  C
  C76      1.0000 0.46620  0.16710  0.60420  Biso   1.000  C
  H57      1.0000 0.56700  0.63900  0.94700  Biso   1.000  H
  H58      1.0000 0.56700  0.86100  0.44700  Biso   1.000  H
  H59      1.0000 0.43300  0.36100  0.05300  Biso   1.000  H
  H60      1.0000 0.43300  0.13900  0.55300  Biso   1.000  H
  C77      1.0000 0.49260  0.62470  0.83760  Biso   1.000  C
  C78      1.0000 0.49260  0.87530  0.33760  Biso   1.000  C
  C79      1.0000 0.50740  0.37530  0.16240  Biso   1.000  C
  C80      1.0000 0.50740  0.12470  0.66240  Biso   1.000  C
  H61      1.0000 0.49600  0.56400  0.84900  Biso   1.000  H
  H62      1.0000 0.49600  0.93600  0.34900  Biso   1.000  H
  H63      1.0000 0.50400  0.43600  0.15100  Biso   1.000  H
  H64      1.0000 0.50400  0.06400  0.65100  Biso   1.000  H
  C81      1.0000 0.59190  0.22510  0.01900  Biso   1.000  C
  C82      1.0000 0.59190  0.27490  0.51900  Biso   1.000  C
  C83      1.0000 0.40810  0.77490  0.98100  Biso   1.000  C
  C84      1.0000 0.40810  0.72510  0.48100  Biso   1.000  C
  H65      1.0000 0.56500  0.23000  0.96600  Biso   1.000  H
  H66      1.0000 0.56500  0.27000  0.46600  Biso   1.000  H
  H67      1.0000 0.43500  0.77000  0.03400  Biso   1.000  H
  H68      1.0000 0.43500  0.73000  0.53400  Biso   1.000  H
  C85      1.0000 0.62870  0.28490  0.06410  Biso   1.000  C
  C86      1.0000 0.62870  0.21510  0.56410  Biso   1.000  C
  C87      1.0000 0.37130  0.71510  0.93590  Biso   1.000  C
  C88      1.0000 0.37130  0.78490  0.43590  Biso   1.000  C
  H69      1.0000 0.62200  0.33200  0.04000  Biso   1.000  H
  H70      1.0000 0.62200  0.16800  0.54000  Biso   1.000  H
  H71      1.0000 0.37800  0.66800  0.96000  Biso   1.000  H
  H72      1.0000 0.37800  0.83200  0.46000  Biso   1.000  H
  C89      1.0000 0.67750  0.26850  0.12930  Biso   1.000  C
  C90      1.0000 0.67750  0.23150  0.62930  Biso   1.000  C
  C91      1.0000 0.32250  0.73150  0.87070  Biso   1.000  C
  C92      1.0000 0.32250  0.76850  0.37070  Biso   1.000  C
  C93      1.0000 0.68930  0.18650  0.14650  Biso   1.000  C
  C94      1.0000 0.68930  0.31350  0.64650  Biso   1.000  C
  C95      1.0000 0.31070  0.81350  0.85350  Biso   1.000  C
  C96      1.0000 0.31070  0.68650  0.35350  Biso   1.000  C
  H73      1.0000 0.71700  0.17600  0.18500  Biso   1.000  H
  H74      1.0000 0.71700  0.32400  0.68500  Biso   1.000  H
  H75      1.0000 0.28300  0.82400  0.81500  Biso   1.000  H
  H76      1.0000 0.28300  0.67600  0.31500  Biso   1.000  H
  C97      1.0000 0.65440  0.12770  0.10010  Biso   1.000  C
  C98      1.0000 0.65440  0.37230  0.60010  Biso   1.000  C
  C99      1.0000 0.34560  0.87230  0.89990  Biso   1.000  C
  C100     1.0000 0.34560  0.62770  0.39990  Biso   1.000  C
  H77      1.0000 0.67300  0.07500  0.12100  Biso   1.000  H
  H78      1.0000 0.67300  0.42500  0.62100  Biso   1.000  H
  H79      1.0000 0.32700  0.92500  0.87900  Biso   1.000  H
  H80      1.0000 0.32700  0.57500  0.37900  Biso   1.000  H
  C101     1.0000 0.71420  0.33350  0.17860  Biso   1.000  C
  C102     1.0000 0.71420  0.16650  0.67860  Biso   1.000  C
  C103     1.0000 0.28580  0.66650  0.82140  Biso   1.000  C
  C104     1.0000 0.28580  0.83350  0.32140  Biso   1.000  C
  C105     1.0000 0.69930  0.41470  0.16140  Biso   1.000  C
  C106     1.0000 0.69930  0.08530  0.66140  Biso   1.000  C
  C107     1.0000 0.30070  0.58530  0.83860  Biso   1.000  C
  C108     1.0000 0.30070  0.91470  0.33860  Biso   1.000  C
  H81      1.0000 0.67100  0.44900  0.11400  Biso   1.000  H
  H82      1.0000 0.67100  0.05100  0.61400  Biso   1.000  H
  H83      1.0000 0.32900  0.55100  0.88600  Biso   1.000  H
  H84      1.0000 0.32900  0.94900  0.38600  Biso   1.000  H
  C109     1.0000 0.73020  0.47370  0.20780  Biso   1.000  C
  C110     1.0000 0.73020  0.02630  0.70780  Biso   1.000  C
  C111     1.0000 0.26980  0.52630  0.79220  Biso   1.000  C
  C112     1.0000 0.26980  0.97370  0.29220  Biso   1.000  C
  H85      1.0000 0.71200  0.52500  0.19700  Biso   1.000  H
  H86      1.0000 0.71200  0.97500  0.69700  Biso   1.000  H
  H87      1.0000 0.28800  0.47500  0.80300  Biso   1.000  H
  H88      1.0000 0.28800  0.02500  0.30300  Biso   1.000  H
  C113     1.0000 0.79430  0.37840  0.28990  Biso   1.000  C
  C114     1.0000 0.79430  0.12160  0.78990  Biso   1.000  C
  C115     1.0000 0.20570  0.62160  0.71010  Biso   1.000  C
  C116     1.0000 0.20570  0.87840  0.21010  Biso   1.000  C
  H89      1.0000 0.82200  0.37300  0.32300  Biso   1.000  H
  H90      1.0000 0.82200  0.12700  0.82300  Biso   1.000  H
  H91      1.0000 0.17800  0.62700  0.67700  Biso   1.000  H
  H92      1.0000 0.17800  0.87300  0.17700  Biso   1.000  H
  C117     1.0000 0.76380  0.31880  0.24480  Biso   1.000  C
  C118     1.0000 0.76380  0.18120  0.74480  Biso   1.000  C
  C119     1.0000 0.23620  0.68120  0.75520  Biso   1.000  C
  C120     1.0000 0.23620  0.81880  0.25520  Biso   1.000  C
  H93      1.0000 0.77900  0.26900  0.26400  Biso   1.000  H
  H94      1.0000 0.77900  0.23100  0.76400  Biso   1.000  H
  H95      1.0000 0.22100  0.73100  0.73600  Biso   1.000  H
  H96      1.0000 0.22100  0.76900  0.23600  Biso   1.000  H
  C121     1.0000 0.01160  0.35280  0.55150  Biso   1.000  C
  C122     1.0000 0.01160  0.14720  0.05150  Biso   1.000  C
  C123     1.0000 0.98840  0.64720  0.44850  Biso   1.000  C
  C124     1.0000 0.98840  0.85280  0.94850  Biso   1.000  C
  H97      1.0000 0.01800  0.40200  0.56100  Biso   1.000  H
  H98      1.0000 0.01800  0.09800  0.06100  Biso   1.000  H
  H99      1.0000 0.98200  0.59800  0.43900  Biso   1.000  H
  H100     1.0000 0.98200  0.90200  0.93900  Biso   1.000  H
  C125     1.0000 0.05280  0.30290  0.60390  Biso   1.000  C
  C126     1.0000 0.05280  0.19710  0.10390  Biso   1.000  C
  C127     1.0000 0.94720  0.69710  0.39610  Biso   1.000  C
  C128     1.0000 0.94720  0.80290  0.89610  Biso   1.000  C
  H101     1.0000 0.07900  0.32490  0.64670  Biso   1.000  H
  H102     1.0000 0.07900  0.17510  0.14670  Biso   1.000  H
  H103     1.0000 0.92100  0.67510  0.35330  Biso   1.000  H
  H104     1.0000 0.92100  0.82490  0.85330  Biso   1.000  H
  C129     1.0000 0.05600  0.22150  0.59440  Biso   1.000  C
  C130     1.0000 0.05600  0.27850  0.09440  Biso   1.000  C
  C131     1.0000 0.94400  0.77850  0.40560  Biso   1.000  C
  C132     1.0000 0.94400  0.72150  0.90560  Biso   1.000  C
  C133     1.0000 0.01930  0.19290  0.52920  Biso   1.000  C
  C134     1.0000 0.01930  0.30710  0.02920  Biso   1.000  C
  C135     1.0000 0.98070  0.80710  0.47080  Biso   1.000  C
  C136     1.0000 0.98070  0.69290  0.97080  Biso   1.000  C
  H105     1.0000 0.02600  0.13500  0.51300  Biso   1.000  H
  H106     1.0000 0.02600  0.36500  0.01300  Biso   1.000  H
  H107     1.0000 0.97400  0.86500  0.48700  Biso   1.000  H
  H108     1.0000 0.97400  0.63500  0.98700  Biso   1.000  H
  C137     1.0000 0.97860  0.24320  0.47720  Biso   1.000  C
  C138     1.0000 0.97860  0.25680  0.97720  Biso   1.000  C
  C139     1.0000 0.02140  0.75680  0.52280  Biso   1.000  C
  C140     1.0000 0.02140  0.74320  0.02280  Biso   1.000  C
  H109     1.0000 0.94600  0.22400  0.42500  Biso   1.000  H
  H110     1.0000 0.94600  0.27600  0.92500  Biso   1.000  H
  H111     1.0000 0.05400  0.77600  0.57500  Biso   1.000  H
  H112     1.0000 0.05400  0.72400  0.07500  Biso   1.000  H
  C141     1.0000 0.09970  0.16710  0.65100  Biso   1.000  C
  C142     1.0000 0.09970  0.33290  0.15100  Biso   1.000  C
  C143     1.0000 0.90030  0.83290  0.34900  Biso   1.000  C
  C144     1.0000 0.90030  0.66710  0.84900  Biso   1.000  C
  C145     1.0000 0.14360  0.19510  0.71590  Biso   1.000  C
  C146     1.0000 0.14360  0.30490  0.21590  Biso   1.000  C
  C147     1.0000 0.85640  0.80490  0.28410  Biso   1.000  C
  C148     1.0000 0.85640  0.69510  0.78410  Biso   1.000  C
  H113     1.0000 0.14000  0.24800  0.72600  Biso   1.000  H
  H114     1.0000 0.14000  0.25200  0.22600  Biso   1.000  H
  H115     1.0000 0.86000  0.75200  0.27400  Biso   1.000  H
  H116     1.0000 0.86000  0.74800  0.77400  Biso   1.000  H
  C149     1.0000 0.18380  0.14450  0.76570  Biso   1.000  C
  C150     1.0000 0.18380  0.35550  0.26570  Biso   1.000  C
  C151     1.0000 0.81620  0.85550  0.23430  Biso   1.000  C
  C152     1.0000 0.81620  0.64450  0.73430  Biso   1.000  C
  H117     1.0000 0.21100  0.16200  0.80400  Biso   1.000  H
  H118     1.0000 0.21100  0.33800  0.30400  Biso   1.000  H
  H119     1.0000 0.78900  0.83800  0.19600  Biso   1.000  H
  H120     1.0000 0.78900  0.66200  0.69600  Biso   1.000  H
  C153     1.0000 0.14210  0.03320  0.69470  Biso   1.000  C
  C154     1.0000 0.14210  0.46680  0.19470  Biso   1.000  C
  C155     1.0000 0.85790  0.96680  0.30530  Biso   1.000  C
  C156     1.0000 0.85790  0.53320  0.80530  Biso   1.000  C
  H121     1.0000 0.12600  0.96700  0.68700  Biso   1.000  H
  H122     1.0000 0.12600  0.53300  0.18700  Biso   1.000  H
  H123     1.0000 0.87400  0.03300  0.31300  Biso   1.000  H
  H124     1.0000 0.87400  0.46700  0.81300  Biso   1.000  H
  C157     1.0000 0.10150  0.08320  0.64210  Biso   1.000  C
  C158     1.0000 0.10150  0.41680  0.14210  Biso   1.000  C
  C159     1.0000 0.89850  0.91680  0.35790  Biso   1.000  C
  C160     1.0000 0.89850  0.58320  0.85790  Biso   1.000  C
  H125     1.0000 0.06900  0.05200  0.60500  Biso   1.000  H
  H126     1.0000 0.06900  0.44800  0.10500  Biso   1.000  H
  H127     1.0000 0.93100  0.94800  0.39500  Biso   1.000  H
  H128     1.0000 0.93100  0.55200  0.89500  Biso   1.000  H
  C161     1.0000 0.12570  0.64100  0.33450  Biso   1.000  C
  C162     1.0000 0.12570  0.85900  0.83450  Biso   1.000  C
  C163     1.0000 0.87430  0.35900  0.66550  Biso   1.000  C
  C164     1.0000 0.87430  0.14100  0.16550  Biso   1.000  C
  H129     1.0000 0.14500  0.58500  0.33300  Biso   1.000  H
  H130     1.0000 0.14500  0.91500  0.83300  Biso   1.000  H
  H131     1.0000 0.85500  0.41500  0.66700  Biso   1.000  H
  H132     1.0000 0.85500  0.08500  0.16700  Biso   1.000  H
  C165     1.0000 0.08210  0.69140  0.28320  Biso   1.000  C
  C166     1.0000 0.08210  0.80860  0.78320  Biso   1.000  C
  C167     1.0000 0.91790  0.30860  0.71680  Biso   1.000  C
  C168     1.0000 0.91790  0.19140  0.21680  Biso   1.000  C
  H133     1.0000 0.06100  0.67300  0.24000  Biso   1.000  H
  H134     1.0000 0.06100  0.82700  0.74000  Biso   1.000  H
  H135     1.0000 0.93900  0.32700  0.76000  Biso   1.000  H
  H136     1.0000 0.93900  0.17300  0.26000  Biso   1.000  H
  C169     1.0000 0.07130  0.77220  0.29480  Biso   1.000  C
  C170     1.0000 0.07130  0.72780  0.79480  Biso   1.000  C
  C171     1.0000 0.92870  0.22780  0.70520  Biso   1.000  C
  C172     1.0000 0.92870  0.27220  0.20520  Biso   1.000  C
  C173     1.0000 0.10650  0.79920  0.36140  Biso   1.000  C
  C174     1.0000 0.10650  0.70080  0.86140  Biso   1.000  C
  C175     1.0000 0.89350  0.20080  0.63860  Biso   1.000  C
  C176     1.0000 0.89350  0.29920  0.13860  Biso   1.000  C
  H137     1.0000 0.10300  0.87100  0.37200  Biso   1.000  H
  H138     1.0000 0.10300  0.62900  0.87200  Biso   1.000  H
  H139     1.0000 0.89700  0.12900  0.62800  Biso   1.000  H
  H140     1.0000 0.89700  0.37100  0.12800  Biso   1.000  H
  C177     1.0000 0.14810  0.74700  0.41330  Biso   1.000  C
  C178     1.0000 0.14810  0.75300  0.91330  Biso   1.000  C
  C179     1.0000 0.85190  0.25300  0.58670  Biso   1.000  C
  C180     1.0000 0.85190  0.24700  0.08670  Biso   1.000  C
  H141     1.0000 0.17500  0.76000  0.46000  Biso   1.000  H
  H142     1.0000 0.17500  0.74000  0.96000  Biso   1.000  H
  H143     1.0000 0.82500  0.24000  0.54000  Biso   1.000  H
  H144     1.0000 0.82500  0.26000  0.04000  Biso   1.000  H
  C181     1.0000 0.02880  0.82790  0.23880  Biso   1.000  C
  C182     1.0000 0.02880  0.67210  0.73880  Biso   1.000  C
  C183     1.0000 0.97120  0.17210  0.76120  Biso   1.000  C
  C184     1.0000 0.97120  0.32790  0.26120  Biso   1.000  C
  C185     1.0000 0.97610  0.79840  0.17730  Biso   1.000  C
  C186     1.0000 0.97610  0.70160  0.67730  Biso   1.000  C
  C187     1.0000 0.02390  0.20160  0.82270  Biso   1.000  C
  C188     1.0000 0.02390  0.29840  0.32270  Biso   1.000  C
  H145     1.0000 0.96300  0.73900  0.17000  Biso   1.000  H
  H146     1.0000 0.96300  0.76100  0.67000  Biso   1.000  H
  H147     1.0000 0.03700  0.26100  0.83000  Biso   1.000  H
  H148     1.0000 0.03700  0.23900  0.33000  Biso   1.000  H
  C189     1.0000 0.93850  0.85070  0.12480  Biso   1.000  C
  C190     1.0000 0.93850  0.64930  0.62480  Biso   1.000  C
  C191     1.0000 0.06150  0.14930  0.87520  Biso   1.000  C
  C192     1.0000 0.06150  0.35070  0.37520  Biso   1.000  C
  H149     1.0000 0.90900  0.83500  0.09100  Biso   1.000  H
  H150     1.0000 0.90900  0.66500  0.59100  Biso   1.000  H
  H151     1.0000 0.09100  0.16500  0.90900  Biso   1.000  H
  H152     1.0000 0.09100  0.33500  0.40900  Biso   1.000  H
  C193     1.0000 0.00170  0.96060  0.18970  Biso   1.000  C
  C194     1.0000 0.00170  0.53940  0.68970  Biso   1.000  C
  C195     1.0000 0.99830  0.03940  0.81030  Biso   1.000  C
  C196     1.0000 0.99830  0.46060  0.31030  Biso   1.000  C
  H153     1.0000 0.00600  0.02100  0.18500  Biso   1.000  H
  H154     1.0000 0.00600  0.47900  0.68500  Biso   1.000  H
  H155     1.0000 0.99400  0.97900  0.81500  Biso   1.000  H
  H156     1.0000 0.99400  0.52100  0.31500  Biso   1.000  H
  C197     1.0000 0.03980  0.91040  0.24320  Biso   1.000  C
  C198     1.0000 0.03980  0.58960  0.74320  Biso   1.000  C
  C199     1.0000 0.96020  0.08960  0.75680  Biso   1.000  C
  C200     1.0000 0.96020  0.41040  0.25680  Biso   1.000  C
  H157     1.0000 0.07100  0.93200  0.28100  Biso   1.000  H
  H158     1.0000 0.07100  0.56800  0.78100  Biso   1.000  H
  H159     1.0000 0.92900  0.06800  0.71900  Biso   1.000  H
  H160     1.0000 0.92900  0.43200  0.21900  Biso   1.000  H
