data_image0
_cell_length_a       6.3801
_cell_length_b       19.874
_cell_length_c       12.9164
_cell_angle_alpha    90
_cell_angle_beta     101.034
_cell_angle_gamma    90

_symmetry_space_group_name_H-M    "P 1"
_symmetry_int_tables_number       1

loop_
  _symmetry_equiv_pos_as_xyz
  'x, y, z'

loop_
  _atom_site_label
  _atom_site_occupancy
  _atom_site_fract_x
  _atom_site_fract_y
  _atom_site_fract_z
  _atom_site_thermal_displace_type
  _atom_site_B_iso_or_equiv
  _atom_site_type_symbol
  N1       1.0000 0.88620  0.50400  0.82040  Biso   1.000  N
  N2       1.0000 0.11380  0.00400  0.67960  Biso   1.000  N
  N3       1.0000 0.11380  0.49600  0.17960  Biso   1.000  N
  N4       1.0000 0.88620  0.99600  0.32040  Biso   1.000  N
  C1       1.0000 0.80120  0.44610  0.84780  Biso   1.000  C
  C2       1.0000 0.19880  0.94610  0.65220  Biso   1.000  C
  C3       1.0000 0.19880  0.55390  0.15220  Biso   1.000  C
  C4       1.0000 0.80120  0.05390  0.34780  Biso   1.000  C
  H1       1.0000 0.84190  0.40630  0.81940  Biso   1.000  H
  H2       1.0000 0.15810  0.90630  0.68060  Biso   1.000  H
  H3       1.0000 0.15810  0.59370  0.18060  Biso   1.000  H
  H4       1.0000 0.84190  0.09370  0.31940  Biso   1.000  H
  C5       1.0000 0.65670  0.44200  0.91560  Biso   1.000  C
  C6       1.0000 0.34330  0.94200  0.58440  Biso   1.000  C
  C7       1.0000 0.34330  0.55800  0.08440  Biso   1.000  C
  C8       1.0000 0.65670  0.05800  0.41560  Biso   1.000  C
  H5       1.0000 0.60240  0.40060  0.93120  Biso   1.000  H
  H6       1.0000 0.39760  0.90060  0.56880  Biso   1.000  H
  H7       1.0000 0.39760  0.59940  0.06880  Biso   1.000  H
  H8       1.0000 0.60240  0.09940  0.43120  Biso   1.000  H
  C9       1.0000 0.68610  0.55950  0.93410  Biso   1.000  C
  C10      1.0000 0.31390  0.05950  0.56590  Biso   1.000  C
  C11      1.0000 0.31390  0.44050  0.06590  Biso   1.000  C
  C12      1.0000 0.68610  0.94050  0.43410  Biso   1.000  C
  H9       1.0000 0.65230  0.59970  0.96380  Biso   1.000  H
  H10      1.0000 0.34770  0.09970  0.53620  Biso   1.000  H
  H11      1.0000 0.34770  0.40030  0.03620  Biso   1.000  H
  H12      1.0000 0.65230  0.90030  0.46380  Biso   1.000  H
  C13      1.0000 0.82680  0.55930  0.86510  Biso   1.000  C
  C14      1.0000 0.17320  0.05930  0.63490  Biso   1.000  C
  C15      1.0000 0.17320  0.44070  0.13490  Biso   1.000  C
  C16      1.0000 0.82680  0.94070  0.36510  Biso   1.000  C
  H13      1.0000 0.88320  0.60020  0.84880  Biso   1.000  H
  H14      1.0000 0.11680  0.10020  0.65120  Biso   1.000  H
  H15      1.0000 0.11680  0.39980  0.15120  Biso   1.000  H
  H16      1.0000 0.88320  0.89980  0.34880  Biso   1.000  H
  N5       1.0000 0.55850  0.49930  0.97290  Biso   1.000  N
  N6       1.0000 0.44150  0.99930  0.52710  Biso   1.000  N
  N7       1.0000 0.44150  0.50070  0.02710  Biso   1.000  N
  N8       1.0000 0.55850  0.00070  0.47290  Biso   1.000  N
  O1       1.0000 0.99080  0.48890  0.77690  Biso   1.000  O
  O2       1.0000 0.00920  0.98890  0.72310  Biso   1.000  O
  O3       1.0000 0.00920  0.51110  0.22310  Biso   1.000  O
  O4       1.0000 0.99080  0.01110  0.27690  Biso   1.000  O
  Cl1      1.0000 0.00020  0.72686  0.04451  Biso   1.000  Cl
  Cl2      1.0000 0.99980  0.22686  0.45549  Biso   1.000  Cl
  Cl3      1.0000 0.99980  0.27314  0.95549  Biso   1.000  Cl
  Cl4      1.0000 0.00020  0.77314  0.54451  Biso   1.000  Cl
  O5       1.0000 0.98880  0.79780  0.05480  Biso   1.000  O
  O6       1.0000 0.01120  0.29780  0.44520  Biso   1.000  O
  O7       1.0000 0.01120  0.20220  0.94520  Biso   1.000  O
  O8       1.0000 0.98880  0.70220  0.55480  Biso   1.000  O
  O9       1.0000 0.90850  0.70950  0.93960  Biso   1.000  O
  O10      1.0000 0.09150  0.20950  0.56040  Biso   1.000  O
  O11      1.0000 0.09150  0.29050  0.06040  Biso   1.000  O
  O12      1.0000 0.90850  0.79050  0.43960  Biso   1.000  O
  O13      1.0000 0.90870  0.68750  0.11600  Biso   1.000  O
  O14      1.0000 0.09130  0.18750  0.38400  Biso   1.000  O
  O15      1.0000 0.09130  0.31250  0.88400  Biso   1.000  O
  O16      1.0000 0.90870  0.81250  0.61600  Biso   1.000  O
  O17      1.0000 0.22710  0.70740  0.05490  Biso   1.000  O
  O18      1.0000 0.77290  0.20740  0.44510  Biso   1.000  O
  O19      1.0000 0.77290  0.29260  0.94510  Biso   1.000  O
  O20      1.0000 0.22710  0.79260  0.55490  Biso   1.000  O
  Cu1      1.0000 0.50000  0.50000  0.50000  Biso   1.000  Cu
  Cu2      1.0000 0.50000  0.00000  0.00000  Biso   1.000  Cu
  N9       1.0000 0.47750  0.58579  0.41510  Biso   1.000  N
  N10      1.0000 0.52250  0.08579  0.08490  Biso   1.000  N
  N11      1.0000 0.52250  0.41421  0.58490  Biso   1.000  N
  N12      1.0000 0.47750  0.91421  0.91510  Biso   1.000  N
  C17      1.0000 0.63530  0.60600  0.36780  Biso   1.000  C
  C18      1.0000 0.36470  0.10600  0.13220  Biso   1.000  C
  C19      1.0000 0.36470  0.39400  0.63220  Biso   1.000  C
  C20      1.0000 0.63530  0.89400  0.86780  Biso   1.000  C
  H17      1.0000 0.74960  0.57710  0.36740  Biso   1.000  H
  H18      1.0000 0.25040  0.07710  0.13260  Biso   1.000  H
  H19      1.0000 0.25040  0.42290  0.63260  Biso   1.000  H
  H20      1.0000 0.74960  0.92290  0.86740  Biso   1.000  H
  C21      1.0000 0.63660  0.66820  0.31930  Biso   1.000  C
  C22      1.0000 0.36340  0.16820  0.18070  Biso   1.000  C
  C23      1.0000 0.36340  0.33180  0.68070  Biso   1.000  C
  C24      1.0000 0.63660  0.83180  0.81930  Biso   1.000  C
  H21      1.0000 0.75080  0.68090  0.28840  Biso   1.000  H
  H22      1.0000 0.24920  0.18090  0.21160  Biso   1.000  H
  H23      1.0000 0.24920  0.31910  0.71160  Biso   1.000  H
  H24      1.0000 0.75080  0.81910  0.78840  Biso   1.000  H
  C25      1.0000 0.46510  0.71100  0.31760  Biso   1.000  C
  C26      1.0000 0.53490  0.21100  0.18240  Biso   1.000  C
  C27      1.0000 0.53490  0.28900  0.68240  Biso   1.000  C
  C28      1.0000 0.46510  0.78900  0.81760  Biso   1.000  C
  C29      1.0000 0.29640  0.68900  0.36210  Biso   1.000  C
  C30      1.0000 0.70360  0.18900  0.13790  Biso   1.000  C
  C31      1.0000 0.70360  0.31100  0.63790  Biso   1.000  C
  C32      1.0000 0.29640  0.81100  0.86210  Biso   1.000  C
  H25      1.0000 0.17550  0.71560  0.35910  Biso   1.000  H
  H26      1.0000 0.82450  0.21560  0.14090  Biso   1.000  H
  H27      1.0000 0.82450  0.28440  0.64090  Biso   1.000  H
  H28      1.0000 0.17550  0.78440  0.85910  Biso   1.000  H
  C33      1.0000 0.31080  0.62720  0.41070  Biso   1.000  C
  C34      1.0000 0.68920  0.12720  0.08930  Biso   1.000  C
  C35      1.0000 0.68920  0.37280  0.58930  Biso   1.000  C
  C36      1.0000 0.31080  0.87280  0.91070  Biso   1.000  C
  H29      1.0000 0.19860  0.61340  0.44220  Biso   1.000  H
  H30      1.0000 0.80140  0.11340  0.05780  Biso   1.000  H
  H31      1.0000 0.80140  0.38660  0.55780  Biso   1.000  H
  H32      1.0000 0.19860  0.88660  0.94220  Biso   1.000  H
  N13      1.0000 0.45970  0.77671  0.27090  Biso   1.000  N
  N14      1.0000 0.54030  0.27671  0.22910  Biso   1.000  N
  N15      1.0000 0.54030  0.22329  0.72910  Biso   1.000  N
  N16      1.0000 0.45970  0.72329  0.77090  Biso   1.000  N
  C37      1.0000 0.58120  0.79150  0.19770  Biso   1.000  C
  C38      1.0000 0.41880  0.29150  0.30230  Biso   1.000  C
  C39      1.0000 0.41880  0.20850  0.80230  Biso   1.000  C
  C40      1.0000 0.58120  0.70850  0.69770  Biso   1.000  C
  H33      1.0000 0.67430  0.75890  0.18110  Biso   1.000  H
  H34      1.0000 0.32570  0.25890  0.31890  Biso   1.000  H
  H35      1.0000 0.32570  0.24110  0.81890  Biso   1.000  H
  H36      1.0000 0.67430  0.74110  0.68110  Biso   1.000  H
  C41      1.0000 0.57100  0.85180  0.14850  Biso   1.000  C
  C42      1.0000 0.42900  0.35180  0.35150  Biso   1.000  C
  C43      1.0000 0.42900  0.14820  0.85150  Biso   1.000  C
  C44      1.0000 0.57100  0.64820  0.64850  Biso   1.000  C
  H37      1.0000 0.66150  0.86060  0.10170  Biso   1.000  H
  H38      1.0000 0.33850  0.36060  0.39830  Biso   1.000  H
  H39      1.0000 0.33850  0.13940  0.89830  Biso   1.000  H
  H40      1.0000 0.66150  0.63940  0.60170  Biso   1.000  H
  C45      1.0000 0.42440  0.90160  0.16730  Biso   1.000  C
  C46      1.0000 0.57560  0.40160  0.33270  Biso   1.000  C
  C47      1.0000 0.57560  0.09840  0.83270  Biso   1.000  C
  C48      1.0000 0.42440  0.59840  0.66730  Biso   1.000  C
  C49      1.0000 0.31100  0.88640  0.24920  Biso   1.000  C
  C50      1.0000 0.68900  0.38640  0.25080  Biso   1.000  C
  C51      1.0000 0.68900  0.11360  0.75080  Biso   1.000  C
  C52      1.0000 0.31100  0.61360  0.74920  Biso   1.000  C
  H41      1.0000 0.22160  0.91880  0.26950  Biso   1.000  H
  H42      1.0000 0.77840  0.41880  0.23050  Biso   1.000  H
  H43      1.0000 0.77840  0.08120  0.73050  Biso   1.000  H
  H44      1.0000 0.22160  0.58120  0.76950  Biso   1.000  H
  C53      1.0000 0.33030  0.82610  0.29790  Biso   1.000  C
  C54      1.0000 0.66970  0.32610  0.20210  Biso   1.000  C
  C55      1.0000 0.66970  0.17390  0.70210  Biso   1.000  C
  C56      1.0000 0.33030  0.67390  0.79790  Biso   1.000  C
  H45      1.0000 0.25390  0.81780  0.35110  Biso   1.000  H
  H46      1.0000 0.74610  0.31780  0.14890  Biso   1.000  H
  H47      1.0000 0.74610  0.18220  0.64890  Biso   1.000  H
  H48      1.0000 0.25390  0.68220  0.85110  Biso   1.000  H
  O21      1.0000 0.38860  0.54297  0.61650  Biso   1.000  O
  O22      1.0000 0.61140  0.04297  0.88350  Biso   1.000  O
  O23      1.0000 0.61140  0.45703  0.38350  Biso   1.000  O
  O24      1.0000 0.38860  0.95703  0.11650  Biso   1.000  O
  O25      1.0000 0.12050  0.47790  0.41760  Biso   1.000  O
  O26      1.0000 0.87950  0.97790  0.08240  Biso   1.000  O
  O27      1.0000 0.87950  0.52210  0.58240  Biso   1.000  O
  O28      1.0000 0.12050  0.02210  0.91760  Biso   1.000  O
  H49      1.0000 0.99970  0.46600  0.43910  Biso   1.000  H
  H50      1.0000 0.00030  0.96600  0.06090  Biso   1.000  H
  H51      1.0000 0.00030  0.53400  0.56090  Biso   1.000  H
  H52      1.0000 0.99970  0.03400  0.93910  Biso   1.000  H
  H53      1.0000 0.08200  0.48420  0.34750  Biso   1.000  H
  H54      1.0000 0.91800  0.98420  0.15250  Biso   1.000  H
  H55      1.0000 0.91800  0.51580  0.65250  Biso   1.000  H
  H56      1.0000 0.08200  0.01580  0.84750  Biso   1.000  H
  C57      1.0000 0.59560  0.50000  0.95910  Biso   1.000  C
  C58      1.0000 0.40440  0.00000  0.54090  Biso   1.000  C
  C59      1.0000 0.40440  0.50000  0.04090  Biso   1.000  C
  C60      1.0000 0.59560  0.00000  0.45910  Biso   1.000  C
  C61      1.0000 0.29790  0.44970  0.03150  Biso   1.000  C
  C62      1.0000 0.70210  0.94970  0.46850  Biso   1.000  C
  C63      1.0000 0.70210  0.55030  0.96850  Biso   1.000  C
  C64      1.0000 0.29790  0.05030  0.53150  Biso   1.000  C
  H57      1.0000 0.29870  0.41250  0.98780  Biso   1.000  H
  H58      1.0000 0.70130  0.91250  0.51220  Biso   1.000  H
  H59      1.0000 0.70130  0.58750  0.01220  Biso   1.000  H
  H60      1.0000 0.29870  0.08750  0.48780  Biso   1.000  H
  C65      1.0000 0.15490  0.45140  0.09710  Biso   1.000  C
  C66      1.0000 0.84510  0.95140  0.40290  Biso   1.000  C
  C67      1.0000 0.84510  0.54860  0.90290  Biso   1.000  C
  C68      1.0000 0.15490  0.04860  0.59710  Biso   1.000  C
  H61      1.0000 0.06250  0.41530  0.09770  Biso   1.000  H
  H62      1.0000 0.93750  0.91530  0.40230  Biso   1.000  H
  H63      1.0000 0.93750  0.58470  0.90230  Biso   1.000  H
  H64      1.0000 0.06250  0.08470  0.59770  Biso   1.000  H
  C69      1.0000 0.14350  0.50620  0.16370  Biso   1.000  C
  C70      1.0000 0.85650  0.00620  0.33630  Biso   1.000  C
  C71      1.0000 0.85650  0.49380  0.83630  Biso   1.000  C
  C72      1.0000 0.14350  0.99380  0.66370  Biso   1.000  C
  C73      1.0000 0.28960  0.55850  0.15600  Biso   1.000  C
  C74      1.0000 0.71040  0.05850  0.34400  Biso   1.000  C
  C75      1.0000 0.71040  0.44150  0.84400  Biso   1.000  C
  C76      1.0000 0.28960  0.94150  0.65600  Biso   1.000  C
  H65      1.0000 0.28600  0.59730  0.19600  Biso   1.000  H
  H66      1.0000 0.71400  0.09730  0.30400  Biso   1.000  H
  H67      1.0000 0.71400  0.40270  0.80400  Biso   1.000  H
  H68      1.0000 0.28600  0.90270  0.69600  Biso   1.000  H
  C77      1.0000 0.43410  0.55420  0.09270  Biso   1.000  C
  C78      1.0000 0.56590  0.05420  0.40730  Biso   1.000  C
  C79      1.0000 0.56590  0.44580  0.90730  Biso   1.000  C
  C80      1.0000 0.43410  0.94580  0.59270  Biso   1.000  C
  H69      1.0000 0.53240  0.58880  0.09370  Biso   1.000  H
  H70      1.0000 0.46760  0.08880  0.40630  Biso   1.000  H
  H71      1.0000 0.46760  0.41120  0.90630  Biso   1.000  H
  H72      1.0000 0.53240  0.91120  0.59370  Biso   1.000  H
  O29      1.0000 0.76570  0.71420  0.99890  Biso   1.000  O
  O30      1.0000 0.23430  0.21420  0.50110  Biso   1.000  O
  O31      1.0000 0.23430  0.28580  0.00110  Biso   1.000  O
  O32      1.0000 0.76570  0.78580  0.49890  Biso   1.000  O
  O33      1.0000 0.00000  0.71270  0.15540  Biso   1.000  O
  O34      1.0000 0.00000  0.21270  0.34460  Biso   1.000  O
  O35      1.0000 0.00000  0.28730  0.84460  Biso   1.000  O
  O36      1.0000 1.00000  0.78730  0.65540  Biso   1.000  O
  O37      1.0000 0.12360  0.69730  0.99590  Biso   1.000  O
  O38      1.0000 0.87640  0.19730  0.50410  Biso   1.000  O
  O39      1.0000 0.87640  0.30270  0.00410  Biso   1.000  O
  O40      1.0000 0.12360  0.80270  0.49590  Biso   1.000  O
