data_image0
_cell_length_a       9.4686
_cell_length_b       11.8434
_cell_length_c       12.3923
_cell_angle_alpha    117.656
_cell_angle_beta     94.288
_cell_angle_gamma    97.946

_symmetry_space_group_name_H-M    "P 1"
_symmetry_int_tables_number       1

loop_
  _symmetry_equiv_pos_as_xyz
  'x, y, z'

loop_
  _atom_site_label
  _atom_site_occupancy
  _atom_site_fract_x
  _atom_site_fract_y
  _atom_site_fract_z
  _atom_site_thermal_displace_type
  _atom_site_B_iso_or_equiv
  _atom_site_type_symbol
  Cu1      1.0000 0.50000  0.50000  0.00000  Biso   1.000  Cu
  Cu2      1.0000 0.84459  0.27679  0.97193  Biso   1.000  Cu
  Cu3      1.0000 0.15541  0.72321  0.02807  Biso   1.000  Cu
  P1       1.0000 0.60581  0.32713  0.11671  Biso   1.000  P
  P2       1.0000 0.39419  0.67287  0.88329  Biso   1.000  P
  P3       1.0000 0.14399  0.43089  0.06996  Biso   1.000  P
  P4       1.0000 0.85601  0.56911  0.93004  Biso   1.000  P
  O1       1.0000 0.65850  0.22560  0.00670  Biso   1.000  O
  O2       1.0000 0.34150  0.77440  0.99330  Biso   1.000  O
  O3       1.0000 0.49180  0.38500  0.07530  Biso   1.000  O
  O4       1.0000 0.50820  0.61500  0.92470  Biso   1.000  O
  O5       1.0000 0.55040  0.27470  0.19730  Biso   1.000  O
  O6       1.0000 0.44960  0.72530  0.80270  Biso   1.000  O
  O7       1.0000 0.04230  0.32270  0.95620  Biso   1.000  O
  O8       1.0000 0.95770  0.67730  0.04380  Biso   1.000  O
  O9       1.0000 0.23740  0.52800  0.04860  Biso   1.000  O
  O10      1.0000 0.76260  0.47200  0.95140  Biso   1.000  O
  O11      1.0000 0.23640  0.36810  0.13110  Biso   1.000  O
  O12      1.0000 0.76360  0.63190  0.86890  Biso   1.000  O
  O13      1.0000 0.93930  0.08540  0.96630  Biso   1.000  O
  O14      1.0000 0.06070  0.91460  0.03370  Biso   1.000  O
  N1       1.0000 0.56210  0.65710  0.17090  Biso   1.000  N
  N2       1.0000 0.43790  0.34290  0.82910  Biso   1.000  N
  N3       1.0000 0.78330  0.15500  0.78830  Biso   1.000  N
  N4       1.0000 0.21670  0.84500  0.21170  Biso   1.000  N
  N5       1.0000 0.89900  0.40520  0.16250  Biso   1.000  N
  N6       1.0000 0.10100  0.59480  0.83750  Biso   1.000  N
  C1       1.0000 0.76690  0.45770  0.19600  Biso   1.000  C
  C2       1.0000 0.23310  0.54230  0.80400  Biso   1.000  C
  H1       1.0000 0.76190  0.52640  0.17240  Biso   1.000  H
  H2       1.0000 0.23810  0.47360  0.82760  Biso   1.000  H
  H3       1.0000 0.76970  0.49710  0.28640  Biso   1.000  H
  H4       1.0000 0.23030  0.50290  0.71360  Biso   1.000  H
  C3       1.0000 0.02200  0.50500  0.17670  Biso   1.000  C
  C4       1.0000 0.97800  0.49500  0.82330  Biso   1.000  C
  H5       1.0000 0.07430  0.54890  0.26240  Biso   1.000  H
  H6       1.0000 0.92570  0.45110  0.73760  Biso   1.000  H
  H7       1.0000 0.98590  0.57120  0.16070  Biso   1.000  H
  H8       1.0000 0.01410  0.42880  0.83930  Biso   1.000  H
  C5       1.0000 0.93580  0.33380  0.23210  Biso   1.000  C
  C6       1.0000 0.06420  0.66620  0.76790  Biso   1.000  C
  H9       1.0000 0.01980  0.29360  0.20260  Biso   1.000  H
  H10      1.0000 0.98020  0.70640  0.79740  Biso   1.000  H
  H11      1.0000 0.85320  0.26300  0.21330  Biso   1.000  H
  H12      1.0000 0.14680  0.73700  0.78670  Biso   1.000  H
  C7       1.0000 0.97060  0.42020  0.37020  Biso   1.000  C
  C8       1.0000 0.02940  0.57980  0.62980  Biso   1.000  C
  C9       1.0000 0.86040  0.43240  0.44250  Biso   1.000  C
  C10      1.0000 0.13960  0.56760  0.55750  Biso   1.000  C
  H13      1.0000 0.76480  0.38580  0.40430  Biso   1.000  H
  H14      1.0000 0.23520  0.61420  0.59570  Biso   1.000  H
  C11      1.0000 0.10940  0.48750  0.42980  Biso   1.000  C
  C12      1.0000 0.89060  0.51250  0.57020  Biso   1.000  C
  H15      1.0000 0.18570  0.47870  0.38270  Biso   1.000  H
  H16      1.0000 0.81430  0.52130  0.61730  Biso   1.000  H
  C13      1.0000 0.50530  0.65340  0.26620  Biso   1.000  C
  C14      1.0000 0.49470  0.34660  0.73380  Biso   1.000  C
  H17      1.0000 0.43320  0.58070  0.25000  Biso   1.000  H
  H18      1.0000 0.56680  0.41930  0.75000  Biso   1.000  H
  C15      1.0000 0.54850  0.75190  0.38690  Biso   1.000  C
  C16      1.0000 0.45150  0.24810  0.61310  Biso   1.000  C
  H19      1.0000 0.50810  0.74570  0.45230  Biso   1.000  H
  H20      1.0000 0.49190  0.25430  0.54770  Biso   1.000  H
  C17      1.0000 0.65180  0.86000  0.41110  Biso   1.000  C
  C18      1.0000 0.34820  0.14000  0.58890  Biso   1.000  C
  C19      1.0000 0.70750  0.86290  0.31300  Biso   1.000  C
  C20      1.0000 0.29250  0.13710  0.68700  Biso   1.000  C
  H21      1.0000 0.77880  0.93490  0.32650  Biso   1.000  H
  H22      1.0000 0.22120  0.06510  0.67350  Biso   1.000  H
  C21      1.0000 0.65970  0.76030  0.19380  Biso   1.000  C
  C22      1.0000 0.34030  0.23970  0.80620  Biso   1.000  C
  H23      1.0000 0.69820  0.76460  0.12690  Biso   1.000  H
  H24      1.0000 0.30180  0.23540  0.87310  Biso   1.000  H
  C23      1.0000 0.69580  0.96750  0.54100  Biso   1.000  C
  C24      1.0000 0.30420  0.03250  0.45900  Biso   1.000  C
  C25      1.0000 0.82990  0.05200  0.58290  Biso   1.000  C
  C26      1.0000 0.17010  0.94800  0.41710  Biso   1.000  C
  H25      1.0000 0.89490  0.04690  0.52680  Biso   1.000  H
  H26      1.0000 0.10510  0.95310  0.47320  Biso   1.000  H
  C27      1.0000 0.86740  0.14270  0.70580  Biso   1.000  C
  C28      1.0000 0.13260  0.85730  0.29420  Biso   1.000  C
  H27      1.0000 0.95910  0.19920  0.73220  Biso   1.000  H
  H28      1.0000 0.04090  0.80080  0.26780  Biso   1.000  H
  C29      1.0000 0.65110  0.08040  0.74710  Biso   1.000  C
  C30      1.0000 0.34890  0.91960  0.25290  Biso   1.000  C
  H29      1.0000 0.58540  0.09330  0.80410  Biso   1.000  H
  H30      1.0000 0.41460  0.90670  0.19590  Biso   1.000  H
  C31      1.0000 0.60550  0.98610  0.62670  Biso   1.000  C
  C32      1.0000 0.39450  0.01390  0.37330  Biso   1.000  C
  H31      1.0000 0.51140  0.93390  0.60280  Biso   1.000  H
  H32      1.0000 0.48860  0.06610  0.39720  Biso   1.000  H
