data_image0
_cell_length_a       9.5516
_cell_length_b       12.9047
_cell_length_c       13.982
_cell_angle_alpha    75.544
_cell_angle_beta     89.628
_cell_angle_gamma    75.697

_symmetry_space_group_name_H-M    "P 1"
_symmetry_int_tables_number       1

loop_
  _symmetry_equiv_pos_as_xyz
  'x, y, z'

loop_
  _atom_site_label
  _atom_site_occupancy
  _atom_site_fract_x
  _atom_site_fract_y
  _atom_site_fract_z
  _atom_site_thermal_displace_type
  _atom_site_B_iso_or_equiv
  _atom_site_type_symbol
  Cu1      1.0000 0.00000  0.50000  0.00000  Biso   1.000  Cu
  Cu2      1.0000 0.67499  0.33969  0.13123  Biso   1.000  Cu
  Cu3      1.0000 0.32501  0.66031  0.86877  Biso   1.000  Cu
  P1       1.0000 0.90710  0.41032  0.21613  Biso   1.000  P
  P2       1.0000 0.09290  0.58968  0.78387  Biso   1.000  P
  P3       1.0000 0.36560  0.46840  0.10745  Biso   1.000  P
  P4       1.0000 0.63440  0.53160  0.89255  Biso   1.000  P
  O1       1.0000 0.86480  0.31200  0.19370  Biso   1.000  O
  O2       1.0000 0.13520  0.68800  0.80630  Biso   1.000  O
  O3       1.0000 0.01780  0.45170  0.14090  Biso   1.000  O
  O4       1.0000 0.98220  0.54830  0.85910  Biso   1.000  O
  O5       1.0000 0.96380  0.38860  0.32020  Biso   1.000  O
  O6       1.0000 0.03620  0.61140  0.67980  Biso   1.000  O
  O7       1.0000 0.47160  0.36360  0.09580  Biso   1.000  O
  O8       1.0000 0.52840  0.63640  0.90420  Biso   1.000  O
  O9       1.0000 0.27580  0.43910  0.20130  Biso   1.000  O
  O10      1.0000 0.72420  0.56090  0.79870  Biso   1.000  O
  O11      1.0000 0.26810  0.53330  0.01730  Biso   1.000  O
  O12      1.0000 0.73190  0.46670  0.98270  Biso   1.000  O
  N1       1.0000 0.61320  0.47030  0.19720  Biso   1.000  N
  N2       1.0000 0.38680  0.52970  0.80280  Biso   1.000  N
  N3       1.0000 0.06500  0.34280  0.98870  Biso   1.000  N
  N4       1.0000 0.93500  0.65720  0.01130  Biso   1.000  N
  N5       1.0000 0.26940  0.80400  0.90770  Biso   1.000  N
  N6       1.0000 0.73060  0.19600  0.09230  Biso   1.000  N
  C1       1.0000 0.48080  0.54840  0.14080  Biso   1.000  C
  C2       1.0000 0.51920  0.45160  0.85920  Biso   1.000  C
  H1       1.0000 0.50800  0.59640  0.08030  Biso   1.000  H
  H2       1.0000 0.49200  0.40360  0.91970  Biso   1.000  H
  H3       1.0000 0.42840  0.59610  0.18190  Biso   1.000  H
  H4       1.0000 0.57160  0.40390  0.81810  Biso   1.000  H
  C3       1.0000 0.74010  0.51920  0.18850  Biso   1.000  C
  C4       1.0000 0.25990  0.48080  0.81150  Biso   1.000  C
  H5       1.0000 0.73370  0.56640  0.23510  Biso   1.000  H
  H6       1.0000 0.26630  0.43360  0.76490  Biso   1.000  H
  H7       1.0000 0.73950  0.56610  0.12060  Biso   1.000  H
  H8       1.0000 0.26050  0.43390  0.87940  Biso   1.000  H
  C5       1.0000 0.58890  0.42290  0.30400  Biso   1.000  C
  C6       1.0000 0.41110  0.57710  0.69600  Biso   1.000  C
  H9       1.0000 0.67740  0.36600  0.33510  Biso   1.000  H
  H10      1.0000 0.32260  0.63400  0.66490  Biso   1.000  H
  H11      1.0000 0.50900  0.38600  0.30710  Biso   1.000  H
  H12      1.0000 0.49100  0.61400  0.69290  Biso   1.000  H
  C7       1.0000 0.55160  0.51110  0.36370  Biso   1.000  C
  C8       1.0000 0.44840  0.48890  0.63630  Biso   1.000  C
  H13      1.0000 0.46420  0.56940  0.33300  Biso   1.000  H
  H14      1.0000 0.53580  0.43060  0.66700  Biso   1.000  H
  H15      1.0000 0.63280  0.54610  0.36450  Biso   1.000  H
  H16      1.0000 0.36720  0.45390  0.63550  Biso   1.000  H
  C9       1.0000 0.52410  0.45240  0.47080  Biso   1.000  C
  C10      1.0000 0.47590  0.54760  0.52920  Biso   1.000  C
  H17      1.0000 0.61320  0.39740  0.50320  Biso   1.000  H
  H18      1.0000 0.38680  0.60260  0.49680  Biso   1.000  H
  H19      1.0000 0.44670  0.41380  0.47000  Biso   1.000  H
  H20      1.0000 0.55330  0.58620  0.53000  Biso   1.000  H
  C11      1.0000 0.16490  0.26280  0.04830  Biso   1.000  C
  C12      1.0000 0.83510  0.73720  0.95170  Biso   1.000  C
  H21      1.0000 0.20720  0.28040  0.10150  Biso   1.000  H
  H22      1.0000 0.79280  0.71960  0.89850  Biso   1.000  H
  C13      1.0000 0.21200  0.15570  0.03860  Biso   1.000  C
  C14      1.0000 0.78800  0.84430  0.96140  Biso   1.000  C
  H23      1.0000 0.28520  0.10280  0.08330  Biso   1.000  H
  H24      1.0000 0.71480  0.89720  0.91670  Biso   1.000  H
  C15      1.0000 0.15070  0.12700  0.96260  Biso   1.000  C
  C16      1.0000 0.84930  0.87300  0.03740  Biso   1.000  C
  C17      1.0000 0.04550  0.21070  0.89840  Biso   1.000  C
  C18      1.0000 0.95450  0.78930  0.10160  Biso   1.000  C
  H25      1.0000 0.00070  0.19560  0.84470  Biso   1.000  H
  H26      1.0000 0.99930  0.80440  0.15530  Biso   1.000  H
  C19      1.0000 0.00840  0.31410  0.91430  Biso   1.000  C
  C20      1.0000 0.99160  0.68590  0.08570  Biso   1.000  C
  H27      1.0000 0.93770  0.36960  0.86960  Biso   1.000  H
  H28      1.0000 0.06230  0.63040  0.13040  Biso   1.000  H
  C21      1.0000 0.35790  0.83490  0.96380  Biso   1.000  C
  C22      1.0000 0.64210  0.16510  0.03620  Biso   1.000  C
  H29      1.0000 0.44730  0.78400  0.99020  Biso   1.000  H
  H30      1.0000 0.55270  0.21600  0.00980  Biso   1.000  H
  C23      1.0000 0.32470  0.93730  0.98470  Biso   1.000  C
  C24      1.0000 0.67530  0.06270  0.01530  Biso   1.000  C
  H31      1.0000 0.39070  0.95600  0.02410  Biso   1.000  H
  H32      1.0000 0.60930  0.04400  0.97590  Biso   1.000  H
  C25      1.0000 0.19390  0.01250  0.94750  Biso   1.000  C
  C26      1.0000 0.80610  0.98750  0.05250  Biso   1.000  C
  C27      1.0000 0.10270  0.97790  0.89470  Biso   1.000  C
  C28      1.0000 0.89730  0.02210  0.10530  Biso   1.000  C
  H33      1.0000 0.01080  0.02580  0.87000  Biso   1.000  H
  H34      1.0000 0.98920  0.97420  0.13000  Biso   1.000  H
  C29      1.0000 0.14230  0.87400  0.87660  Biso   1.000  C
  C30      1.0000 0.85770  0.12600  0.12340  Biso   1.000  C
  H35      1.0000 0.07550  0.85230  0.84060  Biso   1.000  H
  H36      1.0000 0.92450  0.14770  0.15940  Biso   1.000  H
