data_image0
_cell_length_a       13.901
_cell_length_b       9.5384
_cell_length_c       26.6923
_cell_angle_alpha    90
_cell_angle_beta     96.326
_cell_angle_gamma    90

_symmetry_space_group_name_H-M    "P 1"
_symmetry_int_tables_number       1

loop_
  _symmetry_equiv_pos_as_xyz
  'x, y, z'

loop_
  _atom_site_label
  _atom_site_occupancy
  _atom_site_fract_x
  _atom_site_fract_y
  _atom_site_fract_z
  _atom_site_thermal_displace_type
  _atom_site_B_iso_or_equiv
  _atom_site_type_symbol
  C1       1.0000 0.98550  0.21940  0.32920  Biso   1.000  C
  C2       1.0000 0.51450  0.71940  0.17080  Biso   1.000  C
  C3       1.0000 0.01450  0.78060  0.67080  Biso   1.000  C
  C4       1.0000 0.48550  0.28060  0.82920  Biso   1.000  C
  H1       1.0000 0.03440  0.28630  0.33310  Biso   1.000  H
  H2       1.0000 0.46560  0.78630  0.16690  Biso   1.000  H
  H3       1.0000 0.96560  0.71370  0.66690  Biso   1.000  H
  H4       1.0000 0.53440  0.21370  0.83310  Biso   1.000  H
  C5       1.0000 0.92120  0.22890  0.28630  Biso   1.000  C
  C6       1.0000 0.57880  0.72890  0.21370  Biso   1.000  C
  C7       1.0000 0.07880  0.77110  0.71370  Biso   1.000  C
  C8       1.0000 0.42120  0.27110  0.78630  Biso   1.000  C
  H5       1.0000 0.92580  0.30530  0.26510  Biso   1.000  H
  H6       1.0000 0.57420  0.80530  0.23490  Biso   1.000  H
  H7       1.0000 0.07420  0.69470  0.73490  Biso   1.000  H
  H8       1.0000 0.42580  0.19470  0.76510  Biso   1.000  H
  C9       1.0000 0.84820  0.05200  0.31110  Biso   1.000  C
  C10      1.0000 0.65180  0.55200  0.18890  Biso   1.000  C
  C11      1.0000 0.15180  0.94800  0.68890  Biso   1.000  C
  C12      1.0000 0.34820  0.44800  0.81110  Biso   1.000  C
  H9       1.0000 0.80130  0.98190  0.30680  Biso   1.000  H
  H10      1.0000 0.69870  0.48190  0.19320  Biso   1.000  H
  H11      1.0000 0.19870  0.01810  0.69320  Biso   1.000  H
  H12      1.0000 0.30130  0.51810  0.80680  Biso   1.000  H
  C13      1.0000 0.90620  0.05920  0.35550  Biso   1.000  C
  C14      1.0000 0.59380  0.55920  0.14450  Biso   1.000  C
  C15      1.0000 0.09380  0.94080  0.64450  Biso   1.000  C
  C16      1.0000 0.40620  0.44080  0.85550  Biso   1.000  C
  H13      1.0000 0.88600  0.00900  0.38230  Biso   1.000  H
  H14      1.0000 0.61400  0.50900  0.11770  Biso   1.000  H
  H15      1.0000 0.11400  0.99100  0.61770  Biso   1.000  H
  H16      1.0000 0.38600  0.49100  0.88230  Biso   1.000  H
  Cu1      1.0000 0.42168  0.62301  0.07446  Biso   1.000  Cu
  Cu2      1.0000 0.07832  0.12301  0.42554  Biso   1.000  Cu
  Cu3      1.0000 0.57832  0.37699  0.92554  Biso   1.000  Cu
  Cu4      1.0000 0.92168  0.87699  0.57446  Biso   1.000  Cu
  Cu5      1.0000 0.50000  0.00000  0.00000  Biso   1.000  Cu
  Cu6      1.0000 0.00000  0.50000  0.50000  Biso   1.000  Cu
  P1       1.0000 0.40144  0.35908  0.01348  Biso   1.000  P
  P2       1.0000 0.09856  0.85908  0.48652  Biso   1.000  P
  P3       1.0000 0.59856  0.64092  0.98652  Biso   1.000  P
  P4       1.0000 0.90144  0.14092  0.51348  Biso   1.000  P
  P5       1.0000 0.31482  0.88331  0.04526  Biso   1.000  P
  P6       1.0000 0.18518  0.38331  0.45474  Biso   1.000  P
  P7       1.0000 0.68518  0.11669  0.95474  Biso   1.000  P
  P8       1.0000 0.81482  0.61669  0.54526  Biso   1.000  P
  N1       1.0000 0.98470  0.12720  0.36440  Biso   1.000  N
  N2       1.0000 0.51530  0.62720  0.13560  Biso   1.000  N
  N3       1.0000 0.01530  0.87280  0.63560  Biso   1.000  N
  N4       1.0000 0.48470  0.37280  0.86440  Biso   1.000  N
  O1       1.0000 0.31570  0.25960  0.02420  Biso   1.000  O
  O2       1.0000 0.18430  0.75960  0.47580  Biso   1.000  O
  O3       1.0000 0.68430  0.74040  0.97580  Biso   1.000  O
  O4       1.0000 0.81570  0.24040  0.52420  Biso   1.000  O
  O5       1.0000 0.47050  0.28500  0.98390  Biso   1.000  O
  O6       1.0000 0.02950  0.78500  0.51610  Biso   1.000  O
  O7       1.0000 0.52950  0.71500  0.01610  Biso   1.000  O
  O8       1.0000 0.97050  0.21500  0.48390  Biso   1.000  O
  O9       1.0000 0.44640  0.42370  0.06290  Biso   1.000  O
  O10      1.0000 0.05360  0.92370  0.43710  Biso   1.000  O
  O11      1.0000 0.55360  0.57630  0.93710  Biso   1.000  O
  O12      1.0000 0.94640  0.07630  0.56290  Biso   1.000  O
  O13      1.0000 0.21870  0.93410  0.05650  Biso   1.000  O
  O14      1.0000 0.28130  0.43410  0.44350  Biso   1.000  O
  O15      1.0000 0.78130  0.06590  0.94350  Biso   1.000  O
  O16      1.0000 0.71870  0.56590  0.55650  Biso   1.000  O
  N5       1.0000 0.31260  0.61020  0.01630  Biso   1.000  N
  N6       1.0000 0.18740  0.11020  0.48370  Biso   1.000  N
  N7       1.0000 0.68740  0.38980  0.98370  Biso   1.000  N
  N8       1.0000 0.81260  0.88980  0.51630  Biso   1.000  N
  O17      1.0000 0.37270  0.00480  0.02737  Biso   1.000  O
  O18      1.0000 0.12730  0.50480  0.47263  Biso   1.000  O
  O19      1.0000 0.62730  0.99520  0.97263  Biso   1.000  O
  O20      1.0000 0.87270  0.49520  0.52737  Biso   1.000  O
  N9       1.0000 0.57140  0.01670  0.06960  Biso   1.000  N
  N10      1.0000 0.92860  0.51670  0.43040  Biso   1.000  N
  N11      1.0000 0.42860  0.98330  0.93040  Biso   1.000  N
  N12      1.0000 0.07140  0.48330  0.56960  Biso   1.000  N
  O21      1.0000 0.37100  0.80630  0.08944  Biso   1.000  O
  O22      1.0000 0.12900  0.30630  0.41056  Biso   1.000  O
  O23      1.0000 0.62900  0.19370  0.91056  Biso   1.000  O
  O24      1.0000 0.87100  0.69370  0.58944  Biso   1.000  O
  C17      1.0000 0.21930  0.56670  0.03720  Biso   1.000  C
  C18      1.0000 0.28070  0.06670  0.46280  Biso   1.000  C
  C19      1.0000 0.78070  0.43330  0.96280  Biso   1.000  C
  C20      1.0000 0.71930  0.93330  0.53720  Biso   1.000  C
  H17      1.0000 0.20280  0.63650  0.06120  Biso   1.000  H
  H18      1.0000 0.29720  0.13650  0.43880  Biso   1.000  H
  H19      1.0000 0.79720  0.36350  0.93880  Biso   1.000  H
  H20      1.0000 0.70280  0.86350  0.56120  Biso   1.000  H
  H21      1.0000 0.22970  0.47830  0.05490  Biso   1.000  H
  H22      1.0000 0.27030  0.97830  0.44510  Biso   1.000  H
  H23      1.0000 0.77030  0.52170  0.94510  Biso   1.000  H
  H24      1.0000 0.72970  0.02170  0.55490  Biso   1.000  H
  C21      1.0000 0.30520  0.75340  0.99430  Biso   1.000  C
  C22      1.0000 0.19480  0.25340  0.50570  Biso   1.000  C
  C23      1.0000 0.69480  0.24660  0.00570  Biso   1.000  C
  C24      1.0000 0.80520  0.74660  0.49430  Biso   1.000  C
  H25      1.0000 0.24370  0.76400  0.97360  Biso   1.000  H
  H26      1.0000 0.25630  0.26400  0.52640  Biso   1.000  H
  H27      1.0000 0.75630  0.23600  0.02640  Biso   1.000  H
  H28      1.0000 0.74370  0.73600  0.47360  Biso   1.000  H
  H29      1.0000 0.35670  0.76790  0.97310  Biso   1.000  H
  H30      1.0000 0.14330  0.26790  0.52690  Biso   1.000  H
  H31      1.0000 0.64330  0.23210  0.02690  Biso   1.000  H
  H32      1.0000 0.85670  0.73210  0.47310  Biso   1.000  H
  C25      1.0000 0.34430  0.50610  0.97930  Biso   1.000  C
  C26      1.0000 0.15570  0.00610  0.52070  Biso   1.000  C
  C27      1.0000 0.65570  0.49390  0.02070  Biso   1.000  C
  C28      1.0000 0.84430  0.99390  0.47930  Biso   1.000  C
  C29      1.0000 0.04260  0.50740  0.01990  Biso   1.000  C
  C30      1.0000 0.45740  0.00740  0.48010  Biso   1.000  C
  C31      1.0000 0.95740  0.49260  0.98010  Biso   1.000  C
  C32      1.0000 0.54260  0.99260  0.51990  Biso   1.000  C
  H33      1.0000 0.05420  0.41900  0.03750  Biso   1.000  H
  H34      1.0000 0.44580  0.91900  0.46250  Biso   1.000  H
  H35      1.0000 0.94580  0.58100  0.96250  Biso   1.000  H
  H36      1.0000 0.55420  0.08100  0.53750  Biso   1.000  H
  H37      1.0000 0.02840  0.57780  0.04430  Biso   1.000  H
  H38      1.0000 0.47160  0.07780  0.45570  Biso   1.000  H
  H39      1.0000 0.97160  0.42220  0.95570  Biso   1.000  H
  H40      1.0000 0.52840  0.92220  0.54430  Biso   1.000  H
  C33      1.0000 0.13370  0.55060  0.99540  Biso   1.000  C
  C34      1.0000 0.36630  0.05060  0.50460  Biso   1.000  C
  C35      1.0000 0.86630  0.44940  0.00460  Biso   1.000  C
  C36      1.0000 0.63370  0.94940  0.49540  Biso   1.000  C
  H41      1.0000 0.12220  0.63860  0.97760  Biso   1.000  H
  H42      1.0000 0.37780  0.13860  0.52240  Biso   1.000  H
  H43      1.0000 0.87780  0.36140  0.02240  Biso   1.000  H
  H44      1.0000 0.62220  0.86140  0.47760  Biso   1.000  H
  H45      1.0000 0.14880  0.47970  0.97140  Biso   1.000  H
  H46      1.0000 0.35120  0.97970  0.52860  Biso   1.000  H
  H47      1.0000 0.85120  0.52030  0.02860  Biso   1.000  H
  H48      1.0000 0.64880  0.02030  0.47140  Biso   1.000  H
  C37      1.0000 0.85660  0.13920  0.27460  Biso   1.000  C
  C38      1.0000 0.64340  0.63920  0.22540  Biso   1.000  C
  C39      1.0000 0.14340  0.86080  0.72540  Biso   1.000  C
  C40      1.0000 0.35660  0.36080  0.77460  Biso   1.000  C
  C41      1.0000 0.71970  0.03890  0.22390  Biso   1.000  C
  C42      1.0000 0.78030  0.53890  0.27610  Biso   1.000  C
  C43      1.0000 0.28030  0.96110  0.77610  Biso   1.000  C
  C44      1.0000 0.21970  0.46110  0.72390  Biso   1.000  C
  H49      1.0000 0.67330  0.05410  0.24790  Biso   1.000  H
  H50      1.0000 0.82670  0.55410  0.25210  Biso   1.000  H
  H51      1.0000 0.32670  0.94590  0.75210  Biso   1.000  H
  H52      1.0000 0.17330  0.44590  0.74790  Biso   1.000  H
  H53      1.0000 0.75440  0.95220  0.23200  Biso   1.000  H
  H54      1.0000 0.74560  0.45220  0.26800  Biso   1.000  H
  H55      1.0000 0.24560  0.04780  0.76800  Biso   1.000  H
  H56      1.0000 0.25440  0.54780  0.73200  Biso   1.000  H
  C45      1.0000 0.53770  0.10000  0.10650  Biso   1.000  C
  C46      1.0000 0.96230  0.60000  0.39350  Biso   1.000  C
  C47      1.0000 0.46230  0.90000  0.89350  Biso   1.000  C
  C48      1.0000 0.03770  0.40000  0.60650  Biso   1.000  C
  H57      1.0000 0.48160  0.15160  0.09780  Biso   1.000  H
  H58      1.0000 0.01840  0.65160  0.40220  Biso   1.000  H
  H59      1.0000 0.51840  0.84840  0.90220  Biso   1.000  H
  H60      1.0000 0.98160  0.34840  0.59780  Biso   1.000  H
  C49      1.0000 0.78330  0.15220  0.22300  Biso   1.000  C
  C50      1.0000 0.71670  0.65220  0.27700  Biso   1.000  C
  C51      1.0000 0.21670  0.84780  0.77700  Biso   1.000  C
  C52      1.0000 0.28330  0.34780  0.72300  Biso   1.000  C
  H61      1.0000 0.74830  0.24030  0.22220  Biso   1.000  H
  H62      1.0000 0.75170  0.74030  0.27780  Biso   1.000  H
  H63      1.0000 0.25170  0.75970  0.77780  Biso   1.000  H
  H64      1.0000 0.24830  0.25970  0.72220  Biso   1.000  H
  H65      1.0000 0.81870  0.14720  0.19370  Biso   1.000  H
  H66      1.0000 0.68130  0.64720  0.30630  Biso   1.000  H
  H67      1.0000 0.18130  0.85280  0.80630  Biso   1.000  H
  H68      1.0000 0.31870  0.35280  0.69370  Biso   1.000  H
  C53      1.0000 0.66670  0.03740  0.16590  Biso   1.000  C
  C54      1.0000 0.83330  0.53740  0.33410  Biso   1.000  C
  C55      1.0000 0.33330  0.96260  0.83410  Biso   1.000  C
  C56      1.0000 0.16670  0.46260  0.66590  Biso   1.000  C
  C57      1.0000 0.65100  0.95260  0.08210  Biso   1.000  C
  C58      1.0000 0.84900  0.45260  0.41790  Biso   1.000  C
  C59      1.0000 0.34900  0.04740  0.91790  Biso   1.000  C
  C60      1.0000 0.15100  0.54740  0.58210  Biso   1.000  C
  H69      1.0000 0.67520  0.89450  0.05850  Biso   1.000  H
  H70      1.0000 0.82480  0.39450  0.44150  Biso   1.000  H
  H71      1.0000 0.32480  0.10550  0.94150  Biso   1.000  H
  H72      1.0000 0.17520  0.60550  0.55850  Biso   1.000  H
  C61      1.0000 0.57920  0.11080  0.15220  Biso   1.000  C
  C62      1.0000 0.92080  0.61080  0.34780  Biso   1.000  C
  C63      1.0000 0.42080  0.88920  0.84780  Biso   1.000  C
  C64      1.0000 0.07920  0.38920  0.65220  Biso   1.000  C
  H73      1.0000 0.55190  0.16590  0.17570  Biso   1.000  H
  H74      1.0000 0.94810  0.66590  0.32430  Biso   1.000  H
  H75      1.0000 0.44810  0.83410  0.82430  Biso   1.000  H
  H76      1.0000 0.05190  0.33410  0.67570  Biso   1.000  H
  C65      1.0000 0.70230  0.96540  0.12860  Biso   1.000  C
  C66      1.0000 0.79770  0.46540  0.37140  Biso   1.000  C
  C67      1.0000 0.29770  0.03460  0.87140  Biso   1.000  C
  C68      1.0000 0.20230  0.53460  0.62860  Biso   1.000  C
  H77      1.0000 0.76290  0.92350  0.13470  Biso   1.000  H
  H78      1.0000 0.73710  0.42350  0.36530  Biso   1.000  H
  H79      1.0000 0.23710  0.07650  0.86530  Biso   1.000  H
  H80      1.0000 0.26290  0.57650  0.63470  Biso   1.000  H
