data_image0
_cell_length_a       23.288
_cell_length_b       9.57
_cell_length_c       24.207
_cell_angle_alpha    90
_cell_angle_beta     105.705
_cell_angle_gamma    90

_symmetry_space_group_name_H-M    "P 1"
_symmetry_int_tables_number       1

loop_
  _symmetry_equiv_pos_as_xyz
  'x, y, z'

loop_
  _atom_site_label
  _atom_site_occupancy
  _atom_site_fract_x
  _atom_site_fract_y
  _atom_site_fract_z
  _atom_site_thermal_displace_type
  _atom_site_B_iso_or_equiv
  _atom_site_type_symbol
  Cu1      1.0000 0.26226  0.04275  0.48279  Biso   1.000  Cu
  Cu2      1.0000 0.73774  0.54275  0.01721  Biso   1.000  Cu
  Cu3      1.0000 0.73774  0.95725  0.51721  Biso   1.000  Cu
  Cu4      1.0000 0.26226  0.45725  0.98279  Biso   1.000  Cu
  Cu5      1.0000 0.26191  0.43648  0.57542  Biso   1.000  Cu
  Cu6      1.0000 0.73809  0.93648  0.92458  Biso   1.000  Cu
  Cu7      1.0000 0.73809  0.56352  0.42458  Biso   1.000  Cu
  Cu8      1.0000 0.26191  0.06352  0.07542  Biso   1.000  Cu
  Cu9      1.0000 0.27396  0.64638  0.37970  Biso   1.000  Cu
  Cu10     1.0000 0.72604  0.14638  0.12030  Biso   1.000  Cu
  Cu11     1.0000 0.72604  0.35362  0.62030  Biso   1.000  Cu
  Cu12     1.0000 0.27396  0.85362  0.87970  Biso   1.000  Cu
  P1       1.0000 0.18923  0.18070  0.56402  Biso   1.000  P
  P2       1.0000 0.81077  0.68070  0.93598  Biso   1.000  P
  P3       1.0000 0.81077  0.81930  0.43598  Biso   1.000  P
  P4       1.0000 0.18923  0.31930  0.06402  Biso   1.000  P
  P5       1.0000 0.21636  0.70590  0.51479  Biso   1.000  P
  P6       1.0000 0.78364  0.20590  0.98521  Biso   1.000  P
  P7       1.0000 0.78364  0.29410  0.48521  Biso   1.000  P
  P8       1.0000 0.21636  0.79410  0.01479  Biso   1.000  P
  P9       1.0000 0.33838  0.91850  0.40345  Biso   1.000  P
  P10      1.0000 0.66162  0.41850  0.09655  Biso   1.000  P
  P11      1.0000 0.66162  0.08150  0.59655  Biso   1.000  P
  P12      1.0000 0.33838  0.58150  0.90345  Biso   1.000  P
  P13      1.0000 0.31044  0.39700  0.45502  Biso   1.000  P
  P14      1.0000 0.68956  0.89700  0.04498  Biso   1.000  P
  P15      1.0000 0.68956  0.60300  0.54498  Biso   1.000  P
  P16      1.0000 0.31044  0.10300  0.95502  Biso   1.000  P
  N1       1.0000 0.17340  0.44940  0.53060  Biso   1.000  N
  N2       1.0000 0.82660  0.94940  0.96940  Biso   1.000  N
  N3       1.0000 0.82660  0.55060  0.46940  Biso   1.000  N
  N4       1.0000 0.17340  0.05060  0.03060  Biso   1.000  N
  N5       1.0000 0.35950  0.64820  0.43880  Biso   1.000  N
  N6       1.0000 0.64050  0.14820  0.06120  Biso   1.000  N
  N7       1.0000 0.64050  0.35180  0.56120  Biso   1.000  N
  N8       1.0000 0.35950  0.85180  0.93880  Biso   1.000  N
  N9       1.0000 0.33410  0.02120  0.55330  Biso   1.000  N
  N10      1.0000 0.66590  0.52120  0.94670  Biso   1.000  N
  N11      1.0000 0.66590  0.97880  0.44670  Biso   1.000  N
  N12      1.0000 0.33410  0.47880  0.05330  Biso   1.000  N
  N13      1.0000 0.65350  0.94020  0.87370  Biso   1.000  N
  N14      1.0000 0.34650  0.44020  0.62630  Biso   1.000  N
  N15      1.0000 0.34650  0.05980  0.12630  Biso   1.000  N
  N16      1.0000 0.65350  0.55980  0.37370  Biso   1.000  N
  N17      1.0000 0.19090  0.07550  0.41490  Biso   1.000  N
  N18      1.0000 0.80910  0.57550  0.08510  Biso   1.000  N
  N19      1.0000 0.80910  0.92450  0.58510  Biso   1.000  N
  N20      1.0000 0.19090  0.42450  0.91490  Biso   1.000  N
  N21      1.0000 0.81070  0.14010  0.16580  Biso   1.000  N
  N22      1.0000 0.18930  0.64010  0.33420  Biso   1.000  N
  N23      1.0000 0.18930  0.85990  0.83420  Biso   1.000  N
  N24      1.0000 0.81070  0.35990  0.66580  Biso   1.000  N
  O1       1.0000 0.24200  0.26070  0.60370  Biso   1.000  O
  O2       1.0000 0.75800  0.76070  0.89630  Biso   1.000  O
  O3       1.0000 0.75800  0.73930  0.39630  Biso   1.000  O
  O4       1.0000 0.24200  0.23930  0.10370  Biso   1.000  O
  O5       1.0000 0.20930  0.05650  0.53360  Biso   1.000  O
  O6       1.0000 0.79070  0.55650  0.96640  Biso   1.000  O
  O7       1.0000 0.79070  0.94350  0.46640  Biso   1.000  O
  O8       1.0000 0.20930  0.44350  0.03360  Biso   1.000  O
  O9       1.0000 0.14540  0.13020  0.59440  Biso   1.000  O
  O10      1.0000 0.85460  0.63020  0.90560  Biso   1.000  O
  O11      1.0000 0.85460  0.86980  0.40560  Biso   1.000  O
  O12      1.0000 0.14540  0.36980  0.09440  Biso   1.000  O
  O13      1.0000 0.26700  0.63540  0.56270  Biso   1.000  O
  O14      1.0000 0.73300  0.13540  0.93730  Biso   1.000  O
  O15      1.0000 0.73300  0.36460  0.43730  Biso   1.000  O
  O16      1.0000 0.26700  0.86460  0.06270  Biso   1.000  O
  O17      1.0000 0.23680  0.78700  0.47120  Biso   1.000  O
  O18      1.0000 0.76320  0.28700  0.02880  Biso   1.000  O
  O19      1.0000 0.76320  0.21300  0.52880  Biso   1.000  O
  O20      1.0000 0.23680  0.71300  0.97120  Biso   1.000  O
  O21      1.0000 0.17880  0.80120  0.54570  Biso   1.000  O
  O22      1.0000 0.82120  0.30120  0.95430  Biso   1.000  O
  O23      1.0000 0.82120  0.19880  0.45430  Biso   1.000  O
  O24      1.0000 0.17880  0.69880  0.04570  Biso   1.000  O
  O25      1.0000 0.28470  0.83770  0.36330  Biso   1.000  O
  O26      1.0000 0.71530  0.33770  0.13670  Biso   1.000  O
  O27      1.0000 0.71530  0.16230  0.63670  Biso   1.000  O
  O28      1.0000 0.28470  0.66230  0.86330  Biso   1.000  O
  O29      1.0000 0.31660  0.04410  0.43350  Biso   1.000  O
  O30      1.0000 0.68340  0.54410  0.06650  Biso   1.000  O
  O31      1.0000 0.68340  0.95590  0.56650  Biso   1.000  O
  O32      1.0000 0.31660  0.45590  0.93350  Biso   1.000  O
  O33      1.0000 0.38460  0.96120  0.37500  Biso   1.000  O
  O34      1.0000 0.61540  0.46120  0.12500  Biso   1.000  O
  O35      1.0000 0.61540  0.03880  0.62500  Biso   1.000  O
  O36      1.0000 0.38460  0.53880  0.87500  Biso   1.000  O
  O37      1.0000 0.26340  0.45720  0.40320  Biso   1.000  O
  O38      1.0000 0.73660  0.95720  0.09680  Biso   1.000  O
  O39      1.0000 0.73660  0.54280  0.59680  Biso   1.000  O
  O40      1.0000 0.26340  0.04280  0.90320  Biso   1.000  O
  O41      1.0000 0.35340  0.29360  0.43400  Biso   1.000  O
  O42      1.0000 0.64660  0.79360  0.06600  Biso   1.000  O
  O43      1.0000 0.64660  0.70640  0.56600  Biso   1.000  O
  O44      1.0000 0.35340  0.20640  0.93400  Biso   1.000  O
  O45      1.0000 0.28650  0.32960  0.49980  Biso   1.000  O
  O46      1.0000 0.71350  0.82960  0.00020  Biso   1.000  O
  O47      1.0000 0.71350  0.67040  0.50020  Biso   1.000  O
  O48      1.0000 0.28650  0.17040  0.99980  Biso   1.000  O
  O49      1.0000 0.30210  0.58710  0.29400  Biso   1.000  O
  O50      1.0000 0.69790  0.08710  0.20600  Biso   1.000  O
  O51      1.0000 0.69790  0.41290  0.70600  Biso   1.000  O
  O52      1.0000 0.30210  0.91290  0.79400  Biso   1.000  O
  C1       1.0000 0.15730  0.30820  0.50700  Biso   1.000  C
  C2       1.0000 0.84270  0.80820  0.99300  Biso   1.000  C
  C3       1.0000 0.84270  0.69180  0.49300  Biso   1.000  C
  C4       1.0000 0.15730  0.19180  0.00700  Biso   1.000  C
  H1       1.0000 0.17340  0.29230  0.47370  Biso   1.000  H
  H2       1.0000 0.82660  0.79230  0.02630  Biso   1.000  H
  H3       1.0000 0.82660  0.70770  0.52630  Biso   1.000  H
  H4       1.0000 0.17340  0.20770  0.97370  Biso   1.000  H
  H5       1.0000 0.11340  0.29810  0.49420  Biso   1.000  H
  H6       1.0000 0.88660  0.79810  0.00580  Biso   1.000  H
  H7       1.0000 0.88660  0.70190  0.50580  Biso   1.000  H
  H8       1.0000 0.11340  0.20190  0.99420  Biso   1.000  H
  C5       1.0000 0.16980  0.55760  0.48390  Biso   1.000  C
  C6       1.0000 0.83020  0.05760  0.01610  Biso   1.000  C
  C7       1.0000 0.83020  0.44240  0.51610  Biso   1.000  C
  C8       1.0000 0.16980  0.94240  0.98390  Biso   1.000  C
  H9       1.0000 0.12800  0.58830  0.46810  Biso   1.000  H
  H10      1.0000 0.87200  0.08830  0.03190  Biso   1.000  H
  H11      1.0000 0.87200  0.41170  0.53190  Biso   1.000  H
  H12      1.0000 0.12800  0.91170  0.96810  Biso   1.000  H
  H13      1.0000 0.18380  0.51660  0.45230  Biso   1.000  H
  H14      1.0000 0.81620  0.01660  0.04770  Biso   1.000  H
  H15      1.0000 0.81620  0.48340  0.54770  Biso   1.000  H
  H16      1.0000 0.18380  0.98340  0.95230  Biso   1.000  H
  C9       1.0000 0.13840  0.49590  0.57360  Biso   1.000  C
  C10      1.0000 0.86160  0.99590  0.92640  Biso   1.000  C
  C11      1.0000 0.86160  0.50410  0.42640  Biso   1.000  C
  C12      1.0000 0.13840  0.00410  0.07360  Biso   1.000  C
  H17      1.0000 0.13490  0.41460  0.59780  Biso   1.000  H
  H18      1.0000 0.86510  0.91460  0.90220  Biso   1.000  H
  H19      1.0000 0.86510  0.58540  0.40220  Biso   1.000  H
  H20      1.0000 0.13490  0.08540  0.09780  Biso   1.000  H
  H21      1.0000 0.16220  0.56790  0.59920  Biso   1.000  H
  H22      1.0000 0.83780  0.06790  0.90080  Biso   1.000  H
  H23      1.0000 0.83780  0.43210  0.40080  Biso   1.000  H
  H24      1.0000 0.16220  0.93210  0.09920  Biso   1.000  H
  C13      1.0000 0.07660  0.55400  0.54750  Biso   1.000  C
  C14      1.0000 0.92340  0.05400  0.95250  Biso   1.000  C
  C15      1.0000 0.92340  0.44600  0.45250  Biso   1.000  C
  C16      1.0000 0.07660  0.94600  0.04750  Biso   1.000  C
  H25      1.0000 0.06000  0.58060  0.57950  Biso   1.000  H
  H26      1.0000 0.94000  0.08060  0.92050  Biso   1.000  H
  H27      1.0000 0.94000  0.41940  0.42050  Biso   1.000  H
  H28      1.0000 0.06000  0.91940  0.07950  Biso   1.000  H
  H29      1.0000 0.08140  0.64150  0.52730  Biso   1.000  H
  H30      1.0000 0.91860  0.14150  0.97270  Biso   1.000  H
  H31      1.0000 0.91860  0.35850  0.47270  Biso   1.000  H
  H32      1.0000 0.08140  0.85850  0.02730  Biso   1.000  H
  C17      1.0000 0.03060  0.46790  0.50670  Biso   1.000  C
  C18      1.0000 0.96940  0.96790  0.99330  Biso   1.000  C
  C19      1.0000 0.96940  0.53210  0.49330  Biso   1.000  C
  C20      1.0000 0.03060  0.03210  0.00670  Biso   1.000  C
  H33      1.0000 0.02930  0.37400  0.52350  Biso   1.000  H
  H34      1.0000 0.97070  0.87400  0.97650  Biso   1.000  H
  H35      1.0000 0.97070  0.62600  0.47650  Biso   1.000  H
  H36      1.0000 0.02930  0.12600  0.02350  Biso   1.000  H
  H37      1.0000 0.04230  0.45620  0.47060  Biso   1.000  H
  H38      1.0000 0.95770  0.95620  0.02940  Biso   1.000  H
  H39      1.0000 0.95770  0.54380  0.52940  Biso   1.000  H
  H40      1.0000 0.04230  0.04380  0.97060  Biso   1.000  H
  C21      1.0000 0.36740  0.79210  0.46140  Biso   1.000  C
  C22      1.0000 0.63260  0.29210  0.03860  Biso   1.000  C
  C23      1.0000 0.63260  0.20790  0.53860  Biso   1.000  C
  C24      1.0000 0.36740  0.70790  0.96140  Biso   1.000  C
  H41      1.0000 0.41030  0.81030  0.47910  Biso   1.000  H
  H42      1.0000 0.58970  0.31030  0.02090  Biso   1.000  H
  H43      1.0000 0.58970  0.18970  0.52090  Biso   1.000  H
  H44      1.0000 0.41030  0.68970  0.97910  Biso   1.000  H
  H45      1.0000 0.34610  0.80310  0.49130  Biso   1.000  H
  H46      1.0000 0.65390  0.30310  0.00870  Biso   1.000  H
  H47      1.0000 0.65390  0.19690  0.50870  Biso   1.000  H
  H48      1.0000 0.34610  0.69690  0.99130  Biso   1.000  H
  C25      1.0000 0.35550  0.54680  0.48440  Biso   1.000  C
  C26      1.0000 0.64450  0.04680  0.01560  Biso   1.000  C
  C27      1.0000 0.64450  0.45320  0.51560  Biso   1.000  C
  C28      1.0000 0.35550  0.95320  0.98440  Biso   1.000  C
  H49      1.0000 0.33800  0.59410  0.51240  Biso   1.000  H
  H50      1.0000 0.66200  0.09410  0.98760  Biso   1.000  H
  H51      1.0000 0.66200  0.40590  0.48760  Biso   1.000  H
  H52      1.0000 0.33800  0.90590  0.01240  Biso   1.000  H
  H53      1.0000 0.39610  0.51520  0.50510  Biso   1.000  H
  H54      1.0000 0.60390  0.01520  0.99490  Biso   1.000  H
  H55      1.0000 0.60390  0.48480  0.49490  Biso   1.000  H
  H56      1.0000 0.39610  0.98480  0.00510  Biso   1.000  H
  C29      1.0000 0.40610  0.60900  0.40820  Biso   1.000  C
  C30      1.0000 0.59390  0.10900  0.09180  Biso   1.000  C
  C31      1.0000 0.59390  0.39100  0.59180  Biso   1.000  C
  C32      1.0000 0.40610  0.89100  0.90820  Biso   1.000  C
  H57      1.0000 0.39660  0.65850  0.37090  Biso   1.000  H
  H58      1.0000 0.60340  0.15850  0.12910  Biso   1.000  H
  H59      1.0000 0.60340  0.34150  0.62910  Biso   1.000  H
  H60      1.0000 0.39660  0.84150  0.87090  Biso   1.000  H
  H61      1.0000 0.40270  0.50760  0.39990  Biso   1.000  H
  H62      1.0000 0.59730  0.00760  0.10010  Biso   1.000  H
  H63      1.0000 0.59730  0.49240  0.60010  Biso   1.000  H
  H64      1.0000 0.40270  0.99240  0.89990  Biso   1.000  H
  C33      1.0000 0.47080  0.64100  0.44040  Biso   1.000  C
  C34      1.0000 0.52920  0.14100  0.05960  Biso   1.000  C
  C35      1.0000 0.52920  0.35900  0.55960  Biso   1.000  C
  C36      1.0000 0.47080  0.85900  0.94040  Biso   1.000  C
  H65      1.0000 0.49580  0.61110  0.41530  Biso   1.000  H
  H66      1.0000 0.50420  0.11110  0.08470  Biso   1.000  H
  H67      1.0000 0.50420  0.38890  0.58470  Biso   1.000  H
  H68      1.0000 0.49580  0.88890  0.91530  Biso   1.000  H
  H69      1.0000 0.47450  0.74390  0.44390  Biso   1.000  H
  H70      1.0000 0.52550  0.24390  0.05610  Biso   1.000  H
  H71      1.0000 0.52550  0.25610  0.55610  Biso   1.000  H
  H72      1.0000 0.47450  0.75610  0.94390  Biso   1.000  H
  C37      1.0000 0.49870  0.58020  0.49960  Biso   1.000  C
  C38      1.0000 0.50130  0.08020  0.00040  Biso   1.000  C
  C39      1.0000 0.50130  0.41980  0.50040  Biso   1.000  C
  C40      1.0000 0.49870  0.91980  0.99960  Biso   1.000  C
  H73      1.0000 0.47540  0.61180  0.52600  Biso   1.000  H
  H74      1.0000 0.52460  0.11180  0.97400  Biso   1.000  H
  H75      1.0000 0.52460  0.38820  0.47400  Biso   1.000  H
  H76      1.0000 0.47540  0.88820  0.02600  Biso   1.000  H
  H77      1.0000 0.53970  0.61740  0.51420  Biso   1.000  H
  H78      1.0000 0.46030  0.11740  0.98580  Biso   1.000  H
  H79      1.0000 0.46030  0.38260  0.48580  Biso   1.000  H
  H80      1.0000 0.53970  0.88260  0.01420  Biso   1.000  H
  C41      1.0000 0.38840  0.06120  0.55410  Biso   1.000  C
  C42      1.0000 0.61160  0.56120  0.94590  Biso   1.000  C
  C43      1.0000 0.61160  0.93880  0.44590  Biso   1.000  C
  C44      1.0000 0.38840  0.43880  0.05410  Biso   1.000  C
  H81      1.0000 0.39360  0.10450  0.52040  Biso   1.000  H
  H82      1.0000 0.60640  0.60450  0.97960  Biso   1.000  H
  H83      1.0000 0.60640  0.89550  0.47960  Biso   1.000  H
  H84      1.0000 0.39360  0.39550  0.02040  Biso   1.000  H
  C45      1.0000 0.43780  0.04540  0.59900  Biso   1.000  C
  C46      1.0000 0.56220  0.54540  0.90100  Biso   1.000  C
  C47      1.0000 0.56220  0.95460  0.40100  Biso   1.000  C
  C48      1.0000 0.43780  0.45460  0.09900  Biso   1.000  C
  H85      1.0000 0.47540  0.07740  0.59580  Biso   1.000  H
  H86      1.0000 0.52460  0.57740  0.90420  Biso   1.000  H
  H87      1.0000 0.52460  0.92260  0.40420  Biso   1.000  H
  H88      1.0000 0.47540  0.42260  0.09580  Biso   1.000  H
  C49      1.0000 0.43370  0.98370  0.64910  Biso   1.000  C
  C50      1.0000 0.56630  0.48370  0.85090  Biso   1.000  C
  C51      1.0000 0.56630  0.01630  0.35090  Biso   1.000  C
  C52      1.0000 0.43370  0.51630  0.14910  Biso   1.000  C
  C53      1.0000 0.37530  0.93920  0.64930  Biso   1.000  C
  C54      1.0000 0.62470  0.43920  0.85070  Biso   1.000  C
  C55      1.0000 0.62470  0.06080  0.35070  Biso   1.000  C
  C56      1.0000 0.37530  0.56080  0.14930  Biso   1.000  C
  H89      1.0000 0.36900  0.89600  0.68260  Biso   1.000  H
  H90      1.0000 0.63100  0.39600  0.81740  Biso   1.000  H
  H91      1.0000 0.63100  0.10400  0.31740  Biso   1.000  H
  H92      1.0000 0.36900  0.60400  0.18260  Biso   1.000  H
  C57      1.0000 0.32830  0.95840  0.60190  Biso   1.000  C
  C58      1.0000 0.67170  0.45840  0.89810  Biso   1.000  C
  C59      1.0000 0.67170  0.04160  0.39810  Biso   1.000  C
  C60      1.0000 0.32830  0.54160  0.10190  Biso   1.000  C
  H93      1.0000 0.28990  0.92660  0.60290  Biso   1.000  H
  H94      1.0000 0.71010  0.42660  0.89710  Biso   1.000  H
  H95      1.0000 0.71010  0.07340  0.39710  Biso   1.000  H
  H96      1.0000 0.28990  0.57340  0.10290  Biso   1.000  H
  C61      1.0000 0.63220  0.82510  0.84190  Biso   1.000  C
  C62      1.0000 0.36780  0.32510  0.65810  Biso   1.000  C
  C63      1.0000 0.36780  0.17490  0.15810  Biso   1.000  C
  C64      1.0000 0.63220  0.67490  0.34190  Biso   1.000  C
  H97      1.0000 0.65650  0.74450  0.84400  Biso   1.000  H
  H98      1.0000 0.34350  0.24450  0.65600  Biso   1.000  H
  H99      1.0000 0.34350  0.25550  0.15600  Biso   1.000  H
  H100     1.0000 0.65650  0.75550  0.34400  Biso   1.000  H
  C65      1.0000 0.57400  0.82640  0.80580  Biso   1.000  C
  C66      1.0000 0.42600  0.32640  0.69420  Biso   1.000  C
  C67      1.0000 0.42600  0.17360  0.19420  Biso   1.000  C
  C68      1.0000 0.57400  0.67360  0.30580  Biso   1.000  C
  H101     1.0000 0.55960  0.74580  0.78350  Biso   1.000  H
  H102     1.0000 0.44040  0.24580  0.71650  Biso   1.000  H
  H103     1.0000 0.44040  0.25420  0.21650  Biso   1.000  H
  H104     1.0000 0.55960  0.75420  0.28350  Biso   1.000  H
  C69      1.0000 0.53810  0.93610  0.80160  Biso   1.000  C
  C70      1.0000 0.46190  0.43610  0.69840  Biso   1.000  C
  C71      1.0000 0.46190  0.06390  0.19840  Biso   1.000  C
  C72      1.0000 0.53810  0.56390  0.30160  Biso   1.000  C
  C73      1.0000 0.55990  0.05380  0.83490  Biso   1.000  C
  C74      1.0000 0.44010  0.55380  0.66510  Biso   1.000  C
  C75      1.0000 0.44010  0.94620  0.16510  Biso   1.000  C
  C76      1.0000 0.55990  0.44620  0.33490  Biso   1.000  C
  H105     1.0000 0.53620  0.13520  0.83340  Biso   1.000  H
  H106     1.0000 0.46380  0.63520  0.66660  Biso   1.000  H
  H107     1.0000 0.46380  0.86480  0.16660  Biso   1.000  H
  H108     1.0000 0.53620  0.36480  0.33340  Biso   1.000  H
  C77      1.0000 0.61620  0.04700  0.86930  Biso   1.000  C
  C78      1.0000 0.38380  0.54700  0.63070  Biso   1.000  C
  C79      1.0000 0.38380  0.95300  0.13070  Biso   1.000  C
  C80      1.0000 0.61620  0.45300  0.36930  Biso   1.000  C
  H109     1.0000 0.63040  0.12630  0.89260  Biso   1.000  H
  H110     1.0000 0.36960  0.62630  0.60740  Biso   1.000  H
  H111     1.0000 0.36960  0.87370  0.10740  Biso   1.000  H
  H112     1.0000 0.63040  0.37370  0.39260  Biso   1.000  H
  C81      1.0000 0.48750  0.96540  0.69930  Biso   1.000  C
  C82      1.0000 0.51250  0.46540  0.80070  Biso   1.000  C
  C83      1.0000 0.51250  0.03460  0.30070  Biso   1.000  C
  C84      1.0000 0.48750  0.53460  0.19930  Biso   1.000  C
  H113     1.0000 0.51250  0.05000  0.70190  Biso   1.000  H
  H114     1.0000 0.48750  0.55000  0.79810  Biso   1.000  H
  H115     1.0000 0.48750  0.95000  0.29810  Biso   1.000  H
  H116     1.0000 0.51250  0.45000  0.20190  Biso   1.000  H
  H117     1.0000 0.51080  0.88580  0.69070  Biso   1.000  H
  H118     1.0000 0.48920  0.38580  0.80930  Biso   1.000  H
  H119     1.0000 0.48920  0.11420  0.30930  Biso   1.000  H
  H120     1.0000 0.51080  0.61420  0.19070  Biso   1.000  H
  C85      1.0000 0.47740  0.93990  0.75890  Biso   1.000  C
  C86      1.0000 0.52260  0.43990  0.74110  Biso   1.000  C
  C87      1.0000 0.52260  0.06010  0.24110  Biso   1.000  C
  C88      1.0000 0.47740  0.56010  0.25890  Biso   1.000  C
  H121     1.0000 0.45290  0.01600  0.76860  Biso   1.000  H
  H122     1.0000 0.54710  0.51600  0.73140  Biso   1.000  H
  H123     1.0000 0.54710  0.98400  0.23140  Biso   1.000  H
  H124     1.0000 0.45290  0.48400  0.26860  Biso   1.000  H
  H125     1.0000 0.45630  0.85020  0.75930  Biso   1.000  H
  H126     1.0000 0.54370  0.35020  0.74070  Biso   1.000  H
  H127     1.0000 0.54370  0.14980  0.24070  Biso   1.000  H
  H128     1.0000 0.45630  0.64980  0.25930  Biso   1.000  H
  C89      1.0000 0.19360  0.14070  0.36570  Biso   1.000  C
  C90      1.0000 0.80640  0.64070  0.13430  Biso   1.000  C
  C91      1.0000 0.80640  0.85930  0.63430  Biso   1.000  C
  C92      1.0000 0.19360  0.35930  0.86570  Biso   1.000  C
  H129     1.0000 0.23180  0.16670  0.36210  Biso   1.000  H
  H130     1.0000 0.76820  0.66670  0.13790  Biso   1.000  H
  H131     1.0000 0.76820  0.83330  0.63790  Biso   1.000  H
  H132     1.0000 0.23180  0.33330  0.86210  Biso   1.000  H
  C93      1.0000 0.14500  0.17150  0.32090  Biso   1.000  C
  C94      1.0000 0.85500  0.67150  0.17910  Biso   1.000  C
  C95      1.0000 0.85500  0.82850  0.67910  Biso   1.000  C
  C96      1.0000 0.14500  0.32850  0.82090  Biso   1.000  C
  H133     1.0000 0.15020  0.20760  0.28600  Biso   1.000  H
  H134     1.0000 0.84980  0.70760  0.21400  Biso   1.000  H
  H135     1.0000 0.84980  0.79240  0.71400  Biso   1.000  H
  H136     1.0000 0.15020  0.29240  0.78600  Biso   1.000  H
  C97      1.0000 0.08770  0.14900  0.32730  Biso   1.000  C
  C98      1.0000 0.91230  0.64900  0.17270  Biso   1.000  C
  C99      1.0000 0.91230  0.85100  0.67270  Biso   1.000  C
  C100     1.0000 0.08770  0.35100  0.82730  Biso   1.000  C
  C101     1.0000 0.08430  0.07810  0.37710  Biso   1.000  C
  C102     1.0000 0.91570  0.57810  0.12290  Biso   1.000  C
  C103     1.0000 0.91570  0.92190  0.62290  Biso   1.000  C
  C104     1.0000 0.08430  0.42190  0.87710  Biso   1.000  C
  H137     1.0000 0.04620  0.05580  0.38200  Biso   1.000  H
  H138     1.0000 0.95380  0.55580  0.11800  Biso   1.000  H
  H139     1.0000 0.95380  0.94420  0.61800  Biso   1.000  H
  H140     1.0000 0.04620  0.44420  0.88200  Biso   1.000  H
  C105     1.0000 0.13470  0.04000  0.41910  Biso   1.000  C
  C106     1.0000 0.86530  0.54000  0.08090  Biso   1.000  C
  C107     1.0000 0.86530  0.96000  0.58090  Biso   1.000  C
  C108     1.0000 0.13470  0.46000  0.91910  Biso   1.000  C
  H141     1.0000 0.13080  0.98850  0.45140  Biso   1.000  H
  H142     1.0000 0.86920  0.48850  0.04860  Biso   1.000  H
  H143     1.0000 0.86920  0.01150  0.54860  Biso   1.000  H
  H144     1.0000 0.13080  0.51150  0.95140  Biso   1.000  H
  C109     1.0000 0.85260  0.23110  0.16150  Biso   1.000  C
  C110     1.0000 0.14740  0.73110  0.33850  Biso   1.000  C
  C111     1.0000 0.14740  0.76890  0.83850  Biso   1.000  C
  C112     1.0000 0.85260  0.26890  0.66150  Biso   1.000  C
  H145     1.0000 0.84180  0.31200  0.13820  Biso   1.000  H
  H146     1.0000 0.15820  0.81200  0.36180  Biso   1.000  H
  H147     1.0000 0.15820  0.68800  0.86180  Biso   1.000  H
  H148     1.0000 0.84180  0.18800  0.63820  Biso   1.000  H
  C113     1.0000 0.91250  0.20840  0.19070  Biso   1.000  C
  C114     1.0000 0.08750  0.70840  0.30930  Biso   1.000  C
  C115     1.0000 0.08750  0.79160  0.80930  Biso   1.000  C
  C116     1.0000 0.91250  0.29160  0.69070  Biso   1.000  C
  H149     1.0000 0.94180  0.27220  0.18550  Biso   1.000  H
  H150     1.0000 0.05820  0.77220  0.31450  Biso   1.000  H
  H151     1.0000 0.05820  0.72780  0.81450  Biso   1.000  H
  H152     1.0000 0.94180  0.22780  0.68550  Biso   1.000  H
  C117     1.0000 0.92980  0.09760  0.22640  Biso   1.000  C
  C118     1.0000 0.07020  0.59760  0.27360  Biso   1.000  C
  C119     1.0000 0.07020  0.90240  0.77360  Biso   1.000  C
  C120     1.0000 0.92980  0.40240  0.72640  Biso   1.000  C
  C121     1.0000 0.88590  0.00880  0.23090  Biso   1.000  C
  C122     1.0000 0.11410  0.50880  0.26910  Biso   1.000  C
  C123     1.0000 0.11410  0.99120  0.76910  Biso   1.000  C
  C124     1.0000 0.88590  0.49120  0.73090  Biso   1.000  C
  H153     1.0000 0.89550  0.93130  0.25630  Biso   1.000  H
  H154     1.0000 0.10450  0.43130  0.24370  Biso   1.000  H
  H155     1.0000 0.10450  0.06870  0.74370  Biso   1.000  H
  H156     1.0000 0.89550  0.56870  0.75630  Biso   1.000  H
  C125     1.0000 0.82890  0.02810  0.20010  Biso   1.000  C
  C126     1.0000 0.17110  0.52810  0.29990  Biso   1.000  C
  C127     1.0000 0.17110  0.97190  0.79990  Biso   1.000  C
  C128     1.0000 0.82890  0.47190  0.70010  Biso   1.000  C
  H157     1.0000 0.80010  0.95980  0.20260  Biso   1.000  H
  H158     1.0000 0.19990  0.45980  0.29740  Biso   1.000  H
  H159     1.0000 0.19990  0.04020  0.79740  Biso   1.000  H
  H160     1.0000 0.80010  0.54020  0.70260  Biso   1.000  H
  C129     1.0000 0.99420  0.06250  0.25970  Biso   1.000  C
  C130     1.0000 0.00580  0.56250  0.24030  Biso   1.000  C
  C131     1.0000 0.00580  0.93750  0.74030  Biso   1.000  C
  C132     1.0000 0.99420  0.43750  0.75970  Biso   1.000  C
  H161     1.0000 0.01360  0.01100  0.23420  Biso   1.000  H
  H162     1.0000 0.98640  0.51100  0.26580  Biso   1.000  H
  H163     1.0000 0.98640  0.98900  0.76580  Biso   1.000  H
  H164     1.0000 0.01360  0.48900  0.73420  Biso   1.000  H
  H165     1.0000 0.99360  0.00070  0.29240  Biso   1.000  H
  H166     1.0000 0.00640  0.50070  0.20760  Biso   1.000  H
  H167     1.0000 0.00640  0.99930  0.70760  Biso   1.000  H
  H168     1.0000 0.99360  0.49930  0.79240  Biso   1.000  H
  C133     1.0000 0.03090  0.19330  0.28260  Biso   1.000  C
  C134     1.0000 0.96910  0.69330  0.21740  Biso   1.000  C
  C135     1.0000 0.96910  0.80670  0.71740  Biso   1.000  C
  C136     1.0000 0.03090  0.30670  0.78260  Biso   1.000  C
  H169     1.0000 0.04120  0.24310  0.25070  Biso   1.000  H
  H170     1.0000 0.95880  0.74310  0.24930  Biso   1.000  H
  H171     1.0000 0.95880  0.75690  0.74930  Biso   1.000  H
  H172     1.0000 0.04120  0.25690  0.75070  Biso   1.000  H
  H173     1.0000 0.00750  0.25730  0.30010  Biso   1.000  H
  H174     1.0000 0.99250  0.75730  0.19990  Biso   1.000  H
  H175     1.0000 0.99250  0.74270  0.69990  Biso   1.000  H
  H176     1.0000 0.00750  0.24270  0.80010  Biso   1.000  H
