data_image0
_cell_length_a       7.275
_cell_length_b       13.97
_cell_length_c       11.794
_cell_angle_alpha    90
_cell_angle_beta     92.78
_cell_angle_gamma    90

_symmetry_space_group_name_H-M    "P 1"
_symmetry_int_tables_number       1

loop_
  _symmetry_equiv_pos_as_xyz
  'x, y, z'

loop_
  _atom_site_label
  _atom_site_occupancy
  _atom_site_fract_x
  _atom_site_fract_y
  _atom_site_fract_z
  _atom_site_thermal_displace_type
  _atom_site_B_iso_or_equiv
  _atom_site_type_symbol
  Cu1      1.0000 0.35210  0.25000  0.64318  Biso   1.000  Cu
  Cu2      1.0000 0.64790  0.75000  0.35682  Biso   1.000  Cu
  O1       1.0000 0.42010  0.34840  0.75280  Biso   1.000  O
  O2       1.0000 0.57990  0.84840  0.24720  Biso   1.000  O
  O3       1.0000 0.57990  0.65160  0.24720  Biso   1.000  O
  O4       1.0000 0.42010  0.15160  0.75280  Biso   1.000  O
  O5       1.0000 0.14460  0.39360  0.80860  Biso   1.000  O
  O6       1.0000 0.85540  0.89360  0.19140  Biso   1.000  O
  O7       1.0000 0.85540  0.60640  0.19140  Biso   1.000  O
  O8       1.0000 0.14460  0.10640  0.80860  Biso   1.000  O
  O9       1.0000 0.63900  0.25000  0.57380  Biso   1.000  O
  O10      1.0000 0.36100  0.75000  0.42620  Biso   1.000  O
  H1       1.0000 0.66200  0.25000  0.50430  Biso   1.000  H
  H2       1.0000 0.33800  0.75000  0.49570  Biso   1.000  H
  H3       1.0000 0.73800  0.25000  0.61400  Biso   1.000  H
  H4       1.0000 0.26200  0.75000  0.38600  Biso   1.000  H
  O11      1.0000 0.96450  0.26000  0.69610  Biso   1.000  O
  O12      1.0000 0.03550  0.76000  0.30390  Biso   1.000  O
  O13      1.0000 0.03550  0.74000  0.30390  Biso   1.000  O
  O14      1.0000 0.96450  0.24000  0.69610  Biso   1.000  O
  H5       1.0000 0.03600  0.30200  0.72600  Biso   1.000  H
  H6       1.0000 0.96400  0.80200  0.27400  Biso   1.000  H
  H7       1.0000 0.96400  0.69800  0.27400  Biso   1.000  H
  H8       1.0000 0.03600  0.19800  0.72600  Biso   1.000  H
  H9       1.0000 0.88900  0.24200  0.74500  Biso   1.000  H
  H10      1.0000 0.11100  0.74200  0.25500  Biso   1.000  H
  H11      1.0000 0.11100  0.75800  0.25500  Biso   1.000  H
  H12      1.0000 0.88900  0.25800  0.74500  Biso   1.000  H
  N1       1.0000 0.26370  0.34436  0.52180  Biso   1.000  N
  N2       1.0000 0.73630  0.84436  0.47820  Biso   1.000  N
  N3       1.0000 0.73630  0.65564  0.47820  Biso   1.000  N
  N4       1.0000 0.26370  0.15564  0.52180  Biso   1.000  N
  N5       1.0000 0.02660  0.34960  0.12990  Biso   1.000  N
  N6       1.0000 0.97340  0.84960  0.87010  Biso   1.000  N
  N7       1.0000 0.97340  0.65040  0.87010  Biso   1.000  N
  N8       1.0000 0.02660  0.15040  0.12990  Biso   1.000  N
  C1       1.0000 0.31440  0.39230  0.81720  Biso   1.000  C
  C2       1.0000 0.68560  0.89230  0.18280  Biso   1.000  C
  C3       1.0000 0.68560  0.60770  0.18280  Biso   1.000  C
  C4       1.0000 0.31440  0.10770  0.81720  Biso   1.000  C
  C5       1.0000 0.41190  0.44920  0.91160  Biso   1.000  C
  C6       1.0000 0.58810  0.94920  0.08840  Biso   1.000  C
  C7       1.0000 0.58810  0.55080  0.08840  Biso   1.000  C
  C8       1.0000 0.41190  0.05080  0.91160  Biso   1.000  C
  C9       1.0000 0.60130  0.45210  0.92180  Biso   1.000  C
  C10      1.0000 0.39870  0.95210  0.07820  Biso   1.000  C
  C11      1.0000 0.39870  0.54790  0.07820  Biso   1.000  C
  C12      1.0000 0.60130  0.04790  0.92180  Biso   1.000  C
  H13      1.0000 0.67010  0.42000  0.86930  Biso   1.000  H
  H14      1.0000 0.32990  0.92000  0.13070  Biso   1.000  H
  H15      1.0000 0.32990  0.58000  0.13070  Biso   1.000  H
  H16      1.0000 0.67010  0.08000  0.86930  Biso   1.000  H
  C13      1.0000 0.30990  0.49760  0.99020  Biso   1.000  C
  C14      1.0000 0.69010  0.99760  0.00980  Biso   1.000  C
  C15      1.0000 0.69010  0.50240  0.00980  Biso   1.000  C
  C16      1.0000 0.30990  0.00240  0.99020  Biso   1.000  C
  H17      1.0000 0.18200  0.49610  0.98390  Biso   1.000  H
  H18      1.0000 0.81800  0.99610  0.01610  Biso   1.000  H
  H19      1.0000 0.81800  0.50390  0.01610  Biso   1.000  H
  H20      1.0000 0.18200  0.00390  0.98390  Biso   1.000  H
  C17      1.0000 0.19690  0.30106  0.42580  Biso   1.000  C
  C18      1.0000 0.80310  0.80106  0.57420  Biso   1.000  C
  C19      1.0000 0.80310  0.69894  0.57420  Biso   1.000  C
  C20      1.0000 0.19690  0.19894  0.42580  Biso   1.000  C
  C21      1.0000 0.13580  0.35280  0.32940  Biso   1.000  C
  C22      1.0000 0.86420  0.85280  0.67060  Biso   1.000  C
  C23      1.0000 0.86420  0.64720  0.67060  Biso   1.000  C
  C24      1.0000 0.13580  0.14720  0.32940  Biso   1.000  C
  C25      1.0000 0.14310  0.45260  0.33500  Biso   1.000  C
  C26      1.0000 0.85690  0.95260  0.66500  Biso   1.000  C
  C27      1.0000 0.85690  0.54740  0.66500  Biso   1.000  C
  C28      1.0000 0.14310  0.04740  0.33500  Biso   1.000  C
  H21      1.0000 0.10100  0.48940  0.27340  Biso   1.000  H
  H22      1.0000 0.89900  0.98940  0.72660  Biso   1.000  H
  H23      1.0000 0.89900  0.51060  0.72660  Biso   1.000  H
  H24      1.0000 0.10100  0.01060  0.27340  Biso   1.000  H
  C29      1.0000 0.21270  0.49540  0.43210  Biso   1.000  C
  C30      1.0000 0.78730  0.99540  0.56790  Biso   1.000  C
  C31      1.0000 0.78730  0.50460  0.56790  Biso   1.000  C
  C32      1.0000 0.21270  0.00460  0.43210  Biso   1.000  C
  H25      1.0000 0.22060  0.56180  0.43650  Biso   1.000  H
  H26      1.0000 0.77940  0.06180  0.56350  Biso   1.000  H
  H27      1.0000 0.77940  0.43820  0.56350  Biso   1.000  H
  H28      1.0000 0.22060  0.93820  0.43650  Biso   1.000  H
  C33      1.0000 0.27200  0.43900  0.52430  Biso   1.000  C
  C34      1.0000 0.72800  0.93900  0.47570  Biso   1.000  C
  C35      1.0000 0.72800  0.56100  0.47570  Biso   1.000  C
  C36      1.0000 0.27200  0.06100  0.52430  Biso   1.000  C
  H29      1.0000 0.31890  0.46900  0.58990  Biso   1.000  H
  H30      1.0000 0.68110  0.96900  0.41010  Biso   1.000  H
  H31      1.0000 0.68110  0.53100  0.41010  Biso   1.000  H
  H32      1.0000 0.31890  0.03100  0.58990  Biso   1.000  H
  C37      1.0000 0.07810  0.29970  0.22910  Biso   1.000  C
  C38      1.0000 0.92190  0.79970  0.77090  Biso   1.000  C
  C39      1.0000 0.92190  0.70030  0.77090  Biso   1.000  C
  C40      1.0000 0.07810  0.20030  0.22910  Biso   1.000  C
  C41      1.0000 0.99310  0.29920  0.05400  Biso   1.000  C
  C42      1.0000 0.00690  0.79920  0.94600  Biso   1.000  C
  C43      1.0000 0.00690  0.70080  0.94600  Biso   1.000  C
  C44      1.0000 0.99310  0.20080  0.05400  Biso   1.000  C
  H33      1.0000 0.96260  0.32860  0.98490  Biso   1.000  H
  H34      1.0000 0.03740  0.82860  0.01510  Biso   1.000  H
  H35      1.0000 0.03740  0.67140  0.01510  Biso   1.000  H
  H36      1.0000 0.96260  0.17140  0.98490  Biso   1.000  H
  O15      1.0000 0.67080  0.15820  0.37340  Biso   1.000  O
  O16      1.0000 0.32920  0.65820  0.62660  Biso   1.000  O
  O17      1.0000 0.32920  0.84180  0.62660  Biso   1.000  O
  O18      1.0000 0.67080  0.34180  0.37340  Biso   1.000  O
  N9       1.0000 0.57800  0.25330  0.22530  Biso   1.000  N
  N10      1.0000 0.42200  0.75330  0.77470  Biso   1.000  N
  N11      1.0000 0.42200  0.74670  0.77470  Biso   1.000  N
  N12      1.0000 0.57800  0.24670  0.22530  Biso   1.000  N
  C45      1.0000 0.60650  0.16720  0.27280  Biso   1.000  C
  C46      1.0000 0.39350  0.66720  0.72720  Biso   1.000  C
  C47      1.0000 0.39350  0.83280  0.72720  Biso   1.000  C
  C48      1.0000 0.60650  0.33280  0.27280  Biso   1.000  C
  H37      1.0000 0.57820  0.11260  0.23040  Biso   1.000  H
  H38      1.0000 0.42180  0.61260  0.76960  Biso   1.000  H
  H39      1.0000 0.42180  0.88740  0.76960  Biso   1.000  H
  H40      1.0000 0.57820  0.38740  0.23040  Biso   1.000  H
  C49      1.0000 0.62200  0.33920  0.28880  Biso   1.000  C
  C50      1.0000 0.37800  0.83920  0.71120  Biso   1.000  C
  C51      1.0000 0.37800  0.66080  0.71120  Biso   1.000  C
  C52      1.0000 0.62200  0.16080  0.28880  Biso   1.000  C
  H41      1.0000 0.50980  0.37050  0.30790  Biso   1.000  H
  H42      1.0000 0.49020  0.87050  0.69210  Biso   1.000  H
  H43      1.0000 0.49020  0.62950  0.69210  Biso   1.000  H
  H44      1.0000 0.50980  0.12950  0.30790  Biso   1.000  H
  H45      1.0000 0.69250  0.38130  0.24380  Biso   1.000  H
  H46      1.0000 0.30750  0.88130  0.75620  Biso   1.000  H
  H47      1.0000 0.30750  0.61870  0.75620  Biso   1.000  H
  H48      1.0000 0.69250  0.11870  0.24380  Biso   1.000  H
  H49      1.0000 0.69170  0.32290  0.35720  Biso   1.000  H
  H50      1.0000 0.30830  0.82290  0.64280  Biso   1.000  H
  H51      1.0000 0.30830  0.67710  0.64280  Biso   1.000  H
  H52      1.0000 0.69170  0.17710  0.35720  Biso   1.000  H
  C53      1.0000 0.50530  0.26280  0.10940  Biso   1.000  C
  C54      1.0000 0.49470  0.76280  0.89060  Biso   1.000  C
  C55      1.0000 0.49470  0.73720  0.89060  Biso   1.000  C
  C56      1.0000 0.50530  0.23720  0.10940  Biso   1.000  C
  H53      1.0000 0.59760  0.29010  0.06370  Biso   1.000  H
  H54      1.0000 0.40240  0.79010  0.93630  Biso   1.000  H
  H55      1.0000 0.40240  0.70990  0.93630  Biso   1.000  H
  H56      1.0000 0.59760  0.20990  0.06370  Biso   1.000  H
  H57      1.0000 0.39920  0.30380  0.10750  Biso   1.000  H
  H58      1.0000 0.60080  0.80380  0.89250  Biso   1.000  H
  H59      1.0000 0.60080  0.69620  0.89250  Biso   1.000  H
  H60      1.0000 0.39920  0.19620  0.10750  Biso   1.000  H
  H61      1.0000 0.47090  0.20090  0.08020  Biso   1.000  H
  H62      1.0000 0.52910  0.70090  0.91980  Biso   1.000  H
  H63      1.0000 0.52910  0.79910  0.91980  Biso   1.000  H
  H64      1.0000 0.47090  0.29910  0.08020  Biso   1.000  H
