data_image0
_cell_length_a       7.237
_cell_length_b       23.877
_cell_length_c       13.848
_cell_angle_alpha    90
_cell_angle_beta     90
_cell_angle_gamma    90

_symmetry_space_group_name_H-M    "P 1"
_symmetry_int_tables_number       1

loop_
  _symmetry_equiv_pos_as_xyz
  'x, y, z'

loop_
  _atom_site_label
  _atom_site_occupancy
  _atom_site_fract_x
  _atom_site_fract_y
  _atom_site_fract_z
  _atom_site_thermal_displace_type
  _atom_site_B_iso_or_equiv
  _atom_site_type_symbol
  Cu1      1.0000 0.15835  0.07649  0.75000  Biso   1.000  Cu
  Cu2      1.0000 0.84165  0.92350  0.25000  Biso   1.000  Cu
  Cu3      1.0000 0.15835  0.42351  0.25000  Biso   1.000  Cu
  Cu4      1.0000 0.84165  0.57649  0.75000  Biso   1.000  Cu
  O1       1.0000 0.09380  0.12947  0.84985  Biso   1.000  O
  O2       1.0000 0.90620  0.87053  0.34985  Biso   1.000  O
  O3       1.0000 0.09380  0.37053  0.15015  Biso   1.000  O
  O4       1.0000 0.90620  0.62947  0.65015  Biso   1.000  O
  O5       1.0000 0.90620  0.87053  0.15015  Biso   1.000  O
  O6       1.0000 0.09380  0.12947  0.65015  Biso   1.000  O
  O7       1.0000 0.90620  0.62947  0.84985  Biso   1.000  O
  O8       1.0000 0.09380  0.37053  0.34985  Biso   1.000  O
  O9       1.0000 0.36810  0.16345  0.89469  Biso   1.000  O
  O10      1.0000 0.63190  0.83655  0.39469  Biso   1.000  O
  O11      1.0000 0.36810  0.33655  0.10531  Biso   1.000  O
  O12      1.0000 0.63190  0.66345  0.60531  Biso   1.000  O
  O13      1.0000 0.63190  0.83655  0.10531  Biso   1.000  O
  O14      1.0000 0.36810  0.16345  0.60531  Biso   1.000  O
  O15      1.0000 0.63190  0.66345  0.89469  Biso   1.000  O
  O16      1.0000 0.36810  0.33655  0.39469  Biso   1.000  O
  O17      1.0000 0.85830  0.04030  0.75000  Biso   1.000  O
  O18      1.0000 0.14170  0.95970  0.25000  Biso   1.000  O
  O19      1.0000 0.85830  0.45970  0.25000  Biso   1.000  O
  O20      1.0000 0.14170  0.54030  0.75000  Biso   1.000  O
  H1       1.0000 0.83000  0.00590  0.75000  Biso   1.000  H
  H2       1.0000 0.17000  0.99410  0.25000  Biso   1.000  H
  H3       1.0000 0.83000  0.49410  0.25000  Biso   1.000  H
  H4       1.0000 0.17000  0.50590  0.75000  Biso   1.000  H
  H5       1.0000 0.76100  0.05990  0.75000  Biso   1.000  H
  H6       1.0000 0.23900  0.94010  0.25000  Biso   1.000  H
  H7       1.0000 0.76100  0.44010  0.25000  Biso   1.000  H
  H8       1.0000 0.23900  0.55990  0.75000  Biso   1.000  H
  O21      1.0000 0.53770  0.10369  0.75800  Biso   1.000  O
  O22      1.0000 0.46230  0.89631  0.25800  Biso   1.000  O
  O23      1.0000 0.53770  0.39631  0.24200  Biso   1.000  O
  O24      1.0000 0.46230  0.60369  0.74200  Biso   1.000  O
  O25      1.0000 0.46230  0.89631  0.24200  Biso   1.000  O
  O26      1.0000 0.53770  0.10369  0.74200  Biso   1.000  O
  O27      1.0000 0.46230  0.60369  0.75800  Biso   1.000  O
  O28      1.0000 0.53770  0.39631  0.25800  Biso   1.000  O
  H9       1.0000 0.48300  0.12100  0.80300  Biso   1.000  H
  H10      1.0000 0.51700  0.87900  0.30300  Biso   1.000  H
  H11      1.0000 0.48300  0.37900  0.19700  Biso   1.000  H
  H12      1.0000 0.51700  0.62100  0.69700  Biso   1.000  H
  H13      1.0000 0.51700  0.87900  0.19700  Biso   1.000  H
  H14      1.0000 0.48300  0.12100  0.69700  Biso   1.000  H
  H15      1.0000 0.51700  0.62100  0.80300  Biso   1.000  H
  H16      1.0000 0.48300  0.37900  0.30300  Biso   1.000  H
  H17      1.0000 0.61000  0.12620  0.72900  Biso   1.000  H
  H18      1.0000 0.39000  0.87380  0.22900  Biso   1.000  H
  H19      1.0000 0.61000  0.37380  0.27100  Biso   1.000  H
  H20      1.0000 0.39000  0.62620  0.77100  Biso   1.000  H
  H21      1.0000 0.39000  0.87380  0.27100  Biso   1.000  H
  H22      1.0000 0.61000  0.12620  0.77100  Biso   1.000  H
  H23      1.0000 0.39000  0.62620  0.72900  Biso   1.000  H
  H24      1.0000 0.61000  0.37380  0.22900  Biso   1.000  H
  N1       1.0000 0.23600  0.01659  0.65507  Biso   1.000  N
  N2       1.0000 0.76400  0.98341  0.15507  Biso   1.000  N
  N3       1.0000 0.23600  0.48341  0.34493  Biso   1.000  N
  N4       1.0000 0.76400  0.51659  0.84493  Biso   1.000  N
  N5       1.0000 0.76400  0.98341  0.34493  Biso   1.000  N
  N6       1.0000 0.23600  0.01659  0.84493  Biso   1.000  N
  N7       1.0000 0.76400  0.51659  0.65507  Biso   1.000  N
  N8       1.0000 0.23600  0.48341  0.15507  Biso   1.000  N
  N9       1.0000 0.44880  0.82593  0.64883  Biso   1.000  N
  N10      1.0000 0.55120  0.17407  0.14883  Biso   1.000  N
  N11      1.0000 0.44880  0.67407  0.35117  Biso   1.000  N
  N12      1.0000 0.55120  0.32593  0.85117  Biso   1.000  N
  N13      1.0000 0.55120  0.17407  0.35117  Biso   1.000  N
  N14      1.0000 0.44880  0.82593  0.85117  Biso   1.000  N
  N15      1.0000 0.55120  0.32593  0.64883  Biso   1.000  N
  N16      1.0000 0.44880  0.67407  0.14883  Biso   1.000  N
  C1       1.0000 0.19760  0.16395  0.89414  Biso   1.000  C
  C2       1.0000 0.80240  0.83605  0.39414  Biso   1.000  C
  C3       1.0000 0.19760  0.33605  0.10586  Biso   1.000  C
  C4       1.0000 0.80240  0.66395  0.60586  Biso   1.000  C
  C5       1.0000 0.80240  0.83605  0.10586  Biso   1.000  C
  C6       1.0000 0.19760  0.16395  0.60586  Biso   1.000  C
  C7       1.0000 0.80240  0.66395  0.89414  Biso   1.000  C
  C8       1.0000 0.19760  0.33605  0.39414  Biso   1.000  C
  C9       1.0000 0.09470  0.20856  0.94985  Biso   1.000  C
  C10      1.0000 0.90530  0.79144  0.44985  Biso   1.000  C
  C11      1.0000 0.09470  0.29144  0.05015  Biso   1.000  C
  C12      1.0000 0.90530  0.70856  0.55015  Biso   1.000  C
  C13      1.0000 0.90530  0.79144  0.05015  Biso   1.000  C
  C14      1.0000 0.09470  0.20856  0.55015  Biso   1.000  C
  C15      1.0000 0.90530  0.70856  0.94985  Biso   1.000  C
  C16      1.0000 0.09470  0.29144  0.44985  Biso   1.000  C
  C17      1.0000 0.18930  0.25000  0.00000  Biso   1.000  C
  C18      1.0000 0.81070  0.75000  0.50000  Biso   1.000  C
  C19      1.0000 0.81070  0.75000  0.00000  Biso   1.000  C
  C20      1.0000 0.18930  0.25000  0.50000  Biso   1.000  C
  H25      1.0000 0.31780  0.25000  0.00000  Biso   1.000  H
  H26      1.0000 0.68220  0.75000  0.50000  Biso   1.000  H
  H27      1.0000 0.68220  0.75000  0.00000  Biso   1.000  H
  H28      1.0000 0.31780  0.25000  0.50000  Biso   1.000  H
  C21      1.0000 0.90230  0.20896  0.94993  Biso   1.000  C
  C22      1.0000 0.09770  0.79104  0.44993  Biso   1.000  C
  C23      1.0000 0.90230  0.29104  0.05007  Biso   1.000  C
  C24      1.0000 0.09770  0.70896  0.55007  Biso   1.000  C
  C25      1.0000 0.09770  0.79104  0.05007  Biso   1.000  C
  C26      1.0000 0.90230  0.20896  0.55007  Biso   1.000  C
  C27      1.0000 0.09770  0.70896  0.94993  Biso   1.000  C
  C28      1.0000 0.90230  0.29104  0.44993  Biso   1.000  C
  H29      1.0000 0.83730  0.18160  0.91630  Biso   1.000  H
  H30      1.0000 0.16270  0.81840  0.41630  Biso   1.000  H
  H31      1.0000 0.83730  0.31840  0.08370  Biso   1.000  H
  H32      1.0000 0.16270  0.68160  0.58370  Biso   1.000  H
  H33      1.0000 0.16270  0.81840  0.08370  Biso   1.000  H
  H34      1.0000 0.83730  0.18160  0.58370  Biso   1.000  H
  H35      1.0000 0.16270  0.68160  0.91630  Biso   1.000  H
  H36      1.0000 0.83730  0.31840  0.41630  Biso   1.000  H
  C29      1.0000 0.80800  0.25000  0.00000  Biso   1.000  C
  C30      1.0000 0.19200  0.75000  0.50000  Biso   1.000  C
  C31      1.0000 0.19200  0.75000  0.00000  Biso   1.000  C
  C32      1.0000 0.80800  0.25000  0.50000  Biso   1.000  C
  H37      1.0000 0.67950  0.25000  0.00000  Biso   1.000  H
  H38      1.0000 0.32050  0.75000  0.50000  Biso   1.000  H
  H39      1.0000 0.32050  0.75000  0.00000  Biso   1.000  H
  H40      1.0000 0.67950  0.25000  0.50000  Biso   1.000  H
  C33      1.0000 0.29710  0.96926  0.69834  Biso   1.000  C
  C34      1.0000 0.70290  0.03074  0.19834  Biso   1.000  C
  C35      1.0000 0.29710  0.53074  0.30166  Biso   1.000  C
  C36      1.0000 0.70290  0.46926  0.80166  Biso   1.000  C
  C37      1.0000 0.70290  0.03074  0.30166  Biso   1.000  C
  C38      1.0000 0.29710  0.96926  0.80166  Biso   1.000  C
  C39      1.0000 0.70290  0.46926  0.69834  Biso   1.000  C
  C40      1.0000 0.29710  0.53074  0.19834  Biso   1.000  C
  C41      1.0000 0.35160  0.92195  0.64667  Biso   1.000  C
  C42      1.0000 0.64840  0.07805  0.14667  Biso   1.000  C
  C43      1.0000 0.35160  0.57805  0.35333  Biso   1.000  C
  C44      1.0000 0.64840  0.42195  0.85333  Biso   1.000  C
  C45      1.0000 0.64840  0.07805  0.35333  Biso   1.000  C
  C46      1.0000 0.35160  0.92195  0.85333  Biso   1.000  C
  C47      1.0000 0.64840  0.42195  0.64667  Biso   1.000  C
  C48      1.0000 0.35160  0.57805  0.14667  Biso   1.000  C
  C49      1.0000 0.34340  0.92426  0.54579  Biso   1.000  C
  C50      1.0000 0.65660  0.07574  0.04579  Biso   1.000  C
  C51      1.0000 0.34340  0.57574  0.45421  Biso   1.000  C
  C52      1.0000 0.65660  0.42426  0.95421  Biso   1.000  C
  C53      1.0000 0.65660  0.07574  0.45421  Biso   1.000  C
  C54      1.0000 0.34340  0.92426  0.95421  Biso   1.000  C
  C55      1.0000 0.65660  0.42426  0.54579  Biso   1.000  C
  C56      1.0000 0.34340  0.57574  0.04579  Biso   1.000  C
  H41      1.0000 0.38100  0.89390  0.50860  Biso   1.000  H
  H42      1.0000 0.61900  0.10610  0.00860  Biso   1.000  H
  H43      1.0000 0.38100  0.60610  0.49140  Biso   1.000  H
  H44      1.0000 0.61900  0.39390  0.99140  Biso   1.000  H
  H45      1.0000 0.61900  0.10610  0.49140  Biso   1.000  H
  H46      1.0000 0.38100  0.89390  0.99140  Biso   1.000  H
  H47      1.0000 0.61900  0.39390  0.50860  Biso   1.000  H
  H48      1.0000 0.38100  0.60610  0.00860  Biso   1.000  H
  C57      1.0000 0.27920  0.97185  0.50290  Biso   1.000  C
  C58      1.0000 0.72080  0.02815  0.00290  Biso   1.000  C
  C59      1.0000 0.27920  0.52815  0.49710  Biso   1.000  C
  C60      1.0000 0.72080  0.47185  0.99710  Biso   1.000  C
  C61      1.0000 0.72080  0.02815  0.49710  Biso   1.000  C
  C62      1.0000 0.27920  0.97185  0.99710  Biso   1.000  C
  C63      1.0000 0.72080  0.47185  0.50290  Biso   1.000  C
  C64      1.0000 0.27920  0.52815  0.00290  Biso   1.000  C
  H49      1.0000 0.27060  0.97390  0.43600  Biso   1.000  H
  H50      1.0000 0.72940  0.02610  0.93600  Biso   1.000  H
  H51      1.0000 0.27060  0.52610  0.56400  Biso   1.000  H
  H52      1.0000 0.72940  0.47390  0.06400  Biso   1.000  H
  H53      1.0000 0.72940  0.02610  0.56400  Biso   1.000  H
  H54      1.0000 0.27060  0.97390  0.06400  Biso   1.000  H
  H55      1.0000 0.72940  0.47390  0.43600  Biso   1.000  H
  H56      1.0000 0.27060  0.52610  0.93600  Biso   1.000  H
  C65      1.0000 0.22690  0.01721  0.55919  Biso   1.000  C
  C66      1.0000 0.77310  0.98279  0.05919  Biso   1.000  C
  C67      1.0000 0.22690  0.48279  0.44081  Biso   1.000  C
  C68      1.0000 0.77310  0.51721  0.94081  Biso   1.000  C
  C69      1.0000 0.77310  0.98279  0.44081  Biso   1.000  C
  C70      1.0000 0.22690  0.01721  0.94081  Biso   1.000  C
  C71      1.0000 0.77310  0.51721  0.55919  Biso   1.000  C
  C72      1.0000 0.22690  0.48279  0.05919  Biso   1.000  C
  H57      1.0000 0.18380  0.04930  0.52860  Biso   1.000  H
  H58      1.0000 0.81620  0.95070  0.02860  Biso   1.000  H
  H59      1.0000 0.18380  0.45070  0.47140  Biso   1.000  H
  H60      1.0000 0.81620  0.54930  0.97140  Biso   1.000  H
  H61      1.0000 0.81620  0.95070  0.47140  Biso   1.000  H
  H62      1.0000 0.18380  0.04930  0.97140  Biso   1.000  H
  H63      1.0000 0.81620  0.54930  0.52860  Biso   1.000  H
  H64      1.0000 0.18380  0.45070  0.02860  Biso   1.000  H
  C73      1.0000 0.40550  0.87216  0.69982  Biso   1.000  C
  C74      1.0000 0.59450  0.12784  0.19982  Biso   1.000  C
  C75      1.0000 0.40550  0.62784  0.30018  Biso   1.000  C
  C76      1.0000 0.59450  0.37216  0.80018  Biso   1.000  C
  C77      1.0000 0.59450  0.12784  0.30018  Biso   1.000  C
  C78      1.0000 0.40550  0.87216  0.80018  Biso   1.000  C
  C79      1.0000 0.59450  0.37216  0.69982  Biso   1.000  C
  C80      1.0000 0.40550  0.62784  0.19982  Biso   1.000  C
  C81      1.0000 0.48780  0.78066  0.70064  Biso   1.000  C
  C82      1.0000 0.51220  0.21934  0.20064  Biso   1.000  C
  C83      1.0000 0.48780  0.71934  0.29936  Biso   1.000  C
  C84      1.0000 0.51220  0.28066  0.79936  Biso   1.000  C
  C85      1.0000 0.51220  0.21934  0.29936  Biso   1.000  C
  C86      1.0000 0.48780  0.78066  0.79936  Biso   1.000  C
  C87      1.0000 0.51220  0.28066  0.70064  Biso   1.000  C
  C88      1.0000 0.48780  0.71934  0.20064  Biso   1.000  C
  H65      1.0000 0.51620  0.74760  0.66840  Biso   1.000  H
  H66      1.0000 0.48380  0.25240  0.16840  Biso   1.000  H
  H67      1.0000 0.51620  0.75240  0.33160  Biso   1.000  H
  H68      1.0000 0.48380  0.24760  0.83160  Biso   1.000  H
  H69      1.0000 0.48380  0.25240  0.33160  Biso   1.000  H
  H70      1.0000 0.51620  0.74760  0.83160  Biso   1.000  H
  H71      1.0000 0.48380  0.24760  0.66840  Biso   1.000  H
  H72      1.0000 0.51620  0.75240  0.16840  Biso   1.000  H
  O29      1.0000 0.81790  0.93817  0.83520  Biso   1.000  O
  O30      1.0000 0.18210  0.06183  0.33520  Biso   1.000  O
  O31      1.0000 0.81790  0.56183  0.16480  Biso   1.000  O
  O32      1.0000 0.18210  0.43817  0.66480  Biso   1.000  O
  O33      1.0000 0.18210  0.06183  0.16480  Biso   1.000  O
  O34      1.0000 0.81790  0.93817  0.66480  Biso   1.000  O
  O35      1.0000 0.18210  0.43817  0.83520  Biso   1.000  O
  O36      1.0000 0.81790  0.56183  0.33520  Biso   1.000  O
  N17      1.0000 0.90810  0.86414  0.74370  Biso   1.000  N
  N18      1.0000 0.09190  0.13586  0.24370  Biso   1.000  N
  N19      1.0000 0.90810  0.63586  0.25630  Biso   1.000  N
  N20      1.0000 0.09190  0.36414  0.75630  Biso   1.000  N
  N21      1.0000 0.09190  0.13586  0.25630  Biso   1.000  N
  N22      1.0000 0.90810  0.86414  0.75630  Biso   1.000  N
  N23      1.0000 0.09190  0.36414  0.74370  Biso   1.000  N
  N24      1.0000 0.90810  0.63586  0.24370  Biso   1.000  N
  C89      1.0000 0.87430  0.88880  0.82900  Biso   1.000  C
  C90      1.0000 0.12570  0.11120  0.32900  Biso   1.000  C
  C91      1.0000 0.87430  0.61120  0.17100  Biso   1.000  C
  C92      1.0000 0.12570  0.38880  0.67100  Biso   1.000  C
  C93      1.0000 0.12570  0.11120  0.17100  Biso   1.000  C
  C94      1.0000 0.87430  0.88880  0.67100  Biso   1.000  C
  C95      1.0000 0.12570  0.38880  0.82900  Biso   1.000  C
  C96      1.0000 0.87430  0.61120  0.32900  Biso   1.000  C
  H73      1.0000 0.89350  0.86850  0.88540  Biso   1.000  H
  H74      1.0000 0.10650  0.13150  0.38540  Biso   1.000  H
  H75      1.0000 0.89350  0.63150  0.11460  Biso   1.000  H
  H76      1.0000 0.10650  0.36850  0.61460  Biso   1.000  H
  H77      1.0000 0.10650  0.13150  0.11460  Biso   1.000  H
  H78      1.0000 0.89350  0.86850  0.61460  Biso   1.000  H
  H79      1.0000 0.10650  0.36850  0.88540  Biso   1.000  H
  H80      1.0000 0.89350  0.63150  0.38540  Biso   1.000  H
  C97      1.0000 0.88020  0.89350  0.65380  Biso   1.000  C
  C98      1.0000 0.11980  0.10650  0.15380  Biso   1.000  C
  C99      1.0000 0.88020  0.60650  0.34620  Biso   1.000  C
  C100     1.0000 0.11980  0.39350  0.84620  Biso   1.000  C
  C101     1.0000 0.11980  0.10650  0.34620  Biso   1.000  C
  C102     1.0000 0.88020  0.89350  0.84620  Biso   1.000  C
  C103     1.0000 0.11980  0.39350  0.65380  Biso   1.000  C
  C104     1.0000 0.88020  0.60650  0.15380  Biso   1.000  C
  H81      1.0000 0.77190  0.87910  0.62230  Biso   1.000  H
  H82      1.0000 0.22810  0.12090  0.12230  Biso   1.000  H
  H83      1.0000 0.77190  0.62090  0.37770  Biso   1.000  H
  H84      1.0000 0.22810  0.37910  0.87770  Biso   1.000  H
  H85      1.0000 0.22810  0.12090  0.37770  Biso   1.000  H
  H86      1.0000 0.77190  0.87910  0.87770  Biso   1.000  H
  H87      1.0000 0.22810  0.37910  0.62230  Biso   1.000  H
  H88      1.0000 0.77190  0.62090  0.12230  Biso   1.000  H
  H89      1.0000 0.98570  0.88810  0.61280  Biso   1.000  H
  H90      1.0000 0.01430  0.11190  0.11280  Biso   1.000  H
  H91      1.0000 0.98570  0.61190  0.38720  Biso   1.000  H
  H92      1.0000 0.01430  0.38810  0.88720  Biso   1.000  H
  H93      1.0000 0.01430  0.11190  0.38720  Biso   1.000  H
  H94      1.0000 0.98570  0.88810  0.88720  Biso   1.000  H
  H95      1.0000 0.01430  0.38810  0.61280  Biso   1.000  H
  H96      1.0000 0.98570  0.61190  0.11280  Biso   1.000  H
  H97      1.0000 0.86430  0.93270  0.66640  Biso   1.000  H
  H98      1.0000 0.13570  0.06730  0.16640  Biso   1.000  H
  H99      1.0000 0.86430  0.56730  0.33360  Biso   1.000  H
  H100     1.0000 0.13570  0.43270  0.83360  Biso   1.000  H
  H101     1.0000 0.13570  0.06730  0.33360  Biso   1.000  H
  H102     1.0000 0.86430  0.93270  0.83360  Biso   1.000  H
  H103     1.0000 0.13570  0.43270  0.66640  Biso   1.000  H
  H104     1.0000 0.86430  0.56730  0.16640  Biso   1.000  H
  C105     1.0000 0.97270  0.80654  0.74090  Biso   1.000  C
  C106     1.0000 0.02730  0.19346  0.24090  Biso   1.000  C
  C107     1.0000 0.97270  0.69346  0.25910  Biso   1.000  C
  C108     1.0000 0.02730  0.30654  0.75910  Biso   1.000  C
  C109     1.0000 0.02730  0.19346  0.25910  Biso   1.000  C
  C110     1.0000 0.97270  0.80654  0.75910  Biso   1.000  C
  C111     1.0000 0.02730  0.30654  0.74090  Biso   1.000  C
  C112     1.0000 0.97270  0.69346  0.24090  Biso   1.000  C
  H105     1.0000 0.08560  0.80340  0.77680  Biso   1.000  H
  H106     1.0000 0.91440  0.19660  0.27680  Biso   1.000  H
  H107     1.0000 0.08560  0.69660  0.22320  Biso   1.000  H
  H108     1.0000 0.91440  0.30340  0.72320  Biso   1.000  H
  H109     1.0000 0.91440  0.19660  0.22320  Biso   1.000  H
  H110     1.0000 0.08560  0.80340  0.72320  Biso   1.000  H
  H111     1.0000 0.91440  0.30340  0.77680  Biso   1.000  H
  H112     1.0000 0.08560  0.69660  0.27680  Biso   1.000  H
  H113     1.0000 0.99420  0.79570  0.67510  Biso   1.000  H
  H114     1.0000 0.00580  0.20430  0.17510  Biso   1.000  H
  H115     1.0000 0.99420  0.70430  0.32490  Biso   1.000  H
  H116     1.0000 0.00580  0.29570  0.82490  Biso   1.000  H
  H117     1.0000 0.00580  0.20430  0.32490  Biso   1.000  H
  H118     1.0000 0.99420  0.79570  0.82490  Biso   1.000  H
  H119     1.0000 0.00580  0.29570  0.67510  Biso   1.000  H
  H120     1.0000 0.99420  0.70430  0.17510  Biso   1.000  H
  H121     1.0000 0.88090  0.78250  0.76890  Biso   1.000  H
  H122     1.0000 0.11910  0.21750  0.26890  Biso   1.000  H
  H123     1.0000 0.88090  0.71750  0.23110  Biso   1.000  H
  H124     1.0000 0.11910  0.28250  0.73110  Biso   1.000  H
  H125     1.0000 0.11910  0.21750  0.23110  Biso   1.000  H
  H126     1.0000 0.88090  0.78250  0.73110  Biso   1.000  H
  H127     1.0000 0.11910  0.28250  0.76890  Biso   1.000  H
  H128     1.0000 0.88090  0.71750  0.26890  Biso   1.000  H
