data_image0
_cell_length_a       13.225
_cell_length_b       10.567
_cell_length_c       20.522
_cell_angle_alpha    90
_cell_angle_beta     99.71
_cell_angle_gamma    90

_symmetry_space_group_name_H-M    "P 1"
_symmetry_int_tables_number       1

loop_
  _symmetry_equiv_pos_as_xyz
  'x, y, z'

loop_
  _atom_site_label
  _atom_site_occupancy
  _atom_site_fract_x
  _atom_site_fract_y
  _atom_site_fract_z
  _atom_site_thermal_displace_type
  _atom_site_B_iso_or_equiv
  _atom_site_type_symbol
  Cu1      1.0000 0.26000  0.33440  0.67760  Biso   1.000  Cu
  Cu2      1.0000 0.74000  0.83440  0.82240  Biso   1.000  Cu
  Cu3      1.0000 0.74000  0.66560  0.32240  Biso   1.000  Cu
  Cu4      1.0000 0.26000  0.16560  0.17760  Biso   1.000  Cu
  Cl1      1.0000 0.16070  0.67170  0.46040  Biso   1.000  Cl
  Cl2      1.0000 0.83930  0.17170  0.03960  Biso   1.000  Cl
  Cl3      1.0000 0.83930  0.32830  0.53960  Biso   1.000  Cl
  Cl4      1.0000 0.16070  0.82830  0.96040  Biso   1.000  Cl
  Cl5      1.0000 0.32340  0.65910  0.24440  Biso   1.000  Cl
  Cl6      1.0000 0.67660  0.15910  0.25560  Biso   1.000  Cl
  Cl7      1.0000 0.67660  0.34090  0.75560  Biso   1.000  Cl
  Cl8      1.0000 0.32340  0.84090  0.74440  Biso   1.000  Cl
  O1       1.0000 0.38630  0.17510  0.70860  Biso   1.000  O
  O2       1.0000 0.61370  0.67510  0.79140  Biso   1.000  O
  O3       1.0000 0.61370  0.82490  0.29140  Biso   1.000  O
  O4       1.0000 0.38630  0.32490  0.20860  Biso   1.000  O
  O5       1.0000 0.40250  0.74970  0.26720  Biso   1.000  O
  O6       1.0000 0.59750  0.24970  0.23280  Biso   1.000  O
  O7       1.0000 0.59750  0.25030  0.73280  Biso   1.000  O
  O8       1.0000 0.40250  0.75030  0.76720  Biso   1.000  O
  O9       1.0000 0.08510  0.58380  0.43380  Biso   1.000  O
  O10      1.0000 0.91490  0.08380  0.06620  Biso   1.000  O
  O11      1.0000 0.91490  0.41620  0.56620  Biso   1.000  O
  O12      1.0000 0.08510  0.91620  0.93380  Biso   1.000  O
  O13      1.0000 0.12330  0.79600  0.44270  Biso   1.000  O
  O14      1.0000 0.87670  0.29600  0.05730  Biso   1.000  O
  O15      1.0000 0.87670  0.20400  0.55730  Biso   1.000  O
  O16      1.0000 0.12330  0.70400  0.94270  Biso   1.000  O
  O17      1.0000 0.16840  0.66900  0.52860  Biso   1.000  O
  O18      1.0000 0.83160  0.16900  0.97140  Biso   1.000  O
  O19      1.0000 0.83160  0.33100  0.47140  Biso   1.000  O
  O20      1.0000 0.16840  0.83100  0.02860  Biso   1.000  O
  O21      1.0000 0.24750  0.64810  0.43830  Biso   1.000  O
  O22      1.0000 0.75250  0.14810  0.06170  Biso   1.000  O
  O23      1.0000 0.75250  0.35190  0.56170  Biso   1.000  O
  O24      1.0000 0.24750  0.85190  0.93830  Biso   1.000  O
  O25      1.0000 0.33590  0.61510  0.18100  Biso   1.000  O
  O26      1.0000 0.66410  0.11510  0.31900  Biso   1.000  O
  O27      1.0000 0.66410  0.38490  0.81900  Biso   1.000  O
  O28      1.0000 0.33590  0.88490  0.68100  Biso   1.000  O
  O29      1.0000 0.33860  0.55190  0.28310  Biso   1.000  O
  O30      1.0000 0.66140  0.05190  0.21690  Biso   1.000  O
  O31      1.0000 0.66140  0.44810  0.71690  Biso   1.000  O
  O32      1.0000 0.33860  0.94810  0.78310  Biso   1.000  O
  O33      1.0000 0.23190  0.71650  0.23900  Biso   1.000  O
  O34      1.0000 0.76810  0.21650  0.26100  Biso   1.000  O
  O35      1.0000 0.76810  0.28350  0.76100  Biso   1.000  O
  O36      1.0000 0.23190  0.78350  0.73900  Biso   1.000  O
  N1       1.0000 0.30830  0.42220  0.76790  Biso   1.000  N
  N2       1.0000 0.69170  0.92220  0.73210  Biso   1.000  N
  N3       1.0000 0.69170  0.57780  0.23210  Biso   1.000  N
  N4       1.0000 0.30830  0.07780  0.26790  Biso   1.000  N
  N5       1.0000 0.15460  0.23870  0.71960  Biso   1.000  N
  N6       1.0000 0.84540  0.73870  0.78040  Biso   1.000  N
  N7       1.0000 0.84540  0.76130  0.28040  Biso   1.000  N
  N8       1.0000 0.15460  0.26130  0.21960  Biso   1.000  N
  N9       1.0000 0.19920  0.25720  0.58920  Biso   1.000  N
  N10      1.0000 0.80080  0.75720  0.91080  Biso   1.000  N
  N11      1.0000 0.80080  0.74280  0.41080  Biso   1.000  N
  N12      1.0000 0.19920  0.24280  0.08920  Biso   1.000  N
  N13      1.0000 0.36110  0.43480  0.63330  Biso   1.000  N
  N14      1.0000 0.63890  0.93480  0.86670  Biso   1.000  N
  N15      1.0000 0.63890  0.56520  0.36670  Biso   1.000  N
  N16      1.0000 0.36110  0.06520  0.13330  Biso   1.000  N
  C1       1.0000 0.40760  0.43210  0.79260  Biso   1.000  C
  C2       1.0000 0.59240  0.93210  0.70740  Biso   1.000  C
  C3       1.0000 0.59240  0.56790  0.20740  Biso   1.000  C
  C4       1.0000 0.40760  0.06790  0.29260  Biso   1.000  C
  C5       1.0000 0.44340  0.48470  0.85430  Biso   1.000  C
  C6       1.0000 0.55660  0.98470  0.64570  Biso   1.000  C
  C7       1.0000 0.55660  0.51530  0.14570  Biso   1.000  C
  C8       1.0000 0.44340  0.01530  0.35430  Biso   1.000  C
  C9       1.0000 0.37190  0.53300  0.88970  Biso   1.000  C
  C10      1.0000 0.62810  0.03300  0.61030  Biso   1.000  C
  C11      1.0000 0.62810  0.46700  0.11030  Biso   1.000  C
  C12      1.0000 0.37190  0.96700  0.38970  Biso   1.000  C
  C13      1.0000 0.26920  0.52680  0.86370  Biso   1.000  C
  C14      1.0000 0.73080  0.02680  0.63630  Biso   1.000  C
  C15      1.0000 0.73080  0.47320  0.13630  Biso   1.000  C
  C16      1.0000 0.26920  0.97320  0.36370  Biso   1.000  C
  C17      1.0000 0.24040  0.46830  0.80380  Biso   1.000  C
  C18      1.0000 0.75960  0.96830  0.69620  Biso   1.000  C
  C19      1.0000 0.75960  0.53170  0.19620  Biso   1.000  C
  C20      1.0000 0.24040  0.03170  0.30380  Biso   1.000  C
  C21      1.0000 0.18490  0.17100  0.77600  Biso   1.000  C
  C22      1.0000 0.81510  0.67100  0.72400  Biso   1.000  C
  C23      1.0000 0.81510  0.82900  0.22400  Biso   1.000  C
  C24      1.0000 0.18490  0.32900  0.27600  Biso   1.000  C
  C25      1.0000 0.11350  0.11260  0.80920  Biso   1.000  C
  C26      1.0000 0.88650  0.61260  0.69080  Biso   1.000  C
  C27      1.0000 0.88650  0.88740  0.19080  Biso   1.000  C
  C28      1.0000 0.11350  0.38740  0.30920  Biso   1.000  C
  C29      1.0000 0.01230  0.13130  0.78590  Biso   1.000  C
  C30      1.0000 0.98770  0.63130  0.71410  Biso   1.000  C
  C31      1.0000 0.98770  0.86870  0.21410  Biso   1.000  C
  C32      1.0000 0.01230  0.36870  0.28590  Biso   1.000  C
  C33      1.0000 0.98050  0.20040  0.72850  Biso   1.000  C
  C34      1.0000 0.01950  0.70040  0.77150  Biso   1.000  C
  C35      1.0000 0.01950  0.79960  0.27150  Biso   1.000  C
  C36      1.0000 0.98050  0.29960  0.22850  Biso   1.000  C
  C37      1.0000 0.05480  0.25000  0.69650  Biso   1.000  C
  C38      1.0000 0.94520  0.75000  0.80350  Biso   1.000  C
  C39      1.0000 0.94520  0.75000  0.30350  Biso   1.000  C
  C40      1.0000 0.05480  0.25000  0.19650  Biso   1.000  C
  C41      1.0000 0.15050  0.33090  0.54220  Biso   1.000  C
  C42      1.0000 0.84950  0.83090  0.95780  Biso   1.000  C
  C43      1.0000 0.84950  0.66910  0.45780  Biso   1.000  C
  C44      1.0000 0.15050  0.16910  0.04220  Biso   1.000  C
  C45      1.0000 0.09750  0.28450  0.48400  Biso   1.000  C
  C46      1.0000 0.90250  0.78450  0.01600  Biso   1.000  C
  C47      1.0000 0.90250  0.71550  0.51600  Biso   1.000  C
  C48      1.0000 0.09750  0.21550  0.98400  Biso   1.000  C
  C49      1.0000 0.09800  0.15510  0.47320  Biso   1.000  C
  C50      1.0000 0.90200  0.65510  0.02680  Biso   1.000  C
  C51      1.0000 0.90200  0.84490  0.52680  Biso   1.000  C
  C52      1.0000 0.09800  0.34490  0.97320  Biso   1.000  C
  C53      1.0000 0.15040  0.07550  0.52090  Biso   1.000  C
  C54      1.0000 0.84960  0.57550  0.97910  Biso   1.000  C
  C55      1.0000 0.84960  0.92450  0.47910  Biso   1.000  C
  C56      1.0000 0.15040  0.42450  0.02090  Biso   1.000  C
  C57      1.0000 0.43450  0.37700  0.60740  Biso   1.000  C
  C58      1.0000 0.56550  0.87700  0.89260  Biso   1.000  C
  C59      1.0000 0.56550  0.62300  0.39260  Biso   1.000  C
  C60      1.0000 0.43450  0.12300  0.10740  Biso   1.000  C
  C61      1.0000 0.51350  0.44200  0.58620  Biso   1.000  C
  C62      1.0000 0.48650  0.94200  0.91380  Biso   1.000  C
  C63      1.0000 0.48650  0.55800  0.41380  Biso   1.000  C
  C64      1.0000 0.51350  0.05800  0.08620  Biso   1.000  C
  C65      1.0000 0.51440  0.57210  0.59060  Biso   1.000  C
  C66      1.0000 0.48560  0.07210  0.90940  Biso   1.000  C
  C67      1.0000 0.48560  0.42790  0.40940  Biso   1.000  C
  C68      1.0000 0.51440  0.92790  0.09060  Biso   1.000  C
  C69      1.0000 0.43600  0.63280  0.61400  Biso   1.000  C
  C70      1.0000 0.56400  0.13280  0.88600  Biso   1.000  C
  C71      1.0000 0.56400  0.36720  0.38600  Biso   1.000  C
  C72      1.0000 0.43600  0.86720  0.11400  Biso   1.000  C
  C73      1.0000 0.36150  0.56250  0.63550  Biso   1.000  C
  C74      1.0000 0.63850  0.06250  0.86450  Biso   1.000  C
  C75      1.0000 0.63850  0.43750  0.36450  Biso   1.000  C
  C76      1.0000 0.36150  0.93750  0.13550  Biso   1.000  C
  C77      1.0000 0.93540  0.07360  0.81950  Biso   1.000  C
  C78      1.0000 0.06460  0.57360  0.68050  Biso   1.000  C
  C79      1.0000 0.06460  0.92640  0.18050  Biso   1.000  C
  C80      1.0000 0.93540  0.42640  0.31950  Biso   1.000  C
  C81      1.0000 0.59920  0.64450  0.57310  Biso   1.000  C
  C82      1.0000 0.40080  0.14450  0.92690  Biso   1.000  C
  C83      1.0000 0.40080  0.35550  0.42690  Biso   1.000  C
  C84      1.0000 0.59920  0.85550  0.07310  Biso   1.000  C
  C85      1.0000 0.04600  0.10370  0.41120  Biso   1.000  C
  C86      1.0000 0.95400  0.60370  0.08880  Biso   1.000  C
  C87      1.0000 0.95400  0.89630  0.58880  Biso   1.000  C
  C88      1.0000 0.04600  0.39630  0.91120  Biso   1.000  C
  C89      1.0000 0.19950  0.13070  0.57880  Biso   1.000  C
  C90      1.0000 0.80050  0.63070  0.92120  Biso   1.000  C
  C91      1.0000 0.80050  0.86930  0.42120  Biso   1.000  C
  C92      1.0000 0.19950  0.36930  0.07880  Biso   1.000  C
  C93      1.0000 0.40560  0.59190  0.95280  Biso   1.000  C
  C94      1.0000 0.59440  0.09190  0.54720  Biso   1.000  C
  C95      1.0000 0.59440  0.40810  0.04720  Biso   1.000  C
  C96      1.0000 0.40560  0.90810  0.45280  Biso   1.000  C
  N17      1.0000 0.12600  0.52270  0.65770  Biso   1.000  N
  N18      1.0000 0.87400  0.02270  0.84230  Biso   1.000  N
  N19      1.0000 0.87400  0.47730  0.34230  Biso   1.000  N
  N20      1.0000 0.12600  0.97730  0.15770  Biso   1.000  N
  N21      1.0000 0.66570  0.70360  0.56050  Biso   1.000  N
  N22      1.0000 0.33430  0.20360  0.93950  Biso   1.000  N
  N23      1.0000 0.33430  0.29640  0.43950  Biso   1.000  N
  N24      1.0000 0.66570  0.79640  0.06050  Biso   1.000  N
  N25      1.0000 0.00590  0.06610  0.36220  Biso   1.000  N
  N26      1.0000 0.99410  0.56610  0.13780  Biso   1.000  N
  N27      1.0000 0.99410  0.93390  0.63780  Biso   1.000  N
  N28      1.0000 0.00590  0.43390  0.86220  Biso   1.000  N
  N29      1.0000 0.43410  0.63780  0.00390  Biso   1.000  N
  N30      1.0000 0.56590  0.13780  0.49610  Biso   1.000  N
  N31      1.0000 0.56590  0.36220  0.99610  Biso   1.000  N
  N32      1.0000 0.43410  0.86220  0.50390  Biso   1.000  N
  H1       1.0000 0.36360  0.11860  0.73990  Biso   1.000  H
  H2       1.0000 0.63640  0.61860  0.76010  Biso   1.000  H
  H3       1.0000 0.63640  0.88140  0.26010  Biso   1.000  H
  H4       1.0000 0.36360  0.38140  0.23990  Biso   1.000  H
  H5       1.0000 0.44960  0.21400  0.72840  Biso   1.000  H
  H6       1.0000 0.55040  0.71400  0.77160  Biso   1.000  H
  H7       1.0000 0.55040  0.78600  0.27160  Biso   1.000  H
  H8       1.0000 0.44960  0.28600  0.22840  Biso   1.000  H
  H9       1.0000 0.39660  0.12840  0.67020  Biso   1.000  H
  H10      1.0000 0.60340  0.62840  0.82980  Biso   1.000  H
  H11      1.0000 0.60340  0.87160  0.32980  Biso   1.000  H
  H12      1.0000 0.39660  0.37160  0.17020  Biso   1.000  H
  H13      1.0000 0.45650  0.40150  0.76670  Biso   1.000  H
  H14      1.0000 0.54350  0.90150  0.73330  Biso   1.000  H
  H15      1.0000 0.54350  0.59850  0.23330  Biso   1.000  H
  H16      1.0000 0.45650  0.09850  0.26670  Biso   1.000  H
  H17      1.0000 0.51550  0.48780  0.87170  Biso   1.000  H
  H18      1.0000 0.48450  0.98780  0.62830  Biso   1.000  H
  H19      1.0000 0.48450  0.51220  0.12830  Biso   1.000  H
  H20      1.0000 0.51550  0.01220  0.37170  Biso   1.000  H
  H21      1.0000 0.21880  0.56330  0.88670  Biso   1.000  H
  H22      1.0000 0.78120  0.06330  0.61330  Biso   1.000  H
  H23      1.0000 0.78120  0.43670  0.11330  Biso   1.000  H
  H24      1.0000 0.21880  0.93670  0.38670  Biso   1.000  H
  H25      1.0000 0.16860  0.45920  0.78690  Biso   1.000  H
  H26      1.0000 0.83140  0.95920  0.71310  Biso   1.000  H
  H27      1.0000 0.83140  0.54080  0.21310  Biso   1.000  H
  H28      1.0000 0.16860  0.04080  0.28690  Biso   1.000  H
  H29      1.0000 0.25680  0.16360  0.79340  Biso   1.000  H
  H30      1.0000 0.74320  0.66360  0.70660  Biso   1.000  H
  H31      1.0000 0.74320  0.83640  0.20660  Biso   1.000  H
  H32      1.0000 0.25680  0.33640  0.29340  Biso   1.000  H
  H33      1.0000 0.13550  0.06060  0.84730  Biso   1.000  H
  H34      1.0000 0.86450  0.56060  0.65270  Biso   1.000  H
  H35      1.0000 0.86450  0.93940  0.15270  Biso   1.000  H
  H36      1.0000 0.13550  0.43940  0.34730  Biso   1.000  H
  H37      1.0000 0.90900  0.21360  0.71190  Biso   1.000  H
  H38      1.0000 0.09100  0.71360  0.78810  Biso   1.000  H
  H39      1.0000 0.09100  0.78640  0.28810  Biso   1.000  H
  H40      1.0000 0.90900  0.28640  0.21190  Biso   1.000  H
  H41      1.0000 0.03390  0.29450  0.65560  Biso   1.000  H
  H42      1.0000 0.96610  0.79450  0.84440  Biso   1.000  H
  H43      1.0000 0.96610  0.70550  0.34440  Biso   1.000  H
  H44      1.0000 0.03390  0.20550  0.15560  Biso   1.000  H
  H45      1.0000 0.15220  0.42080  0.54910  Biso   1.000  H
  H46      1.0000 0.84780  0.92080  0.95090  Biso   1.000  H
  H47      1.0000 0.84780  0.57920  0.45090  Biso   1.000  H
  H48      1.0000 0.15220  0.07920  0.04910  Biso   1.000  H
  H49      1.0000 0.06090  0.34020  0.45130  Biso   1.000  H
  H50      1.0000 0.93910  0.84020  0.04870  Biso   1.000  H
  H51      1.0000 0.93910  0.65980  0.54870  Biso   1.000  H
  H52      1.0000 0.06090  0.15980  0.95130  Biso   1.000  H
  H53      1.0000 0.15250  0.98780  0.51380  Biso   1.000  H
  H54      1.0000 0.84750  0.48780  0.98620  Biso   1.000  H
  H55      1.0000 0.84750  0.01220  0.48620  Biso   1.000  H
  H56      1.0000 0.15250  0.51220  0.01380  Biso   1.000  H
  H57      1.0000 0.43180  0.28660  0.60280  Biso   1.000  H
  H58      1.0000 0.56820  0.78660  0.89720  Biso   1.000  H
  H59      1.0000 0.56820  0.71340  0.39720  Biso   1.000  H
  H60      1.0000 0.43180  0.21340  0.10280  Biso   1.000  H
  H61      1.0000 0.56680  0.39760  0.56930  Biso   1.000  H
  H62      1.0000 0.43320  0.89760  0.93070  Biso   1.000  H
  H63      1.0000 0.43320  0.60240  0.43070  Biso   1.000  H
  H64      1.0000 0.56680  0.10240  0.06930  Biso   1.000  H
  H65      1.0000 0.43370  0.72350  0.61530  Biso   1.000  H
  H66      1.0000 0.56630  0.22350  0.88470  Biso   1.000  H
  H67      1.0000 0.56630  0.27650  0.38470  Biso   1.000  H
  H68      1.0000 0.43370  0.77650  0.11530  Biso   1.000  H
  H69      1.0000 0.30800  0.60520  0.65300  Biso   1.000  H
  H70      1.0000 0.69200  0.10520  0.84700  Biso   1.000  H
  H71      1.0000 0.69200  0.39480  0.34700  Biso   1.000  H
  H72      1.0000 0.30800  0.89480  0.15300  Biso   1.000  H
  H73      1.0000 0.23520  0.07670  0.61270  Biso   1.000  H
  H74      1.0000 0.76480  0.57670  0.88730  Biso   1.000  H
  H75      1.0000 0.76480  0.92330  0.38730  Biso   1.000  H
  H76      1.0000 0.23520  0.42330  0.11270  Biso   1.000  H
