data_image0
_cell_length_a       3.7413
_cell_length_b       25.9098
_cell_length_c       7.0354
_cell_angle_alpha    90
_cell_angle_beta     95.727
_cell_angle_gamma    90

_symmetry_space_group_name_H-M    "P 1"
_symmetry_int_tables_number       1

loop_
  _symmetry_equiv_pos_as_xyz
  'x, y, z'

loop_
  _atom_site_label
  _atom_site_occupancy
  _atom_site_fract_x
  _atom_site_fract_y
  _atom_site_fract_z
  _atom_site_thermal_displace_type
  _atom_site_B_iso_or_equiv
  _atom_site_type_symbol
  Cu1      1.0000 0.00000  0.00000  0.50000  Biso   1.000  Cu
  Cu2      1.0000 0.50000  0.50000  0.00000  Biso   1.000  Cu
  Cl1      1.0000 0.57690  0.03645  0.28343  Biso   1.000  Cl
  Cl2      1.0000 0.92310  0.53645  0.21657  Biso   1.000  Cl
  Cl3      1.0000 0.42310  0.96355  0.71657  Biso   1.000  Cl
  Cl4      1.0000 0.07690  0.46355  0.78343  Biso   1.000  Cl
  N1       1.0000 0.82110  0.76209  0.92120  Biso   1.000  N
  N2       1.0000 0.67890  0.26209  0.57880  Biso   1.000  N
  N3       1.0000 0.17890  0.23791  0.07880  Biso   1.000  N
  N4       1.0000 0.32110  0.73791  0.42120  Biso   1.000  N
  N5       1.0000 0.96910  0.93355  0.34680  Biso   1.000  N
  N6       1.0000 0.53090  0.43355  0.15320  Biso   1.000  N
  N7       1.0000 0.03090  0.06645  0.65320  Biso   1.000  N
  N8       1.0000 0.46910  0.56645  0.84680  Biso   1.000  N
  C1       1.0000 0.85650  0.79728  0.01790  Biso   1.000  C
  C2       1.0000 0.64350  0.29728  0.48210  Biso   1.000  C
  C3       1.0000 0.14350  0.20272  0.98210  Biso   1.000  C
  C4       1.0000 0.35650  0.70272  0.51790  Biso   1.000  C
  C5       1.0000 0.89940  0.84345  0.13480  Biso   1.000  C
  C6       1.0000 0.60060  0.34345  0.36520  Biso   1.000  C
  C7       1.0000 0.10060  0.15655  0.86520  Biso   1.000  C
  C8       1.0000 0.39940  0.65655  0.63480  Biso   1.000  C
  C9       1.0000 0.82850  0.84353  0.32520  Biso   1.000  C
  C10      1.0000 0.67150  0.34353  0.17480  Biso   1.000  C
  C11      1.0000 0.17150  0.15647  0.67480  Biso   1.000  C
  C12      1.0000 0.32850  0.65647  0.82520  Biso   1.000  C
  H1       1.0000 0.75590  0.81350  0.38310  Biso   1.000  H
  H2       1.0000 0.74410  0.31350  0.11690  Biso   1.000  H
  H3       1.0000 0.24410  0.18650  0.61690  Biso   1.000  H
  H4       1.0000 0.25590  0.68650  0.88310  Biso   1.000  H
  C13      1.0000 0.86860  0.88917  0.42620  Biso   1.000  C
  C14      1.0000 0.63140  0.38917  0.07380  Biso   1.000  C
  C15      1.0000 0.13140  0.11083  0.57380  Biso   1.000  C
  C16      1.0000 0.36860  0.61083  0.92620  Biso   1.000  C
  H5       1.0000 0.82450  0.88930  0.55400  Biso   1.000  H
  H6       1.0000 0.67550  0.38930  0.94600  Biso   1.000  H
  H7       1.0000 0.17550  0.11070  0.44600  Biso   1.000  H
  H8       1.0000 0.32450  0.61070  0.05400  Biso   1.000  H
  C17      1.0000 0.03820  0.93344  0.16270  Biso   1.000  C
  C18      1.0000 0.46180  0.43344  0.33730  Biso   1.000  C
  C19      1.0000 0.96180  0.06656  0.83730  Biso   1.000  C
  C20      1.0000 0.53820  0.56656  0.66270  Biso   1.000  C
  H9       1.0000 0.10860  0.96390  0.10760  Biso   1.000  H
  H10      1.0000 0.39140  0.46390  0.39240  Biso   1.000  H
  H11      1.0000 0.89140  0.03610  0.89240  Biso   1.000  H
  H12      1.0000 0.60860  0.53610  0.60760  Biso   1.000  H
  C21      1.0000 0.00700  0.88918  0.05410  Biso   1.000  C
  C22      1.0000 0.49300  0.38918  0.44590  Biso   1.000  C
  C23      1.0000 0.99300  0.11082  0.94590  Biso   1.000  C
  C24      1.0000 0.50700  0.61082  0.55410  Biso   1.000  C
  H13      1.0000 0.05760  0.88990  0.92730  Biso   1.000  H
  H14      1.0000 0.44240  0.38990  0.57270  Biso   1.000  H
  H15      1.0000 0.94240  0.11010  0.07270  Biso   1.000  H
  H16      1.0000 0.55760  0.61010  0.42730  Biso   1.000  H
