data_image0
_cell_length_a       3.779
_cell_length_b       25.711
_cell_length_c       7.104
_cell_angle_alpha    90
_cell_angle_beta     95.98
_cell_angle_gamma    90

_symmetry_space_group_name_H-M    "P 1"
_symmetry_int_tables_number       1

loop_
  _symmetry_equiv_pos_as_xyz
  'x, y, z'

loop_
  _atom_site_label
  _atom_site_occupancy
  _atom_site_fract_x
  _atom_site_fract_y
  _atom_site_fract_z
  _atom_site_thermal_displace_type
  _atom_site_B_iso_or_equiv
  _atom_site_type_symbol
  N1       1.0000 0.03530  0.93370  0.15200  Biso   1.000  N
  N2       1.0000 0.46470  0.43370  0.34800  Biso   1.000  N
  N3       1.0000 0.96470  0.06630  0.84800  Biso   1.000  N
  N4       1.0000 0.53530  0.56630  0.65200  Biso   1.000  N
  C1       1.0000 0.12920  0.88920  0.07710  Biso   1.000  C
  C2       1.0000 0.37080  0.38920  0.42290  Biso   1.000  C
  C3       1.0000 0.87080  0.11080  0.92290  Biso   1.000  C
  C4       1.0000 0.62920  0.61080  0.57710  Biso   1.000  C
  C5       1.0000 0.15250  0.84350  0.17680  Biso   1.000  C
  C6       1.0000 0.34750  0.34350  0.32320  Biso   1.000  C
  C7       1.0000 0.84750  0.15650  0.82320  Biso   1.000  C
  C8       1.0000 0.65250  0.65650  0.67680  Biso   1.000  C
  C9       1.0000 0.09910  0.84380  0.36310  Biso   1.000  C
  C10      1.0000 0.40090  0.34380  0.13690  Biso   1.000  C
  C11      1.0000 0.90090  0.15620  0.63690  Biso   1.000  C
  C12      1.0000 0.59910  0.65620  0.86310  Biso   1.000  C
  C13      1.0000 0.99510  0.88900  0.44530  Biso   1.000  C
  C14      1.0000 0.50490  0.38900  0.05470  Biso   1.000  C
  C15      1.0000 0.00490  0.11100  0.55470  Biso   1.000  C
  C16      1.0000 0.49510  0.61100  0.94530  Biso   1.000  C
  C17      1.0000 0.96930  0.93410  0.33330  Biso   1.000  C
  C18      1.0000 0.53070  0.43410  0.16670  Biso   1.000  C
  C19      1.0000 0.03070  0.06590  0.66670  Biso   1.000  C
  C20      1.0000 0.46930  0.56590  0.83330  Biso   1.000  C
  C21      1.0000 0.12330  0.79770  0.47880  Biso   1.000  C
  C22      1.0000 0.37670  0.29770  0.02120  Biso   1.000  C
  C23      1.0000 0.87670  0.20230  0.52120  Biso   1.000  C
  C24      1.0000 0.62330  0.70230  0.97880  Biso   1.000  C
  N5       1.0000 0.17550  0.76360  0.57360  Biso   1.000  N
  N6       1.0000 0.32450  0.26360  0.92640  Biso   1.000  N
  N7       1.0000 0.82450  0.23640  0.42640  Biso   1.000  N
  N8       1.0000 0.67550  0.73640  0.07360  Biso   1.000  N
  Cu1      1.0000 0.00000  0.00000  0.00000  Biso   1.000  Cu
  Cu2      1.0000 0.50000  0.50000  0.50000  Biso   1.000  Cu
  Cl1      1.0000 0.41700  0.03710  0.21280  Biso   1.000  Cl
  Cl2      1.0000 0.08300  0.53710  0.28720  Biso   1.000  Cl
  Cl3      1.0000 0.58300  0.96290  0.78720  Biso   1.000  Cl
  Cl4      1.0000 0.91700  0.46290  0.71280  Biso   1.000  Cl
  H1       1.0000 0.18280  0.88890  0.94800  Biso   1.000  H
  H2       1.0000 0.31720  0.38890  0.55200  Biso   1.000  H
  H3       1.0000 0.81720  0.11110  0.05200  Biso   1.000  H
  H4       1.0000 0.68280  0.61110  0.44800  Biso   1.000  H
  H5       1.0000 0.20630  0.81160  0.11570  Biso   1.000  H
  H6       1.0000 0.29370  0.31160  0.38430  Biso   1.000  H
  H7       1.0000 0.79370  0.18840  0.88430  Biso   1.000  H
  H8       1.0000 0.70630  0.68840  0.61570  Biso   1.000  H
  H9       1.0000 0.94190  0.88960  0.57450  Biso   1.000  H
  H10      1.0000 0.55810  0.38960  0.92550  Biso   1.000  H
  H11      1.0000 0.05810  0.11040  0.42550  Biso   1.000  H
  H12      1.0000 0.44190  0.61040  0.07450  Biso   1.000  H
  H13      1.0000 0.90230  0.96620  0.38850  Biso   1.000  H
  H14      1.0000 0.59770  0.46620  0.11150  Biso   1.000  H
  H15      1.0000 0.09770  0.03380  0.61150  Biso   1.000  H
  H16      1.0000 0.40230  0.53380  0.88850  Biso   1.000  H
