data_image0
_cell_length_a       3.589
_cell_length_b       25.903
_cell_length_c       7.116
_cell_angle_alpha    90
_cell_angle_beta     96.05
_cell_angle_gamma    90

_symmetry_space_group_name_H-M    "P 1"
_symmetry_int_tables_number       1

loop_
  _symmetry_equiv_pos_as_xyz
  'x, y, z'

loop_
  _atom_site_label
  _atom_site_occupancy
  _atom_site_fract_x
  _atom_site_fract_y
  _atom_site_fract_z
  _atom_site_thermal_displace_type
  _atom_site_B_iso_or_equiv
  _atom_site_type_symbol
  Cu1      1.0000 0.50000  0.50000  0.50000  Biso   1.000  Cu
  Cu2      1.0000 0.00000  0.00000  0.00000  Biso   1.000  Cu
  Cl1      1.0000 0.08171  0.46296  0.28730  Biso   1.000  Cl
  Cl2      1.0000 0.41829  0.96296  0.21270  Biso   1.000  Cl
  Cl3      1.0000 0.91829  0.53704  0.71270  Biso   1.000  Cl
  Cl4      1.0000 0.58171  0.03704  0.78730  Biso   1.000  Cl
  N1       1.0000 0.53250  0.43383  0.65290  Biso   1.000  N
  N2       1.0000 0.96750  0.93383  0.84710  Biso   1.000  N
  N3       1.0000 0.46750  0.56617  0.34710  Biso   1.000  N
  N4       1.0000 0.03250  0.06617  0.15290  Biso   1.000  N
  C1       1.0000 0.59840  0.34460  0.86590  Biso   1.000  C
  C2       1.0000 0.90160  0.84460  0.63410  Biso   1.000  C
  C3       1.0000 0.40160  0.65540  0.13410  Biso   1.000  C
  C4       1.0000 0.09840  0.15540  0.36590  Biso   1.000  C
  C5       1.0000 0.66530  0.34361  0.67810  Biso   1.000  C
  C6       1.0000 0.83470  0.84361  0.82190  Biso   1.000  C
  C7       1.0000 0.33470  0.65639  0.32190  Biso   1.000  C
  C8       1.0000 0.16530  0.15639  0.17810  Biso   1.000  C
  C9       1.0000 0.49540  0.39024  0.94370  Biso   1.000  C
  C10      1.0000 0.00460  0.89024  0.55630  Biso   1.000  C
  C11      1.0000 0.50460  0.60976  0.05630  Biso   1.000  C
  C12      1.0000 0.99540  0.10976  0.44370  Biso   1.000  C
  C13      1.0000 0.62760  0.38935  0.57740  Biso   1.000  C
  C14      1.0000 0.87240  0.88935  0.92260  Biso   1.000  C
  C15      1.0000 0.37240  0.61065  0.42260  Biso   1.000  C
  C16      1.0000 0.12760  0.11065  0.07740  Biso   1.000  C
  C17      1.0000 0.46590  0.43380  0.83340  Biso   1.000  C
  C18      1.0000 0.03410  0.93380  0.66660  Biso   1.000  C
  C19      1.0000 0.53410  0.56620  0.16660  Biso   1.000  C
  C20      1.0000 0.96590  0.06620  0.33340  Biso   1.000  C
  N5       1.0000 0.67130  0.26261  0.07470  Biso   1.000  N
  N6       1.0000 0.82870  0.76261  0.42530  Biso   1.000  N
  N7       1.0000 0.32870  0.73739  0.92530  Biso   1.000  N
  N8       1.0000 0.17130  0.23739  0.57470  Biso   1.000  N
  C21      1.0000 0.63780  0.29815  0.97990  Biso   1.000  C
  C22      1.0000 0.86220  0.79815  0.52010  Biso   1.000  C
  C23      1.0000 0.36220  0.70185  0.02010  Biso   1.000  C
  C24      1.0000 0.13780  0.20185  0.47990  Biso   1.000  C
  H1       1.0000 0.42900  0.39240  0.05700  Biso   1.000  H
  H2       1.0000 0.07100  0.89240  0.44300  Biso   1.000  H
  H3       1.0000 0.57100  0.60760  0.94300  Biso   1.000  H
  H4       1.0000 0.92900  0.10760  0.55700  Biso   1.000  H
  H5       1.0000 0.67900  0.39010  0.45100  Biso   1.000  H
  H6       1.0000 0.82100  0.89010  0.04900  Biso   1.000  H
  H7       1.0000 0.32100  0.60990  0.54900  Biso   1.000  H
  H8       1.0000 0.17900  0.10990  0.95100  Biso   1.000  H
  H9       1.0000 0.37200  0.46160  0.88700  Biso   1.000  H
  H10      1.0000 0.12800  0.96160  0.61300  Biso   1.000  H
  H11      1.0000 0.62800  0.53840  0.11300  Biso   1.000  H
  H12      1.0000 0.87200  0.03840  0.38700  Biso   1.000  H
  H13      1.0000 0.76200  0.31360  0.63900  Biso   1.000  H
  H14      1.0000 0.73800  0.81360  0.86100  Biso   1.000  H
  H15      1.0000 0.23800  0.68640  0.36100  Biso   1.000  H
  H16      1.0000 0.26200  0.18640  0.13900  Biso   1.000  H
