data_image0
_cell_length_a       9.264
_cell_length_b       10.759
_cell_length_c       16.99
_cell_angle_alpha    93.483
_cell_angle_beta     93.053
_cell_angle_gamma    106.781

_symmetry_space_group_name_H-M    "P 1"
_symmetry_int_tables_number       1

loop_
  _symmetry_equiv_pos_as_xyz
  'x, y, z'

loop_
  _atom_site_label
  _atom_site_occupancy
  _atom_site_fract_x
  _atom_site_fract_y
  _atom_site_fract_z
  _atom_site_thermal_displace_type
  _atom_site_B_iso_or_equiv
  _atom_site_type_symbol
  Br1      1.0000 0.72593  0.63551  0.99541  Biso   1.000  Br
  Br2      1.0000 0.27407  0.36449  0.00459  Biso   1.000  Br
  Cu1      1.0000 0.55123  0.28142  0.75342  Biso   1.000  Cu
  Cu2      1.0000 0.44877  0.71858  0.24658  Biso   1.000  Cu
  Br3      1.0000 0.54821  0.69776  0.65953  Biso   1.000  Br
  Br4      1.0000 0.45179  0.30224  0.34047  Biso   1.000  Br
  Br5      1.0000 0.27904  0.68685  0.52033  Biso   1.000  Br
  Br6      1.0000 0.72096  0.31315  0.47967  Biso   1.000  Br
  Br7      1.0000 0.05922  0.78933  0.08973  Biso   1.000  Br
  Br8      1.0000 0.94078  0.21067  0.91027  Biso   1.000  Br
  C1       1.0000 0.40770  0.58030  0.50850  Biso   1.000  C
  C2       1.0000 0.59230  0.41970  0.49150  Biso   1.000  C
  N1       1.0000 0.41760  0.11610  0.82174  Biso   1.000  N
  N2       1.0000 0.58240  0.88390  0.17826  Biso   1.000  N
  O1       1.0000 0.69990  0.38270  0.84150  Biso   1.000  O
  O2       1.0000 0.30010  0.61730  0.15850  Biso   1.000  O
  N3       1.0000 0.66890  0.15090  0.74171  Biso   1.000  N
  N4       1.0000 0.33110  0.84910  0.25829  Biso   1.000  N
  O3       1.0000 0.60630  0.30270  0.95345  Biso   1.000  O
  O4       1.0000 0.39370  0.69730  0.04655  Biso   1.000  O
  N5       1.0000 0.40950  0.38990  0.76248  Biso   1.000  N
  N6       1.0000 0.59050  0.61010  0.23752  Biso   1.000  N
  O5       1.0000 0.89080  0.64445  0.79999  Biso   1.000  O
  O6       1.0000 0.10920  0.35555  0.20001  Biso   1.000  O
  H1       1.0000 0.88620  0.56450  0.80060  Biso   1.000  H
  H2       1.0000 0.11380  0.43550  0.19940  Biso   1.000  H
  H3       1.0000 0.88140  0.65070  0.75050  Biso   1.000  H
  H4       1.0000 0.11860  0.34930  0.24950  Biso   1.000  H
  C3       1.0000 0.63028  0.04781  0.78647  Biso   1.000  C
  C4       1.0000 0.36972  0.95219  0.21353  Biso   1.000  C
  O7       1.0000 0.71225  0.42310  0.66997  Biso   1.000  O
  O8       1.0000 0.28775  0.57690  0.33003  Biso   1.000  O
  O9       1.0000 0.85549  0.60260  0.62415  Biso   1.000  O
  O10      1.0000 0.14451  0.39740  0.37585  Biso   1.000  O
  C5       1.0000 0.85991  0.43578  0.95845  Biso   1.000  C
  C6       1.0000 0.14009  0.56422  0.04155  Biso   1.000  C
  C7       1.0000 0.02412  0.62150  0.03809  Biso   1.000  C
  C8       1.0000 0.97588  0.37850  0.96191  Biso   1.000  C
  C9       1.0000 0.70666  0.36548  0.91494  Biso   1.000  C
  C10      1.0000 0.29334  0.63452  0.08506  Biso   1.000  C
  C11      1.0000 0.88473  0.55852  0.99777  Biso   1.000  C
  C12      1.0000 0.11527  0.44148  0.00223  Biso   1.000  C
  C13      1.0000 0.52055  0.58348  0.56724  Biso   1.000  C
  C14      1.0000 0.47945  0.41652  0.43276  Biso   1.000  C
  N7       1.0000 0.41654  0.21036  0.64915  Biso   1.000  N
  N8       1.0000 0.58346  0.78964  0.35085  Biso   1.000  N
  C15      1.0000 0.61410  0.50495  0.55938  Biso   1.000  C
  C16      1.0000 0.38590  0.49505  0.44062  Biso   1.000  C
  C17      1.0000 0.31028  0.27249  0.63813  Biso   1.000  C
  C18      1.0000 0.68972  0.72751  0.36187  Biso   1.000  C
  C19      1.0000 0.73776  0.51028  0.62403  Biso   1.000  C
  C20      1.0000 0.26224  0.48972  0.37597  Biso   1.000  C
  C21      1.0000 0.71439  0.95814  0.79082  Biso   1.000  C
  C22      1.0000 0.28561  0.04186  0.20918  Biso   1.000  C
  C23      1.0000 0.49919  0.03119  0.83132  Biso   1.000  C
  C24      1.0000 0.50081  0.96881  0.16868  Biso   1.000  C
  C25      1.0000 0.30378  0.36758  0.69968  Biso   1.000  C
  C26      1.0000 0.69622  0.63242  0.30032  Biso   1.000  C
  O11      1.0000 0.06285  0.84229  0.62585  Biso   1.000  O
  O12      1.0000 0.93715  0.15771  0.37415  Biso   1.000  O
  H5       1.0000 0.00780  0.76700  0.62220  Biso   1.000  H
  H6       1.0000 0.99220  0.23300  0.37780  Biso   1.000  H
  C27      1.0000 0.87396  0.07679  0.69796  Biso   1.000  C
  C28      1.0000 0.12604  0.92321  0.30204  Biso   1.000  C
  H7       1.0000 0.95410  0.08740  0.66580  Biso   1.000  H
  H8       1.0000 0.04590  0.91260  0.33420  Biso   1.000  H
  C29      1.0000 0.29775  0.10169  0.86263  Biso   1.000  C
  C30      1.0000 0.70225  0.89831  0.13737  Biso   1.000  C
  H9       1.0000 0.24030  0.15890  0.85620  Biso   1.000  H
  H10      1.0000 0.75970  0.84110  0.14380  Biso   1.000  H
  C31      1.0000 0.46279  0.93073  0.88188  Biso   1.000  C
  C32      1.0000 0.53721  0.06927  0.11812  Biso   1.000  C
  C33      1.0000 0.67313  0.85717  0.84316  Biso   1.000  C
  C34      1.0000 0.32687  0.14283  0.15684  Biso   1.000  C
  H11      1.0000 0.72910  0.79830  0.84680  Biso   1.000  H
  H12      1.0000 0.27090  0.20170  0.15320  Biso   1.000  H
  C35      1.0000 0.78815  0.16613  0.69925  Biso   1.000  C
  C36      1.0000 0.21185  0.83387  0.30075  Biso   1.000  C
  H13      1.0000 0.81610  0.23780  0.66940  Biso   1.000  H
  H14      1.0000 0.18390  0.76220  0.33060  Biso   1.000  H
  C37      1.0000 0.20722  0.24682  0.57173  Biso   1.000  C
  C38      1.0000 0.79278  0.75318  0.42827  Biso   1.000  C
  C39      1.0000 0.55506  0.84575  0.88723  Biso   1.000  C
  C40      1.0000 0.44494  0.15425  0.11277  Biso   1.000  C
  H15      1.0000 0.53280  0.78070  0.92220  Biso   1.000  H
  H16      1.0000 0.46720  0.21930  0.07780  Biso   1.000  H
  C41      1.0000 0.83831  0.97623  0.74380  Biso   1.000  C
  C42      1.0000 0.16169  0.02377  0.25620  Biso   1.000  C
  H17      1.0000 0.89590  0.91830  0.74440  Biso   1.000  H
  H18      1.0000 0.10410  0.08170  0.25560  Biso   1.000  H
  C43      1.0000 0.25259  0.00572  0.91481  Biso   1.000  C
  C44      1.0000 0.74741  0.99428  0.08519  Biso   1.000  C
  H19      1.0000 0.16780  0.00030  0.94290  Biso   1.000  H
  H20      1.0000 0.83220  0.99970  0.05710  Biso   1.000  H
  C45      1.0000 0.19060  0.42970  0.69528  Biso   1.000  C
  C46      1.0000 0.80940  0.57030  0.30472  Biso   1.000  C
  C47      1.0000 0.40272  0.47314  0.82138  Biso   1.000  C
  C48      1.0000 0.59728  0.52686  0.17862  Biso   1.000  C
  H21      1.0000 0.47540  0.49020  0.86370  Biso   1.000  H
  H22      1.0000 0.52460  0.50980  0.13630  Biso   1.000  H
  C49      1.0000 0.18548  0.51573  0.75945  Biso   1.000  C
  C50      1.0000 0.81452  0.48427  0.24055  Biso   1.000  C
  H23      1.0000 0.11130  0.55840  0.75930  Biso   1.000  H
  H24      1.0000 0.88870  0.44160  0.24070  Biso   1.000  H
  C51      1.0000 0.08987  0.40372  0.62503  Biso   1.000  C
  C52      1.0000 0.91013  0.59628  0.37497  Biso   1.000  C
  H25      1.0000 0.01730  0.44760  0.62010  Biso   1.000  H
  H26      1.0000 0.98270  0.55240  0.37990  Biso   1.000  H
  C53      1.0000 0.32436  0.08827  0.52628  Biso   1.000  C
  C54      1.0000 0.67564  0.91173  0.47372  Biso   1.000  C
  H27      1.0000 0.33210  0.02430  0.48880  Biso   1.000  H
  H28      1.0000 0.66790  0.97570  0.51120  Biso   1.000  H
  C55      1.0000 0.09860  0.31639  0.56584  Biso   1.000  C
  C56      1.0000 0.90140  0.68361  0.43416  Biso   1.000  C
  H29      1.0000 0.03260  0.30190  0.52080  Biso   1.000  H
  H30      1.0000 0.96740  0.69810  0.47920  Biso   1.000  H
  C57      1.0000 0.33391  0.91938  0.92442  Biso   1.000  C
  C58      1.0000 0.66609  0.08062  0.07558  Biso   1.000  C
  H31      1.0000 0.30450  0.85390  0.95870  Biso   1.000  H
  H32      1.0000 0.69550  0.14610  0.04130  Biso   1.000  H
  C59      1.0000 0.29080  0.53698  0.82291  Biso   1.000  C
  C60      1.0000 0.70920  0.46302  0.17709  Biso   1.000  C
  H33      1.0000 0.28760  0.59300  0.86620  Biso   1.000  H
  H34      1.0000 0.71240  0.40700  0.13380  Biso   1.000  H
  C61      1.0000 0.42160  0.11980  0.59409  Biso   1.000  C
  C62      1.0000 0.57840  0.88020  0.40591  Biso   1.000  C
  H35      1.0000 0.49330  0.07550  0.60120  Biso   1.000  H
  H36      1.0000 0.50670  0.92450  0.39880  Biso   1.000  H
  C63      1.0000 0.21754  0.15073  0.51438  Biso   1.000  C
  C64      1.0000 0.78246  0.84927  0.48562  Biso   1.000  C
  H37      1.0000 0.15220  0.13010  0.46890  Biso   1.000  H
  H38      1.0000 0.84780  0.86990  0.53110  Biso   1.000  H
  C65      1.0000 0.16944  0.85953  0.68855  Biso   1.000  C
  C66      1.0000 0.83056  0.14047  0.31145  Biso   1.000  C
  H39      1.0000 0.23940  0.81190  0.67610  Biso   1.000  H
  H40      1.0000 0.76060  0.18810  0.32390  Biso   1.000  H
  H41      1.0000 0.12010  0.82830  0.73480  Biso   1.000  H
  H42      1.0000 0.87990  0.17170  0.26520  Biso   1.000  H
  H43      1.0000 0.22300  0.95040  0.69840  Biso   1.000  H
  H44      1.0000 0.77700  0.04960  0.30160  Biso   1.000  H
