data_image0
_cell_length_a       30.772
_cell_length_b       12.7256
_cell_length_c       10.2351
_cell_angle_alpha    90
_cell_angle_beta     90
_cell_angle_gamma    90

_symmetry_space_group_name_H-M    "P 1"
_symmetry_int_tables_number       1

loop_
  _symmetry_equiv_pos_as_xyz
  'x, y, z'

loop_
  _atom_site_label
  _atom_site_occupancy
  _atom_site_fract_x
  _atom_site_fract_y
  _atom_site_fract_z
  _atom_site_thermal_displace_type
  _atom_site_B_iso_or_equiv
  _atom_site_type_symbol
  Cu1      1.0000 0.47751  0.50210  0.60672  Biso   1.000  Cu
  Cu2      1.0000 0.02249  0.99790  0.10672  Biso   1.000  Cu
  Cu3      1.0000 0.52249  0.50210  0.89328  Biso   1.000  Cu
  Cu4      1.0000 0.97751  0.99790  0.39328  Biso   1.000  Cu
  Cu5      1.0000 0.52249  0.49790  0.39328  Biso   1.000  Cu
  Cu6      1.0000 0.97751  0.00210  0.89328  Biso   1.000  Cu
  Cu7      1.0000 0.47751  0.49790  0.10672  Biso   1.000  Cu
  Cu8      1.0000 0.02249  0.00210  0.60672  Biso   1.000  Cu
  O1       1.0000 0.48247  0.35060  0.60130  Biso   1.000  O
  O2       1.0000 0.01753  0.14940  0.10130  Biso   1.000  O
  O3       1.0000 0.51753  0.35060  0.89870  Biso   1.000  O
  O4       1.0000 0.98247  0.14940  0.39870  Biso   1.000  O
  O5       1.0000 0.51753  0.64940  0.39870  Biso   1.000  O
  O6       1.0000 0.98247  0.85060  0.89870  Biso   1.000  O
  O7       1.0000 0.48247  0.64940  0.10130  Biso   1.000  O
  O8       1.0000 0.01753  0.85060  0.60130  Biso   1.000  O
  O9       1.0000 0.52265  0.34730  0.41950  Biso   1.000  O
  O10      1.0000 0.97735  0.15270  0.91950  Biso   1.000  O
  O11      1.0000 0.47735  0.34730  0.08050  Biso   1.000  O
  O12      1.0000 0.02265  0.15270  0.58050  Biso   1.000  O
  O13      1.0000 0.47735  0.65270  0.58050  Biso   1.000  O
  O14      1.0000 0.02265  0.84730  0.08050  Biso   1.000  O
  O15      1.0000 0.52265  0.65270  0.91950  Biso   1.000  O
  O16      1.0000 0.97735  0.84730  0.41950  Biso   1.000  O
  O17      1.0000 0.42493  0.48780  0.50120  Biso   1.000  O
  O18      1.0000 0.07507  0.01220  0.00120  Biso   1.000  O
  O19      1.0000 0.57507  0.48780  0.99880  Biso   1.000  O
  O20      1.0000 0.92493  0.01220  0.49880  Biso   1.000  O
  O21      1.0000 0.57507  0.51220  0.49880  Biso   1.000  O
  O22      1.0000 0.92493  0.98780  0.99880  Biso   1.000  O
  O23      1.0000 0.42493  0.51220  0.00120  Biso   1.000  O
  O24      1.0000 0.07507  0.98780  0.50120  Biso   1.000  O
  O25      1.0000 0.46232  0.48990  0.31570  Biso   1.000  O
  O26      1.0000 0.03768  0.01010  0.81570  Biso   1.000  O
  O27      1.0000 0.53768  0.48990  0.18430  Biso   1.000  O
  O28      1.0000 0.96232  0.01010  0.68430  Biso   1.000  O
  O29      1.0000 0.53768  0.51010  0.68430  Biso   1.000  O
  O30      1.0000 0.96232  0.98990  0.18430  Biso   1.000  O
  O31      1.0000 0.46232  0.51010  0.81570  Biso   1.000  O
  O32      1.0000 0.03768  0.98990  0.31570  Biso   1.000  O
  C1       1.0000 0.50392  0.30480  0.51380  Biso   1.000  C
  C2       1.0000 0.99608  0.19520  0.01380  Biso   1.000  C
  C3       1.0000 0.49608  0.30480  0.98620  Biso   1.000  C
  C4       1.0000 0.00392  0.19520  0.48620  Biso   1.000  C
  C5       1.0000 0.49608  0.69520  0.48620  Biso   1.000  C
  C6       1.0000 0.00392  0.80480  0.98620  Biso   1.000  C
  C7       1.0000 0.50392  0.69520  0.01380  Biso   1.000  C
  C8       1.0000 0.99608  0.80480  0.51380  Biso   1.000  C
  C9       1.0000 0.50607  0.18470  0.52400  Biso   1.000  C
  C10      1.0000 0.99393  0.31530  0.02400  Biso   1.000  C
  C11      1.0000 0.49393  0.18470  0.97600  Biso   1.000  C
  C12      1.0000 0.00607  0.31530  0.47600  Biso   1.000  C
  C13      1.0000 0.49393  0.81530  0.47600  Biso   1.000  C
  C14      1.0000 0.00607  0.68470  0.97600  Biso   1.000  C
  C15      1.0000 0.50607  0.81530  0.02400  Biso   1.000  C
  C16      1.0000 0.99393  0.68470  0.52400  Biso   1.000  C
  H1       1.0000 0.49900  0.16430  0.61280  Biso   1.000  H
  H2       1.0000 0.00100  0.33570  0.11280  Biso   1.000  H
  H3       1.0000 0.50100  0.16430  0.88720  Biso   1.000  H
  H4       1.0000 0.99900  0.33570  0.38720  Biso   1.000  H
  H5       1.0000 0.50100  0.83570  0.38720  Biso   1.000  H
  H6       1.0000 0.99900  0.66430  0.88720  Biso   1.000  H
  H7       1.0000 0.49900  0.83570  0.11280  Biso   1.000  H
  H8       1.0000 0.00100  0.66430  0.61280  Biso   1.000  H
  H9       1.0000 0.48420  0.15470  0.46690  Biso   1.000  H
  H10      1.0000 0.01580  0.34530  0.96690  Biso   1.000  H
  H11      1.0000 0.51580  0.15470  0.03310  Biso   1.000  H
  H12      1.0000 0.98420  0.34530  0.53310  Biso   1.000  H
  H13      1.0000 0.51580  0.84530  0.53310  Biso   1.000  H
  H14      1.0000 0.98420  0.65470  0.03310  Biso   1.000  H
  H15      1.0000 0.48420  0.84530  0.96690  Biso   1.000  H
  H16      1.0000 0.01580  0.65470  0.46690  Biso   1.000  H
  C17      1.0000 0.54940  0.13950  0.48880  Biso   1.000  C
  C18      1.0000 0.95060  0.36050  0.98880  Biso   1.000  C
  C19      1.0000 0.45060  0.13950  0.01120  Biso   1.000  C
  C20      1.0000 0.04940  0.36050  0.51120  Biso   1.000  C
  C21      1.0000 0.45060  0.86050  0.51120  Biso   1.000  C
  C22      1.0000 0.04940  0.63950  0.01120  Biso   1.000  C
  C23      1.0000 0.54940  0.86050  0.98880  Biso   1.000  C
  C24      1.0000 0.95060  0.63950  0.48880  Biso   1.000  C
  C25      1.0000 0.55360  0.07450  0.38240  Biso   1.000  C
  C26      1.0000 0.94640  0.42550  0.88240  Biso   1.000  C
  C27      1.0000 0.44640  0.07450  0.11760  Biso   1.000  C
  C28      1.0000 0.05360  0.42550  0.61760  Biso   1.000  C
  C29      1.0000 0.44640  0.92550  0.61760  Biso   1.000  C
  C30      1.0000 0.05360  0.57450  0.11760  Biso   1.000  C
  C31      1.0000 0.55360  0.92550  0.88240  Biso   1.000  C
  C32      1.0000 0.94640  0.57450  0.38240  Biso   1.000  C
  H17      1.0000 0.52930  0.05960  0.33150  Biso   1.000  H
  H18      1.0000 0.97070  0.44040  0.83150  Biso   1.000  H
  H19      1.0000 0.47070  0.05960  0.16850  Biso   1.000  H
  H20      1.0000 0.02930  0.44040  0.66850  Biso   1.000  H
  H21      1.0000 0.47070  0.94040  0.66850  Biso   1.000  H
  H22      1.0000 0.02930  0.55960  0.16850  Biso   1.000  H
  H23      1.0000 0.52930  0.94040  0.83150  Biso   1.000  H
  H24      1.0000 0.97070  0.55960  0.33150  Biso   1.000  H
  C33      1.0000 0.59420  0.02980  0.34890  Biso   1.000  C
  C34      1.0000 0.90580  0.47020  0.84890  Biso   1.000  C
  C35      1.0000 0.40580  0.02980  0.15110  Biso   1.000  C
  C36      1.0000 0.09420  0.47020  0.65110  Biso   1.000  C
  C37      1.0000 0.40580  0.97020  0.65110  Biso   1.000  C
  C38      1.0000 0.09420  0.52980  0.15110  Biso   1.000  C
  C39      1.0000 0.59420  0.97020  0.84890  Biso   1.000  C
  C40      1.0000 0.90580  0.52980  0.34890  Biso   1.000  C
  H25      1.0000 0.59660  0.98670  0.27580  Biso   1.000  H
  H26      1.0000 0.90340  0.51330  0.77580  Biso   1.000  H
  H27      1.0000 0.40340  0.98670  0.22420  Biso   1.000  H
  H28      1.0000 0.09660  0.51330  0.72420  Biso   1.000  H
  H29      1.0000 0.40340  0.01330  0.72420  Biso   1.000  H
  H30      1.0000 0.09660  0.48670  0.22420  Biso   1.000  H
  H31      1.0000 0.59660  0.01330  0.77580  Biso   1.000  H
  H32      1.0000 0.90340  0.48670  0.27580  Biso   1.000  H
  C41      1.0000 0.62910  0.04960  0.42240  Biso   1.000  C
  C42      1.0000 0.87090  0.45040  0.92240  Biso   1.000  C
  C43      1.0000 0.37090  0.04960  0.07760  Biso   1.000  C
  C44      1.0000 0.12910  0.45040  0.57760  Biso   1.000  C
  C45      1.0000 0.37090  0.95040  0.57760  Biso   1.000  C
  C46      1.0000 0.12910  0.54960  0.07760  Biso   1.000  C
  C47      1.0000 0.62910  0.95040  0.92240  Biso   1.000  C
  C48      1.0000 0.87090  0.54960  0.42240  Biso   1.000  C
  H33      1.0000 0.65530  0.01820  0.40020  Biso   1.000  H
  H34      1.0000 0.84470  0.48180  0.90020  Biso   1.000  H
  H35      1.0000 0.34470  0.01820  0.09980  Biso   1.000  H
  H36      1.0000 0.15530  0.48180  0.59980  Biso   1.000  H
  H37      1.0000 0.34470  0.98180  0.59980  Biso   1.000  H
  H38      1.0000 0.15530  0.51820  0.09980  Biso   1.000  H
  H39      1.0000 0.65530  0.98180  0.90020  Biso   1.000  H
  H40      1.0000 0.84470  0.51820  0.40020  Biso   1.000  H
  C49      1.0000 0.62780  0.11460  0.53010  Biso   1.000  C
  C50      1.0000 0.87220  0.38540  0.03010  Biso   1.000  C
  C51      1.0000 0.37220  0.11460  0.96990  Biso   1.000  C
  C52      1.0000 0.12780  0.38540  0.46990  Biso   1.000  C
  C53      1.0000 0.37220  0.88540  0.46990  Biso   1.000  C
  C54      1.0000 0.12780  0.61460  0.96990  Biso   1.000  C
  C55      1.0000 0.62780  0.88540  0.03010  Biso   1.000  C
  C56      1.0000 0.87220  0.61460  0.53010  Biso   1.000  C
  C57      1.0000 0.58669  0.16050  0.56480  Biso   1.000  C
  C58      1.0000 0.91331  0.33950  0.06480  Biso   1.000  C
  C59      1.0000 0.41331  0.16050  0.93520  Biso   1.000  C
  C60      1.0000 0.08669  0.33950  0.43520  Biso   1.000  C
  C61      1.0000 0.41331  0.83950  0.43520  Biso   1.000  C
  C62      1.0000 0.08669  0.66050  0.93520  Biso   1.000  C
  C63      1.0000 0.58669  0.83950  0.06480  Biso   1.000  C
  C64      1.0000 0.91331  0.66050  0.56480  Biso   1.000  C
  C65      1.0000 0.58568  0.22600  0.67680  Biso   1.000  C
  C66      1.0000 0.91432  0.27400  0.17680  Biso   1.000  C
  C67      1.0000 0.41432  0.22600  0.82320  Biso   1.000  C
  C68      1.0000 0.08568  0.27400  0.32320  Biso   1.000  C
  C69      1.0000 0.41432  0.77400  0.32320  Biso   1.000  C
  C70      1.0000 0.08568  0.72600  0.82320  Biso   1.000  C
  C71      1.0000 0.58568  0.77400  0.17680  Biso   1.000  C
  C72      1.0000 0.91432  0.72600  0.67680  Biso   1.000  C
  H41      1.0000 0.55980  0.25800  0.70150  Biso   1.000  H
  H42      1.0000 0.94020  0.24200  0.20150  Biso   1.000  H
  H43      1.0000 0.44020  0.25800  0.79850  Biso   1.000  H
  H44      1.0000 0.05980  0.24200  0.29850  Biso   1.000  H
  H45      1.0000 0.44020  0.74200  0.29850  Biso   1.000  H
  H46      1.0000 0.05980  0.75800  0.79850  Biso   1.000  H
  H47      1.0000 0.55980  0.74200  0.20150  Biso   1.000  H
  H48      1.0000 0.94020  0.75800  0.70150  Biso   1.000  H
  C73      1.0000 0.62220  0.24250  0.74840  Biso   1.000  C
  C74      1.0000 0.87780  0.25750  0.24840  Biso   1.000  C
  C75      1.0000 0.37780  0.24250  0.75160  Biso   1.000  C
  C76      1.0000 0.12220  0.25750  0.25160  Biso   1.000  C
  C77      1.0000 0.37780  0.75750  0.25160  Biso   1.000  C
  C78      1.0000 0.12220  0.74250  0.75160  Biso   1.000  C
  C79      1.0000 0.62220  0.75750  0.24840  Biso   1.000  C
  C80      1.0000 0.87780  0.74250  0.74840  Biso   1.000  C
  H49      1.0000 0.62070  0.28450  0.82260  Biso   1.000  H
  H50      1.0000 0.87930  0.21550  0.32260  Biso   1.000  H
  H51      1.0000 0.37930  0.28450  0.67740  Biso   1.000  H
  H52      1.0000 0.12070  0.21550  0.17740  Biso   1.000  H
  H53      1.0000 0.37930  0.71550  0.17740  Biso   1.000  H
  H54      1.0000 0.12070  0.78450  0.67740  Biso   1.000  H
  H55      1.0000 0.62070  0.71550  0.32260  Biso   1.000  H
  H56      1.0000 0.87930  0.78450  0.82260  Biso   1.000  H
  C81      1.0000 0.66170  0.19820  0.71350  Biso   1.000  C
  C82      1.0000 0.83830  0.30180  0.21350  Biso   1.000  C
  C83      1.0000 0.33830  0.19820  0.78650  Biso   1.000  C
  C84      1.0000 0.16170  0.30180  0.28650  Biso   1.000  C
  C85      1.0000 0.33830  0.80180  0.28650  Biso   1.000  C
  C86      1.0000 0.16170  0.69820  0.78650  Biso   1.000  C
  C87      1.0000 0.66170  0.80180  0.21350  Biso   1.000  C
  C88      1.0000 0.83830  0.69820  0.71350  Biso   1.000  C
  H57      1.0000 0.68640  0.21090  0.76360  Biso   1.000  H
  H58      1.0000 0.81360  0.28910  0.26360  Biso   1.000  H
  H59      1.0000 0.31360  0.21090  0.73640  Biso   1.000  H
  H60      1.0000 0.18640  0.28910  0.23640  Biso   1.000  H
  H61      1.0000 0.31360  0.78910  0.23640  Biso   1.000  H
  H62      1.0000 0.18640  0.71090  0.73640  Biso   1.000  H
  H63      1.0000 0.68640  0.78910  0.26360  Biso   1.000  H
  H64      1.0000 0.81360  0.71090  0.76360  Biso   1.000  H
  C89      1.0000 0.66410  0.13710  0.60750  Biso   1.000  C
  C90      1.0000 0.83590  0.36290  0.10750  Biso   1.000  C
  C91      1.0000 0.33590  0.13710  0.89250  Biso   1.000  C
  C92      1.0000 0.16410  0.36290  0.39250  Biso   1.000  C
  C93      1.0000 0.33590  0.86290  0.39250  Biso   1.000  C
  C94      1.0000 0.16410  0.63710  0.89250  Biso   1.000  C
  C95      1.0000 0.66410  0.86290  0.10750  Biso   1.000  C
  C96      1.0000 0.83590  0.63710  0.60750  Biso   1.000  C
  H65      1.0000 0.69080  0.10860  0.58430  Biso   1.000  H
  H66      1.0000 0.80920  0.39140  0.08430  Biso   1.000  H
  H67      1.0000 0.30920  0.10860  0.91570  Biso   1.000  H
  H68      1.0000 0.19080  0.39140  0.41570  Biso   1.000  H
  H69      1.0000 0.30920  0.89140  0.41570  Biso   1.000  H
  H70      1.0000 0.19080  0.60860  0.91570  Biso   1.000  H
  H71      1.0000 0.69080  0.89140  0.08430  Biso   1.000  H
  H72      1.0000 0.80920  0.60860  0.58430  Biso   1.000  H
  C97      1.0000 0.42737  0.48210  0.37980  Biso   1.000  C
  C98      1.0000 0.07263  0.01790  0.87980  Biso   1.000  C
  C99      1.0000 0.57263  0.48210  0.12020  Biso   1.000  C
  C100     1.0000 0.92737  0.01790  0.62020  Biso   1.000  C
  C101     1.0000 0.57263  0.51790  0.62020  Biso   1.000  C
  C102     1.0000 0.92737  0.98210  0.12020  Biso   1.000  C
  C103     1.0000 0.42737  0.51790  0.87980  Biso   1.000  C
  C104     1.0000 0.07263  0.98210  0.37980  Biso   1.000  C
  C105     1.0000 0.38644  0.46270  0.30120  Biso   1.000  C
  C106     1.0000 0.11356  0.03730  0.80120  Biso   1.000  C
  C107     1.0000 0.61356  0.46270  0.19880  Biso   1.000  C
  C108     1.0000 0.88644  0.03730  0.69880  Biso   1.000  C
  C109     1.0000 0.61356  0.53730  0.69880  Biso   1.000  C
  C110     1.0000 0.88644  0.96270  0.19880  Biso   1.000  C
  C111     1.0000 0.38644  0.53730  0.80120  Biso   1.000  C
  C112     1.0000 0.11356  0.96270  0.30120  Biso   1.000  C
  H73      1.0000 0.37200  0.52950  0.28750  Biso   1.000  H
  H74      1.0000 0.12800  0.97050  0.78750  Biso   1.000  H
  H75      1.0000 0.62800  0.52950  0.21250  Biso   1.000  H
  H76      1.0000 0.87200  0.97050  0.71250  Biso   1.000  H
  H77      1.0000 0.62800  0.47050  0.71250  Biso   1.000  H
  H78      1.0000 0.87200  0.02950  0.21250  Biso   1.000  H
  H79      1.0000 0.37200  0.47050  0.78750  Biso   1.000  H
  H80      1.0000 0.12800  0.02950  0.28750  Biso   1.000  H
  H81      1.0000 0.39470  0.43590  0.21600  Biso   1.000  H
  H82      1.0000 0.10530  0.06410  0.71600  Biso   1.000  H
  H83      1.0000 0.60530  0.43590  0.28400  Biso   1.000  H
  H84      1.0000 0.89470  0.06410  0.78400  Biso   1.000  H
  H85      1.0000 0.60530  0.56410  0.78400  Biso   1.000  H
  H86      1.0000 0.89470  0.93590  0.28400  Biso   1.000  H
  H87      1.0000 0.39470  0.56410  0.71600  Biso   1.000  H
  H88      1.0000 0.10530  0.93590  0.21600  Biso   1.000  H
  C113     1.0000 0.35432  0.38720  0.36130  Biso   1.000  C
  C114     1.0000 0.14568  0.11280  0.86130  Biso   1.000  C
  C115     1.0000 0.64568  0.38720  0.13870  Biso   1.000  C
  C116     1.0000 0.85432  0.11280  0.63870  Biso   1.000  C
  C117     1.0000 0.64568  0.61280  0.63870  Biso   1.000  C
  C118     1.0000 0.85432  0.88720  0.13870  Biso   1.000  C
  C119     1.0000 0.35432  0.61280  0.86130  Biso   1.000  C
  C120     1.0000 0.14568  0.88720  0.36130  Biso   1.000  C
  C121     1.0000 0.35487  0.28380  0.32350  Biso   1.000  C
  C122     1.0000 0.14513  0.21620  0.82350  Biso   1.000  C
  C123     1.0000 0.64513  0.28380  0.17650  Biso   1.000  C
  C124     1.0000 0.85487  0.21620  0.67650  Biso   1.000  C
  C125     1.0000 0.64513  0.71620  0.67650  Biso   1.000  C
  C126     1.0000 0.85487  0.78380  0.17650  Biso   1.000  C
  C127     1.0000 0.35487  0.71620  0.82350  Biso   1.000  C
  C128     1.0000 0.14513  0.78380  0.32350  Biso   1.000  C
  H89      1.0000 0.37590  0.26190  0.26410  Biso   1.000  H
  H90      1.0000 0.12410  0.23810  0.76410  Biso   1.000  H
  H91      1.0000 0.62410  0.26190  0.23590  Biso   1.000  H
  H92      1.0000 0.87590  0.23810  0.73590  Biso   1.000  H
  H93      1.0000 0.62410  0.73810  0.73590  Biso   1.000  H
  H94      1.0000 0.87590  0.76190  0.23590  Biso   1.000  H
  H95      1.0000 0.37590  0.73810  0.76410  Biso   1.000  H
  H96      1.0000 0.12410  0.76190  0.26410  Biso   1.000  H
  C129     1.0000 0.32550  0.21130  0.37000  Biso   1.000  C
  C130     1.0000 0.17450  0.28870  0.87000  Biso   1.000  C
  C131     1.0000 0.67450  0.21130  0.13000  Biso   1.000  C
  C132     1.0000 0.82550  0.28870  0.63000  Biso   1.000  C
  C133     1.0000 0.67450  0.78870  0.63000  Biso   1.000  C
  C134     1.0000 0.82550  0.71130  0.13000  Biso   1.000  C
  C135     1.0000 0.32550  0.78870  0.87000  Biso   1.000  C
  C136     1.0000 0.17450  0.71130  0.37000  Biso   1.000  C
  H97      1.0000 0.32690  0.14190  0.34190  Biso   1.000  H
  H98      1.0000 0.17310  0.35810  0.84190  Biso   1.000  H
  H99      1.0000 0.67310  0.14190  0.15810  Biso   1.000  H
  H100     1.0000 0.82690  0.35810  0.65810  Biso   1.000  H
  H101     1.0000 0.67310  0.85810  0.65810  Biso   1.000  H
  H102     1.0000 0.82690  0.64190  0.15810  Biso   1.000  H
  H103     1.0000 0.32690  0.85810  0.84190  Biso   1.000  H
  H104     1.0000 0.17310  0.64190  0.34190  Biso   1.000  H
  C137     1.0000 0.29490  0.24090  0.45590  Biso   1.000  C
  C138     1.0000 0.20510  0.25910  0.95590  Biso   1.000  C
  C139     1.0000 0.70510  0.24090  0.04410  Biso   1.000  C
  C140     1.0000 0.79490  0.25910  0.54410  Biso   1.000  C
  C141     1.0000 0.70510  0.75910  0.54410  Biso   1.000  C
  C142     1.0000 0.79490  0.74090  0.04410  Biso   1.000  C
  C143     1.0000 0.29490  0.75910  0.95590  Biso   1.000  C
  C144     1.0000 0.20510  0.74090  0.45590  Biso   1.000  C
  H105     1.0000 0.27450  0.19240  0.48490  Biso   1.000  H
  H106     1.0000 0.22550  0.30760  0.98490  Biso   1.000  H
  H107     1.0000 0.72550  0.19240  0.01510  Biso   1.000  H
  H108     1.0000 0.77450  0.30760  0.51510  Biso   1.000  H
  H109     1.0000 0.72550  0.80760  0.51510  Biso   1.000  H
  H110     1.0000 0.77450  0.69240  0.01510  Biso   1.000  H
  H111     1.0000 0.27450  0.80760  0.98490  Biso   1.000  H
  H112     1.0000 0.22550  0.69240  0.48490  Biso   1.000  H
  C145     1.0000 0.29360  0.34560  0.50260  Biso   1.000  C
  C146     1.0000 0.20640  0.15440  0.00260  Biso   1.000  C
  C147     1.0000 0.70640  0.34560  0.99740  Biso   1.000  C
  C148     1.0000 0.79360  0.15440  0.49740  Biso   1.000  C
  C149     1.0000 0.70640  0.65440  0.49740  Biso   1.000  C
  C150     1.0000 0.79360  0.84560  0.99740  Biso   1.000  C
  C151     1.0000 0.29360  0.65440  0.00260  Biso   1.000  C
  C152     1.0000 0.20640  0.84560  0.50260  Biso   1.000  C
  C153     1.0000 0.32378  0.42020  0.45430  Biso   1.000  C
  C154     1.0000 0.17622  0.07980  0.95430  Biso   1.000  C
  C155     1.0000 0.67622  0.42020  0.04570  Biso   1.000  C
  C156     1.0000 0.82378  0.07980  0.54570  Biso   1.000  C
  C157     1.0000 0.67622  0.57980  0.54570  Biso   1.000  C
  C158     1.0000 0.82378  0.92020  0.04570  Biso   1.000  C
  C159     1.0000 0.32378  0.57980  0.95430  Biso   1.000  C
  C160     1.0000 0.17622  0.92020  0.45430  Biso   1.000  C
  C161     1.0000 0.32154  0.52520  0.50230  Biso   1.000  C
  C162     1.0000 0.17846  0.97480  0.00230  Biso   1.000  C
  C163     1.0000 0.67846  0.52520  0.99770  Biso   1.000  C
  C164     1.0000 0.82154  0.97480  0.49770  Biso   1.000  C
  C165     1.0000 0.67846  0.47480  0.49770  Biso   1.000  C
  C166     1.0000 0.82154  0.02520  0.99770  Biso   1.000  C
  C167     1.0000 0.32154  0.47480  0.00230  Biso   1.000  C
  C168     1.0000 0.17846  0.02520  0.50230  Biso   1.000  C
  H113     1.0000 0.34040  0.57640  0.47090  Biso   1.000  H
  H114     1.0000 0.15960  0.92360  0.97090  Biso   1.000  H
  H115     1.0000 0.65960  0.57640  0.02910  Biso   1.000  H
  H116     1.0000 0.84040  0.92360  0.52910  Biso   1.000  H
  H117     1.0000 0.65960  0.42360  0.52910  Biso   1.000  H
  H118     1.0000 0.84040  0.07640  0.02910  Biso   1.000  H
  H119     1.0000 0.34040  0.42360  0.97090  Biso   1.000  H
  H120     1.0000 0.15960  0.07640  0.47090  Biso   1.000  H
  C169     1.0000 0.29090  0.55010  0.59620  Biso   1.000  C
  C170     1.0000 0.20910  0.94990  0.09620  Biso   1.000  C
  C171     1.0000 0.70910  0.55010  0.90380  Biso   1.000  C
  C172     1.0000 0.79090  0.94990  0.40380  Biso   1.000  C
  C173     1.0000 0.70910  0.44990  0.40380  Biso   1.000  C
  C174     1.0000 0.79090  0.05010  0.90380  Biso   1.000  C
  C175     1.0000 0.29090  0.44990  0.09620  Biso   1.000  C
  C176     1.0000 0.20910  0.05010  0.59620  Biso   1.000  C
  H121     1.0000 0.28910  0.61840  0.62780  Biso   1.000  H
  H122     1.0000 0.21090  0.88160  0.12780  Biso   1.000  H
  H123     1.0000 0.71090  0.61840  0.87220  Biso   1.000  H
  H124     1.0000 0.78910  0.88160  0.37220  Biso   1.000  H
  H125     1.0000 0.71090  0.38160  0.37220  Biso   1.000  H
  H126     1.0000 0.78910  0.11840  0.87220  Biso   1.000  H
  H127     1.0000 0.28910  0.38160  0.12780  Biso   1.000  H
  H128     1.0000 0.21090  0.11840  0.62780  Biso   1.000  H
  C177     1.0000 0.26350  0.47510  0.64270  Biso   1.000  C
  C178     1.0000 0.23650  0.02490  0.14270  Biso   1.000  C
  C179     1.0000 0.73650  0.47510  0.85730  Biso   1.000  C
  C180     1.0000 0.76350  0.02490  0.35730  Biso   1.000  C
  C181     1.0000 0.73650  0.52490  0.35730  Biso   1.000  C
  C182     1.0000 0.76350  0.97510  0.85730  Biso   1.000  C
  C183     1.0000 0.26350  0.52490  0.14270  Biso   1.000  C
  C184     1.0000 0.23650  0.97510  0.64270  Biso   1.000  C
  H129     1.0000 0.24400  0.49290  0.70870  Biso   1.000  H
  H130     1.0000 0.25600  0.00710  0.20870  Biso   1.000  H
  H131     1.0000 0.75600  0.49290  0.79130  Biso   1.000  H
  H132     1.0000 0.74400  0.00710  0.29130  Biso   1.000  H
  H133     1.0000 0.75600  0.50710  0.29130  Biso   1.000  H
  H134     1.0000 0.74400  0.99290  0.79130  Biso   1.000  H
  H135     1.0000 0.24400  0.50710  0.20870  Biso   1.000  H
  H136     1.0000 0.25600  0.99290  0.70870  Biso   1.000  H
  C185     1.0000 0.26340  0.37690  0.59700  Biso   1.000  C
  C186     1.0000 0.23660  0.12310  0.09700  Biso   1.000  C
  C187     1.0000 0.73660  0.37690  0.90300  Biso   1.000  C
  C188     1.0000 0.76340  0.12310  0.40300  Biso   1.000  C
  C189     1.0000 0.73660  0.62310  0.40300  Biso   1.000  C
  C190     1.0000 0.76340  0.87690  0.90300  Biso   1.000  C
  C191     1.0000 0.26340  0.62310  0.09700  Biso   1.000  C
  C192     1.0000 0.23660  0.87690  0.59700  Biso   1.000  C
  H137     1.0000 0.24310  0.32890  0.62820  Biso   1.000  H
  H138     1.0000 0.25690  0.17110  0.12820  Biso   1.000  H
  H139     1.0000 0.75690  0.32890  0.87180  Biso   1.000  H
  H140     1.0000 0.74310  0.17110  0.37180  Biso   1.000  H
  H141     1.0000 0.75690  0.67110  0.37180  Biso   1.000  H
  H142     1.0000 0.74310  0.82890  0.87180  Biso   1.000  H
  H143     1.0000 0.24310  0.67110  0.12820  Biso   1.000  H
  H144     1.0000 0.25690  0.82890  0.62820  Biso   1.000  H
