data_image0
_cell_length_a       13.9124
_cell_length_b       6.1844
_cell_length_c       10.1572
_cell_angle_alpha    90
_cell_angle_beta     112.952
_cell_angle_gamma    90

_symmetry_space_group_name_H-M    "P 1"
_symmetry_int_tables_number       1

loop_
  _symmetry_equiv_pos_as_xyz
  'x, y, z'

loop_
  _atom_site_label
  _atom_site_occupancy
  _atom_site_fract_x
  _atom_site_fract_y
  _atom_site_fract_z
  _atom_site_thermal_displace_type
  _atom_site_B_iso_or_equiv
  _atom_site_type_symbol
  C1       1.0000 0.56400  0.00000  0.14100  Biso   1.000  C
  C2       1.0000 0.43600  0.00000  0.85900  Biso   1.000  C
  C3       1.0000 0.06400  0.50000  0.14100  Biso   1.000  C
  C4       1.0000 0.93600  0.50000  0.85900  Biso   1.000  C
  C5       1.0000 0.45800  0.00000  0.10200  Biso   1.000  C
  C6       1.0000 0.54200  0.00000  0.89800  Biso   1.000  C
  C7       1.0000 0.95800  0.50000  0.10200  Biso   1.000  C
  C8       1.0000 0.04200  0.50000  0.89800  Biso   1.000  C
  C9       1.0000 0.63500  0.00000  0.29200  Biso   1.000  C
  C10      1.0000 0.36500  0.00000  0.70800  Biso   1.000  C
  C11      1.0000 0.13500  0.50000  0.29200  Biso   1.000  C
  C12      1.0000 0.86500  0.50000  0.70800  Biso   1.000  C
  C13      1.0000 0.59900  0.00000  0.39900  Biso   1.000  C
  C14      1.0000 0.40100  0.00000  0.60100  Biso   1.000  C
  C15      1.0000 0.09900  0.50000  0.39900  Biso   1.000  C
  C16      1.0000 0.90100  0.50000  0.60100  Biso   1.000  C
  C17      1.0000 0.66900  0.00000  0.53500  Biso   1.000  C
  C18      1.0000 0.33100  0.00000  0.46500  Biso   1.000  C
  C19      1.0000 0.16900  0.50000  0.53500  Biso   1.000  C
  C20      1.0000 0.83100  0.50000  0.46500  Biso   1.000  C
  C21      1.0000 0.77800  0.00000  0.56600  Biso   1.000  C
  C22      1.0000 0.22200  0.00000  0.43400  Biso   1.000  C
  C23      1.0000 0.27800  0.50000  0.56600  Biso   1.000  C
  C24      1.0000 0.72200  0.50000  0.43400  Biso   1.000  C
  C25      1.0000 0.81100  0.00000  0.45300  Biso   1.000  C
  C26      1.0000 0.18900  0.00000  0.54700  Biso   1.000  C
  C27      1.0000 0.31100  0.50000  0.45300  Biso   1.000  C
  C28      1.0000 0.68900  0.50000  0.54700  Biso   1.000  C
  N1       1.0000 0.60570  0.00000  0.04000  Biso   1.000  N
  N2       1.0000 0.39430  0.00000  0.96000  Biso   1.000  N
  N3       1.0000 0.10570  0.50000  0.04000  Biso   1.000  N
  N4       1.0000 0.89430  0.50000  0.96000  Biso   1.000  N
  N5       1.0000 0.73890  0.00000  0.31670  Biso   1.000  N
  N6       1.0000 0.26110  0.00000  0.68330  Biso   1.000  N
  N7       1.0000 0.23890  0.50000  0.31670  Biso   1.000  N
  N8       1.0000 0.76110  0.50000  0.68330  Biso   1.000  N
  Cu1      1.0000 0.76460  0.00000  0.13240  Biso   1.000  Cu
  Cu2      1.0000 0.23540  0.00000  0.86760  Biso   1.000  Cu
  Cu3      1.0000 0.26460  0.50000  0.13240  Biso   1.000  Cu
  Cu4      1.0000 0.73540  0.50000  0.86760  Biso   1.000  Cu
  Cl1      1.0000 0.77770  0.00000  0.90850  Biso   1.000  Cl
  Cl2      1.0000 0.22230  0.00000  0.09150  Biso   1.000  Cl
  Cl3      1.0000 0.27770  0.50000  0.90850  Biso   1.000  Cl
  Cl4      1.0000 0.72230  0.50000  0.09150  Biso   1.000  Cl
  Cl5      1.0000 0.94510  0.00000  0.25100  Biso   1.000  Cl
  Cl6      1.0000 0.05490  0.00000  0.74900  Biso   1.000  Cl
  Cl7      1.0000 0.44510  0.50000  0.25100  Biso   1.000  Cl
  Cl8      1.0000 0.55490  0.50000  0.74900  Biso   1.000  Cl
