data_image0
_cell_length_a       11.7398
_cell_length_b       14.3155
_cell_length_c       9.551
_cell_angle_alpha    90
_cell_angle_beta     110.837
_cell_angle_gamma    90

_symmetry_space_group_name_H-M    "P 1"
_symmetry_int_tables_number       1

loop_
  _symmetry_equiv_pos_as_xyz
  'x, y, z'

loop_
  _atom_site_label
  _atom_site_occupancy
  _atom_site_fract_x
  _atom_site_fract_y
  _atom_site_fract_z
  _atom_site_thermal_displace_type
  _atom_site_B_iso_or_equiv
  _atom_site_type_symbol
  Cu1      1.0000 0.00000  0.00000  0.00000  Biso   1.000  Cu
  Cu2      1.0000 0.00000  0.50000  0.50000  Biso   1.000  Cu
  Cu3      1.0000 0.25213  0.12044  0.99102  Biso   1.000  Cu
  Cu4      1.0000 0.74787  0.62044  0.50898  Biso   1.000  Cu
  Cu5      1.0000 0.74787  0.87956  0.00898  Biso   1.000  Cu
  Cu6      1.0000 0.25213  0.37956  0.49102  Biso   1.000  Cu
  Cl1      1.0000 0.04841  0.15536  0.86623  Biso   1.000  Cl
  Cl2      1.0000 0.95159  0.65536  0.63377  Biso   1.000  Cl
  Cl3      1.0000 0.95159  0.84464  0.13377  Biso   1.000  Cl
  Cl4      1.0000 0.04841  0.34464  0.36623  Biso   1.000  Cl
  Cl5      1.0000 0.42369  0.20311  0.10634  Biso   1.000  Cl
  Cl6      1.0000 0.57631  0.70311  0.39366  Biso   1.000  Cl
  Cl7      1.0000 0.57631  0.79689  0.89366  Biso   1.000  Cl
  Cl8      1.0000 0.42369  0.29689  0.60634  Biso   1.000  Cl
  Cl9      1.0000 0.88803  0.11852  0.41962  Biso   1.000  Cl
  Cl10     1.0000 0.11197  0.61852  0.08038  Biso   1.000  Cl
  Cl11     1.0000 0.11197  0.88148  0.58038  Biso   1.000  Cl
  Cl12     1.0000 0.88803  0.38148  0.91962  Biso   1.000  Cl
  N1       1.0000 0.86703  0.07157  0.03740  Biso   1.000  N
  N2       1.0000 0.13297  0.57157  0.46260  Biso   1.000  N
  N3       1.0000 0.13297  0.92843  0.96260  Biso   1.000  N
  N4       1.0000 0.86703  0.42843  0.53740  Biso   1.000  N
  N5       1.0000 0.75696  0.02986  0.02180  Biso   1.000  N
  N6       1.0000 0.24304  0.52986  0.47820  Biso   1.000  N
  N7       1.0000 0.24304  0.97014  0.97820  Biso   1.000  N
  N8       1.0000 0.75696  0.47014  0.52180  Biso   1.000  N
  N9       1.0000 0.74376  0.17836  0.05370  Biso   1.000  N
  N10      1.0000 0.25624  0.67836  0.44630  Biso   1.000  N
  N11      1.0000 0.25624  0.82164  0.94630  Biso   1.000  N
  N12      1.0000 0.74376  0.32164  0.55370  Biso   1.000  N
  N13      1.0000 0.67180  0.38940  0.18300  Biso   1.000  N
  N14      1.0000 0.32820  0.88940  0.31700  Biso   1.000  N
  N15      1.0000 0.32820  0.61060  0.81700  Biso   1.000  N
  N16      1.0000 0.67180  0.11060  0.68300  Biso   1.000  N
  N17      1.0000 0.60030  0.39413  0.03360  Biso   1.000  N
  N18      1.0000 0.39970  0.89413  0.46640  Biso   1.000  N
  N19      1.0000 0.39970  0.60587  0.96640  Biso   1.000  N
  N20      1.0000 0.60030  0.10587  0.53360  Biso   1.000  N
  N21      1.0000 0.69949  0.26414  0.07420  Biso   1.000  N
  N22      1.0000 0.30051  0.76414  0.42580  Biso   1.000  N
  N23      1.0000 0.30051  0.73586  0.92580  Biso   1.000  N
  N24      1.0000 0.69949  0.23586  0.57420  Biso   1.000  N
  N25      1.0000 0.12261  0.05149  0.18914  Biso   1.000  N
  N26      1.0000 0.87739  0.55149  0.31086  Biso   1.000  N
  N27      1.0000 0.87739  0.94851  0.81086  Biso   1.000  N
  N28      1.0000 0.12261  0.44851  0.68914  Biso   1.000  N
  N29      1.0000 0.21961  0.10603  0.18749  Biso   1.000  N
  N30      1.0000 0.78039  0.60603  0.31251  Biso   1.000  N
  N31      1.0000 0.78039  0.89397  0.81251  Biso   1.000  N
  N32      1.0000 0.21961  0.39397  0.68749  Biso   1.000  N
  N33      1.0000 0.22898  0.08860  0.41635  Biso   1.000  N
  N34      1.0000 0.77102  0.58860  0.08365  Biso   1.000  N
  N35      1.0000 0.77102  0.91140  0.58365  Biso   1.000  N
  N36      1.0000 0.22898  0.41140  0.91635  Biso   1.000  N
  N37      1.0000 0.39355  0.07841  0.80310  Biso   1.000  N
  N38      1.0000 0.60645  0.57841  0.69690  Biso   1.000  N
  N39      1.0000 0.60645  0.92159  0.19690  Biso   1.000  N
  N40      1.0000 0.39355  0.42159  0.30310  Biso   1.000  N
  N41      1.0000 0.28192  0.11492  0.79786  Biso   1.000  N
  N42      1.0000 0.71808  0.61492  0.70214  Biso   1.000  N
  N43      1.0000 0.71808  0.88508  0.20214  Biso   1.000  N
  N44      1.0000 0.28192  0.38508  0.29786  Biso   1.000  N
  N45      1.0000 0.27140  0.09186  0.57174  Biso   1.000  N
  N46      1.0000 0.72860  0.59186  0.92826  Biso   1.000  N
  N47      1.0000 0.72860  0.90814  0.42826  Biso   1.000  N
  N48      1.0000 0.27140  0.40814  0.07174  Biso   1.000  N
  C1       1.0000 0.85923  0.16075  0.05840  Biso   1.000  C
  C2       1.0000 0.14077  0.66075  0.44160  Biso   1.000  C
  C3       1.0000 0.14077  0.83925  0.94160  Biso   1.000  C
  C4       1.0000 0.85923  0.33925  0.55840  Biso   1.000  C
  H1       1.0000 0.92170  0.20500  0.07390  Biso   1.000  H
  H2       1.0000 0.07830  0.70500  0.42610  Biso   1.000  H
  H3       1.0000 0.07830  0.79500  0.92610  Biso   1.000  H
  H4       1.0000 0.92170  0.29500  0.57390  Biso   1.000  H
  C5       1.0000 0.68420  0.09538  0.03340  Biso   1.000  C
  C6       1.0000 0.31580  0.59538  0.46660  Biso   1.000  C
  C7       1.0000 0.31580  0.90462  0.96660  Biso   1.000  C
  C8       1.0000 0.68420  0.40462  0.53340  Biso   1.000  C
  H5       1.0000 0.60350  0.08670  0.02860  Biso   1.000  H
  H6       1.0000 0.39650  0.58670  0.47140  Biso   1.000  H
  H7       1.0000 0.39650  0.91330  0.97140  Biso   1.000  H
  H8       1.0000 0.60350  0.41330  0.52860  Biso   1.000  H
  C9       1.0000 0.73030  0.31100  0.20340  Biso   1.000  C
  C10      1.0000 0.26970  0.81100  0.29660  Biso   1.000  C
  C11      1.0000 0.26970  0.68900  0.79660  Biso   1.000  C
  C12      1.0000 0.73030  0.18900  0.70340  Biso   1.000  C
  H9       1.0000 0.78630  0.29010  0.29540  Biso   1.000  H
  H10      1.0000 0.21370  0.79010  0.20460  Biso   1.000  H
  H11      1.0000 0.21370  0.70990  0.70460  Biso   1.000  H
  H12      1.0000 0.78630  0.20990  0.79540  Biso   1.000  H
  C13      1.0000 0.61930  0.31910  0.97010  Biso   1.000  C
  C14      1.0000 0.38070  0.81910  0.52990  Biso   1.000  C
  C15      1.0000 0.38070  0.68090  0.02990  Biso   1.000  C
  C16      1.0000 0.61930  0.18090  0.47010  Biso   1.000  C
  H13      1.0000 0.58320  0.30490  0.86760  Biso   1.000  H
  H14      1.0000 0.41680  0.80490  0.63240  Biso   1.000  H
  H15      1.0000 0.41680  0.69510  0.13240  Biso   1.000  H
  H16      1.0000 0.58320  0.19510  0.36760  Biso   1.000  H
  C17      1.0000 0.12989  0.03979  0.32800  Biso   1.000  C
  C18      1.0000 0.87011  0.53979  0.17200  Biso   1.000  C
  C19      1.0000 0.87011  0.96021  0.67200  Biso   1.000  C
  C20      1.0000 0.12989  0.46021  0.82800  Biso   1.000  C
  H17      1.0000 0.07670  0.00430  0.36060  Biso   1.000  H
  H18      1.0000 0.92330  0.50430  0.13940  Biso   1.000  H
  H19      1.0000 0.92330  0.99570  0.63940  Biso   1.000  H
  H20      1.0000 0.07670  0.49570  0.86060  Biso   1.000  H
  C21      1.0000 0.28221  0.12864  0.32630  Biso   1.000  C
  C22      1.0000 0.71779  0.62864  0.17370  Biso   1.000  C
  C23      1.0000 0.71779  0.87136  0.67370  Biso   1.000  C
  C24      1.0000 0.28221  0.37136  0.82630  Biso   1.000  C
  H21      1.0000 0.35240  0.16630  0.35830  Biso   1.000  H
  H22      1.0000 0.64760  0.66630  0.14170  Biso   1.000  H
  H23      1.0000 0.64760  0.83370  0.64170  Biso   1.000  H
  H24      1.0000 0.35240  0.33370  0.85830  Biso   1.000  H
  C25      1.0000 0.38460  0.06433  0.66510  Biso   1.000  C
  C26      1.0000 0.61540  0.56433  0.83490  Biso   1.000  C
  C27      1.0000 0.61540  0.93567  0.33490  Biso   1.000  C
  C28      1.0000 0.38460  0.43567  0.16510  Biso   1.000  C
  H25      1.0000 0.44600  0.03930  0.63440  Biso   1.000  H
  H26      1.0000 0.55400  0.53930  0.86560  Biso   1.000  H
  H27      1.0000 0.55400  0.96070  0.36560  Biso   1.000  H
  H28      1.0000 0.44600  0.46070  0.13440  Biso   1.000  H
  C29      1.0000 0.20940  0.12224  0.65780  Biso   1.000  C
  C30      1.0000 0.79060  0.62224  0.84220  Biso   1.000  C
  C31      1.0000 0.79060  0.87776  0.34220  Biso   1.000  C
  C32      1.0000 0.20940  0.37776  0.15780  Biso   1.000  C
  H29      1.0000 0.12890  0.14460  0.62350  Biso   1.000  H
  H30      1.0000 0.87110  0.64460  0.87650  Biso   1.000  H
  H31      1.0000 0.87110  0.85540  0.37650  Biso   1.000  H
  H32      1.0000 0.12890  0.35540  0.12350  Biso   1.000  H
