data_image0
_cell_length_a       18.193
_cell_length_b       18.193
_cell_length_c       13.256
_cell_angle_alpha    90
_cell_angle_beta     90
_cell_angle_gamma    90

_symmetry_space_group_name_H-M    "P 1"
_symmetry_int_tables_number       1

loop_
  _symmetry_equiv_pos_as_xyz
  'x, y, z'

loop_
  _atom_site_label
  _atom_site_occupancy
  _atom_site_fract_x
  _atom_site_fract_y
  _atom_site_fract_z
  _atom_site_thermal_displace_type
  _atom_site_B_iso_or_equiv
  _atom_site_type_symbol
  Cd1      1.0000 0.25000  0.75000  0.25000  Biso   1.000  Cd
  Cd2      1.0000 0.75000  0.25000  0.75000  Biso   1.000  Cd
  Cd3      1.0000 0.25000  0.75000  0.75000  Biso   1.000  Cd
  Cd4      1.0000 0.75000  0.25000  0.25000  Biso   1.000  Cd
  Cu1      1.0000 0.01167  0.48833  0.23272  Biso   1.000  Cu
  Cu2      1.0000 0.01167  0.01167  0.73272  Biso   1.000  Cu
  Cu3      1.0000 0.48833  0.48833  0.73272  Biso   1.000  Cu
  Cu4      1.0000 0.98833  0.51167  0.76728  Biso   1.000  Cu
  Cu5      1.0000 0.48833  0.01167  0.23272  Biso   1.000  Cu
  Cu6      1.0000 0.98833  0.98833  0.26728  Biso   1.000  Cu
  Cu7      1.0000 0.51167  0.51167  0.26728  Biso   1.000  Cu
  Cu8      1.0000 0.51167  0.98833  0.76728  Biso   1.000  Cu
  Cu9      1.0000 0.00000  0.50000  0.50000  Biso   1.000  Cu
  Cu10     1.0000 0.00000  0.00000  0.00000  Biso   1.000  Cu
  Cu11     1.0000 0.50000  0.50000  0.00000  Biso   1.000  Cu
  Cu12     1.0000 0.50000  0.00000  0.50000  Biso   1.000  Cu
  Cl1      1.0000 0.07996  0.42004  0.37694  Biso   1.000  Cl
  Cl2      1.0000 0.07996  0.07996  0.87694  Biso   1.000  Cl
  Cl3      1.0000 0.42004  0.42004  0.87694  Biso   1.000  Cl
  Cl4      1.0000 0.92004  0.57996  0.62306  Biso   1.000  Cl
  Cl5      1.0000 0.42004  0.07996  0.37694  Biso   1.000  Cl
  Cl6      1.0000 0.92004  0.92004  0.12306  Biso   1.000  Cl
  Cl7      1.0000 0.57996  0.57996  0.12306  Biso   1.000  Cl
  Cl8      1.0000 0.57996  0.92004  0.62306  Biso   1.000  Cl
  Cl9      1.0000 0.14455  0.78633  0.14165  Biso   1.000  Cl
  Cl10     1.0000 0.71367  0.14455  0.64165  Biso   1.000  Cl
  Cl11     1.0000 0.78633  0.35545  0.64165  Biso   1.000  Cl
  Cl12     1.0000 0.28633  0.64455  0.85835  Biso   1.000  Cl
  Cl13     1.0000 0.35545  0.71367  0.14165  Biso   1.000  Cl
  Cl14     1.0000 0.85545  0.28633  0.35835  Biso   1.000  Cl
  Cl15     1.0000 0.64455  0.21367  0.35835  Biso   1.000  Cl
  Cl16     1.0000 0.21367  0.85545  0.85835  Biso   1.000  Cl
  Cl17     1.0000 0.85545  0.21367  0.85835  Biso   1.000  Cl
  Cl18     1.0000 0.28633  0.85545  0.35835  Biso   1.000  Cl
  Cl19     1.0000 0.21367  0.64455  0.35835  Biso   1.000  Cl
  Cl20     1.0000 0.71367  0.35545  0.14165  Biso   1.000  Cl
  Cl21     1.0000 0.64455  0.28633  0.85835  Biso   1.000  Cl
  Cl22     1.0000 0.14455  0.71367  0.64165  Biso   1.000  Cl
  Cl23     1.0000 0.35545  0.78633  0.64165  Biso   1.000  Cl
  Cl24     1.0000 0.78633  0.14455  0.14165  Biso   1.000  Cl
  O1       1.0000 0.95700  0.54300  0.08720  Biso   1.000  O
  O2       1.0000 0.95700  0.95700  0.58720  Biso   1.000  O
  O3       1.0000 0.54300  0.54300  0.58720  Biso   1.000  O
  O4       1.0000 0.04300  0.45700  0.91280  Biso   1.000  O
  O5       1.0000 0.54300  0.95700  0.08720  Biso   1.000  O
  O6       1.0000 0.04300  0.04300  0.41280  Biso   1.000  O
  O7       1.0000 0.45700  0.45700  0.41280  Biso   1.000  O
  O8       1.0000 0.45700  0.04300  0.91280  Biso   1.000  O
  N1       1.0000 0.01855  0.58955  0.41470  Biso   1.000  N
  N2       1.0000 0.91045  0.01855  0.91470  Biso   1.000  N
  N3       1.0000 0.58955  0.48145  0.91470  Biso   1.000  N
  N4       1.0000 0.08955  0.51855  0.58530  Biso   1.000  N
  N5       1.0000 0.48145  0.91045  0.41470  Biso   1.000  N
  N6       1.0000 0.98145  0.08955  0.08530  Biso   1.000  N
  N7       1.0000 0.51855  0.41045  0.08530  Biso   1.000  N
  N8       1.0000 0.41045  0.98145  0.58530  Biso   1.000  N
  N9       1.0000 0.98145  0.41045  0.58530  Biso   1.000  N
  N10      1.0000 0.08955  0.98145  0.08530  Biso   1.000  N
  N11      1.0000 0.41045  0.51855  0.08530  Biso   1.000  N
  N12      1.0000 0.91045  0.48145  0.41470  Biso   1.000  N
  N13      1.0000 0.51855  0.08955  0.58530  Biso   1.000  N
  N14      1.0000 0.01855  0.91045  0.91470  Biso   1.000  N
  N15      1.0000 0.48145  0.58955  0.91470  Biso   1.000  N
  N16      1.0000 0.58955  0.01855  0.41470  Biso   1.000  N
  N17      1.0000 0.02294  0.58768  0.31050  Biso   1.000  N
  N18      1.0000 0.91232  0.02294  0.81050  Biso   1.000  N
  N19      1.0000 0.58768  0.47706  0.81050  Biso   1.000  N
  N20      1.0000 0.08768  0.52294  0.68950  Biso   1.000  N
  N21      1.0000 0.47706  0.91232  0.31050  Biso   1.000  N
  N22      1.0000 0.97706  0.08768  0.18950  Biso   1.000  N
  N23      1.0000 0.52294  0.41232  0.18950  Biso   1.000  N
  N24      1.0000 0.41232  0.97706  0.68950  Biso   1.000  N
  N25      1.0000 0.97706  0.41232  0.68950  Biso   1.000  N
  N26      1.0000 0.08768  0.97706  0.18950  Biso   1.000  N
  N27      1.0000 0.41232  0.52294  0.18950  Biso   1.000  N
  N28      1.0000 0.91232  0.47706  0.31050  Biso   1.000  N
  N29      1.0000 0.52294  0.08768  0.68950  Biso   1.000  N
  N30      1.0000 0.02294  0.91232  0.81050  Biso   1.000  N
  N31      1.0000 0.47706  0.58768  0.81050  Biso   1.000  N
  N32      1.0000 0.58768  0.02294  0.31050  Biso   1.000  N
  N33      1.0000 0.02780  0.70033  0.36070  Biso   1.000  N
  N34      1.0000 0.79967  0.02780  0.86070  Biso   1.000  N
  N35      1.0000 0.70033  0.47220  0.86070  Biso   1.000  N
  N36      1.0000 0.20033  0.52780  0.63930  Biso   1.000  N
  N37      1.0000 0.47220  0.79967  0.36070  Biso   1.000  N
  N38      1.0000 0.97220  0.20033  0.13930  Biso   1.000  N
  N39      1.0000 0.52780  0.29967  0.13930  Biso   1.000  N
  N40      1.0000 0.29967  0.97220  0.63930  Biso   1.000  N
  N41      1.0000 0.97220  0.29967  0.63930  Biso   1.000  N
  N42      1.0000 0.20033  0.97220  0.13930  Biso   1.000  N
  N43      1.0000 0.29967  0.52780  0.13930  Biso   1.000  N
  N44      1.0000 0.79967  0.47220  0.36070  Biso   1.000  N
  N45      1.0000 0.52780  0.20033  0.63930  Biso   1.000  N
  N46      1.0000 0.02780  0.79967  0.86070  Biso   1.000  N
  N47      1.0000 0.47220  0.70033  0.86070  Biso   1.000  N
  N48      1.0000 0.70033  0.02780  0.36070  Biso   1.000  N
  N49      1.0000 0.07670  0.88500  0.38910  Biso   1.000  N
  N50      1.0000 0.61500  0.07670  0.88910  Biso   1.000  N
  N51      1.0000 0.88500  0.42330  0.88910  Biso   1.000  N
  N52      1.0000 0.38500  0.57670  0.61090  Biso   1.000  N
  N53      1.0000 0.42330  0.61500  0.38910  Biso   1.000  N
  N54      1.0000 0.92330  0.38500  0.11090  Biso   1.000  N
  N55      1.0000 0.57670  0.11500  0.11090  Biso   1.000  N
  N56      1.0000 0.11500  0.92330  0.61090  Biso   1.000  N
  N57      1.0000 0.92330  0.11500  0.61090  Biso   1.000  N
  N58      1.0000 0.38500  0.92330  0.11090  Biso   1.000  N
  N59      1.0000 0.11500  0.57670  0.11090  Biso   1.000  N
  N60      1.0000 0.61500  0.42330  0.38910  Biso   1.000  N
  N61      1.0000 0.57670  0.38500  0.61090  Biso   1.000  N
  N62      1.0000 0.07670  0.61500  0.88910  Biso   1.000  N
  N63      1.0000 0.42330  0.88500  0.88910  Biso   1.000  N
  N64      1.0000 0.88500  0.07670  0.38910  Biso   1.000  N
  N65      1.0000 0.01170  0.89020  0.33330  Biso   1.000  N
  N66      1.0000 0.60980  0.01170  0.83330  Biso   1.000  N
  N67      1.0000 0.89020  0.48830  0.83330  Biso   1.000  N
  N68      1.0000 0.39020  0.51170  0.66670  Biso   1.000  N
  N69      1.0000 0.48830  0.60980  0.33330  Biso   1.000  N
  N70      1.0000 0.98830  0.39020  0.16670  Biso   1.000  N
  N71      1.0000 0.51170  0.10980  0.16670  Biso   1.000  N
  N72      1.0000 0.10980  0.98830  0.66670  Biso   1.000  N
  N73      1.0000 0.98830  0.10980  0.66670  Biso   1.000  N
  N74      1.0000 0.39020  0.98830  0.16670  Biso   1.000  N
  N75      1.0000 0.10980  0.51170  0.16670  Biso   1.000  N
  N76      1.0000 0.60980  0.48830  0.33330  Biso   1.000  N
  N77      1.0000 0.51170  0.39020  0.66670  Biso   1.000  N
  N78      1.0000 0.01170  0.60980  0.83330  Biso   1.000  N
  N79      1.0000 0.48830  0.89020  0.83330  Biso   1.000  N
  N80      1.0000 0.89020  0.01170  0.33330  Biso   1.000  N
  N81      1.0000 0.03380  0.77596  0.36010  Biso   1.000  N
  N82      1.0000 0.72404  0.03380  0.86010  Biso   1.000  N
  N83      1.0000 0.77596  0.46620  0.86010  Biso   1.000  N
  N84      1.0000 0.27596  0.53380  0.63990  Biso   1.000  N
  N85      1.0000 0.46620  0.72404  0.36010  Biso   1.000  N
  N86      1.0000 0.96620  0.27596  0.13990  Biso   1.000  N
  N87      1.0000 0.53380  0.22404  0.13990  Biso   1.000  N
  N88      1.0000 0.22404  0.96620  0.63990  Biso   1.000  N
  N89      1.0000 0.96620  0.22404  0.63990  Biso   1.000  N
  N90      1.0000 0.27596  0.96620  0.13990  Biso   1.000  N
  N91      1.0000 0.22404  0.53380  0.13990  Biso   1.000  N
  N92      1.0000 0.72404  0.46620  0.36010  Biso   1.000  N
  N93      1.0000 0.53380  0.27596  0.63990  Biso   1.000  N
  N94      1.0000 0.03380  0.72404  0.86010  Biso   1.000  N
  N95      1.0000 0.46620  0.77596  0.86010  Biso   1.000  N
  N96      1.0000 0.77596  0.03380  0.36010  Biso   1.000  N
  C1       1.0000 0.02140  0.65770  0.44370  Biso   1.000  C
  C2       1.0000 0.84230  0.02140  0.94370  Biso   1.000  C
  C3       1.0000 0.65770  0.47860  0.94370  Biso   1.000  C
  C4       1.0000 0.15770  0.52140  0.55630  Biso   1.000  C
  C5       1.0000 0.47860  0.84230  0.44370  Biso   1.000  C
  C6       1.0000 0.97860  0.15770  0.05630  Biso   1.000  C
  C7       1.0000 0.52140  0.34230  0.05630  Biso   1.000  C
  C8       1.0000 0.34230  0.97860  0.55630  Biso   1.000  C
  C9       1.0000 0.97860  0.34230  0.55630  Biso   1.000  C
  C10      1.0000 0.15770  0.97860  0.05630  Biso   1.000  C
  C11      1.0000 0.34230  0.52140  0.05630  Biso   1.000  C
  C12      1.0000 0.84230  0.47860  0.44370  Biso   1.000  C
  C13      1.0000 0.52140  0.15770  0.55630  Biso   1.000  C
  C14      1.0000 0.02140  0.84230  0.94370  Biso   1.000  C
  C15      1.0000 0.47860  0.65770  0.94370  Biso   1.000  C
  C16      1.0000 0.65770  0.02140  0.44370  Biso   1.000  C
  H1       1.0000 0.01970  0.67490  0.51210  Biso   1.000  H
  H2       1.0000 0.82510  0.01970  0.01210  Biso   1.000  H
  H3       1.0000 0.67490  0.48030  0.01210  Biso   1.000  H
  H4       1.0000 0.17490  0.51970  0.48790  Biso   1.000  H
  H5       1.0000 0.48030  0.82510  0.51210  Biso   1.000  H
  H6       1.0000 0.98030  0.17490  0.98790  Biso   1.000  H
  H7       1.0000 0.51970  0.32510  0.98790  Biso   1.000  H
  H8       1.0000 0.32510  0.98030  0.48790  Biso   1.000  H
  H9       1.0000 0.98030  0.32510  0.48790  Biso   1.000  H
  H10      1.0000 0.17490  0.98030  0.98790  Biso   1.000  H
  H11      1.0000 0.32510  0.51970  0.98790  Biso   1.000  H
  H12      1.0000 0.82510  0.48030  0.51210  Biso   1.000  H
  H13      1.0000 0.51970  0.17490  0.48790  Biso   1.000  H
  H14      1.0000 0.01970  0.82510  0.01210  Biso   1.000  H
  H15      1.0000 0.48030  0.67490  0.01210  Biso   1.000  H
  H16      1.0000 0.67490  0.01970  0.51210  Biso   1.000  H
  C17      1.0000 0.02950  0.65480  0.27870  Biso   1.000  C
  C18      1.0000 0.84520  0.02950  0.77870  Biso   1.000  C
  C19      1.0000 0.65480  0.47050  0.77870  Biso   1.000  C
  C20      1.0000 0.15480  0.52950  0.72130  Biso   1.000  C
  C21      1.0000 0.47050  0.84520  0.27870  Biso   1.000  C
  C22      1.0000 0.97050  0.15480  0.22130  Biso   1.000  C
  C23      1.0000 0.52950  0.34520  0.22130  Biso   1.000  C
  C24      1.0000 0.34520  0.97050  0.72130  Biso   1.000  C
  C25      1.0000 0.97050  0.34520  0.72130  Biso   1.000  C
  C26      1.0000 0.15480  0.97050  0.22130  Biso   1.000  C
  C27      1.0000 0.34520  0.52950  0.22130  Biso   1.000  C
  C28      1.0000 0.84520  0.47050  0.27870  Biso   1.000  C
  C29      1.0000 0.52950  0.15480  0.72130  Biso   1.000  C
  C30      1.0000 0.02950  0.84520  0.77870  Biso   1.000  C
  C31      1.0000 0.47050  0.65480  0.77870  Biso   1.000  C
  C32      1.0000 0.65480  0.02950  0.27870  Biso   1.000  C
  H17      1.0000 0.03430  0.66980  0.20960  Biso   1.000  H
  H18      1.0000 0.83020  0.03430  0.70960  Biso   1.000  H
  H19      1.0000 0.66980  0.46570  0.70960  Biso   1.000  H
  H20      1.0000 0.16980  0.53430  0.79040  Biso   1.000  H
  H21      1.0000 0.46570  0.83020  0.20960  Biso   1.000  H
  H22      1.0000 0.96570  0.16980  0.29040  Biso   1.000  H
  H23      1.0000 0.53430  0.33020  0.29040  Biso   1.000  H
  H24      1.0000 0.33020  0.96570  0.79040  Biso   1.000  H
  H25      1.0000 0.96570  0.33020  0.79040  Biso   1.000  H
  H26      1.0000 0.16980  0.96570  0.29040  Biso   1.000  H
  H27      1.0000 0.33020  0.53430  0.29040  Biso   1.000  H
  H28      1.0000 0.83020  0.46570  0.20960  Biso   1.000  H
  H29      1.0000 0.53430  0.16980  0.79040  Biso   1.000  H
  H30      1.0000 0.03430  0.83020  0.70960  Biso   1.000  H
  H31      1.0000 0.46570  0.66980  0.70960  Biso   1.000  H
  H32      1.0000 0.66980  0.03430  0.20960  Biso   1.000  H
  C33      1.0000 0.08850  0.81540  0.40370  Biso   1.000  C
  C34      1.0000 0.68460  0.08850  0.90370  Biso   1.000  C
  C35      1.0000 0.81540  0.41150  0.90370  Biso   1.000  C
  C36      1.0000 0.31540  0.58850  0.59630  Biso   1.000  C
  C37      1.0000 0.41150  0.68460  0.40370  Biso   1.000  C
  C38      1.0000 0.91150  0.31540  0.09630  Biso   1.000  C
  C39      1.0000 0.58850  0.18460  0.09630  Biso   1.000  C
  C40      1.0000 0.18460  0.91150  0.59630  Biso   1.000  C
  C41      1.0000 0.91150  0.18460  0.59630  Biso   1.000  C
  C42      1.0000 0.31540  0.91150  0.09630  Biso   1.000  C
  C43      1.0000 0.18460  0.58850  0.09630  Biso   1.000  C
  C44      1.0000 0.68460  0.41150  0.40370  Biso   1.000  C
  C45      1.0000 0.58850  0.31540  0.59630  Biso   1.000  C
  C46      1.0000 0.08850  0.68460  0.90370  Biso   1.000  C
  C47      1.0000 0.41150  0.81540  0.90370  Biso   1.000  C
  C48      1.0000 0.81540  0.08850  0.40370  Biso   1.000  C
  H33      1.0000 0.12930  0.79500  0.44020  Biso   1.000  H
  H34      1.0000 0.70500  0.12930  0.94020  Biso   1.000  H
  H35      1.0000 0.79500  0.37070  0.94020  Biso   1.000  H
  H36      1.0000 0.29500  0.62930  0.55980  Biso   1.000  H
  H37      1.0000 0.37070  0.70500  0.44020  Biso   1.000  H
  H38      1.0000 0.87070  0.29500  0.05980  Biso   1.000  H
  H39      1.0000 0.62930  0.20500  0.05980  Biso   1.000  H
  H40      1.0000 0.20500  0.87070  0.55980  Biso   1.000  H
  H41      1.0000 0.87070  0.20500  0.55980  Biso   1.000  H
  H42      1.0000 0.29500  0.87070  0.05980  Biso   1.000  H
  H43      1.0000 0.20500  0.62930  0.05980  Biso   1.000  H
  H44      1.0000 0.70500  0.37070  0.44020  Biso   1.000  H
  H45      1.0000 0.62930  0.29500  0.55980  Biso   1.000  H
  H46      1.0000 0.12930  0.70500  0.94020  Biso   1.000  H
  H47      1.0000 0.37070  0.79500  0.94020  Biso   1.000  H
  H48      1.0000 0.79500  0.12930  0.44020  Biso   1.000  H
  C49      1.0000 0.98690  0.82420  0.31590  Biso   1.000  C
  C50      1.0000 0.67580  0.98690  0.81590  Biso   1.000  C
  C51      1.0000 0.82420  0.51310  0.81590  Biso   1.000  C
  C52      1.0000 0.32420  0.48690  0.68410  Biso   1.000  C
  C53      1.0000 0.51310  0.67580  0.31590  Biso   1.000  C
  C54      1.0000 0.01310  0.32420  0.18410  Biso   1.000  C
  C55      1.0000 0.48690  0.17580  0.18410  Biso   1.000  C
  C56      1.0000 0.17580  0.01310  0.68410  Biso   1.000  C
  C57      1.0000 0.01310  0.17580  0.68410  Biso   1.000  C
  C58      1.0000 0.32420  0.01310  0.18410  Biso   1.000  C
  C59      1.0000 0.17580  0.48690  0.18410  Biso   1.000  C
  C60      1.0000 0.67580  0.51310  0.31590  Biso   1.000  C
  C61      1.0000 0.48690  0.32420  0.68410  Biso   1.000  C
  C62      1.0000 0.98690  0.67580  0.81590  Biso   1.000  C
  C63      1.0000 0.51310  0.82420  0.81590  Biso   1.000  C
  C64      1.0000 0.82420  0.98690  0.31590  Biso   1.000  C
  H49      1.0000 0.94330  0.81190  0.27880  Biso   1.000  H
  H50      1.0000 0.68810  0.94330  0.77880  Biso   1.000  H
  H51      1.0000 0.81190  0.55670  0.77880  Biso   1.000  H
  H52      1.0000 0.31190  0.44330  0.72120  Biso   1.000  H
  H53      1.0000 0.55670  0.68810  0.27880  Biso   1.000  H
  H54      1.0000 0.05670  0.31190  0.22120  Biso   1.000  H
  H55      1.0000 0.44330  0.18810  0.22120  Biso   1.000  H
  H56      1.0000 0.18810  0.05670  0.72120  Biso   1.000  H
  H57      1.0000 0.05670  0.18810  0.72120  Biso   1.000  H
  H58      1.0000 0.31190  0.05670  0.22120  Biso   1.000  H
  H59      1.0000 0.18810  0.44330  0.22120  Biso   1.000  H
  H60      1.0000 0.68810  0.55670  0.27880  Biso   1.000  H
  H61      1.0000 0.44330  0.31190  0.72120  Biso   1.000  H
  H62      1.0000 0.94330  0.68810  0.77880  Biso   1.000  H
  H63      1.0000 0.55670  0.81190  0.77880  Biso   1.000  H
  H64      1.0000 0.81190  0.94330  0.27880  Biso   1.000  H
  H65      1.0000 0.96110  0.58990  0.08920  Biso   1.000  H
  H66      1.0000 0.91010  0.96110  0.58920  Biso   1.000  H
  H67      1.0000 0.58990  0.53890  0.58920  Biso   1.000  H
  H68      1.0000 0.08990  0.46110  0.91080  Biso   1.000  H
  H69      1.0000 0.53890  0.91010  0.08920  Biso   1.000  H
  H70      1.0000 0.03890  0.08990  0.41080  Biso   1.000  H
  H71      1.0000 0.46110  0.41010  0.41080  Biso   1.000  H
  H72      1.0000 0.41010  0.03890  0.91080  Biso   1.000  H
  H73      1.0000 0.03890  0.41010  0.91080  Biso   1.000  H
  H74      1.0000 0.08990  0.03890  0.41080  Biso   1.000  H
  H75      1.0000 0.41010  0.46110  0.41080  Biso   1.000  H
  H76      1.0000 0.91010  0.53890  0.08920  Biso   1.000  H
  H77      1.0000 0.46110  0.08990  0.91080  Biso   1.000  H
  H78      1.0000 0.96110  0.91010  0.58920  Biso   1.000  H
  H79      1.0000 0.53890  0.58990  0.58920  Biso   1.000  H
  H80      1.0000 0.58990  0.96110  0.08920  Biso   1.000  H
