data_image0
_cell_length_a       18.0808
_cell_length_b       18.0808
_cell_length_c       13.2342
_cell_angle_alpha    90
_cell_angle_beta     90
_cell_angle_gamma    90

_symmetry_space_group_name_H-M    "P 1"
_symmetry_int_tables_number       1

loop_
  _symmetry_equiv_pos_as_xyz
  'x, y, z'

loop_
  _atom_site_label
  _atom_site_occupancy
  _atom_site_fract_x
  _atom_site_fract_y
  _atom_site_fract_z
  _atom_site_thermal_displace_type
  _atom_site_B_iso_or_equiv
  _atom_site_type_symbol
  Hg1      1.0000 0.25000  0.75000  0.25000  Biso   1.000  Hg
  Hg2      1.0000 0.75000  0.25000  0.75000  Biso   1.000  Hg
  Hg3      1.0000 0.25000  0.75000  0.75000  Biso   1.000  Hg
  Hg4      1.0000 0.75000  0.25000  0.25000  Biso   1.000  Hg
  Cu1      1.0000 0.01156  0.48844  0.23499  Biso   1.000  Cu
  Cu2      1.0000 0.01156  0.01156  0.73499  Biso   1.000  Cu
  Cu3      1.0000 0.48844  0.48844  0.73499  Biso   1.000  Cu
  Cu4      1.0000 0.98844  0.51156  0.76501  Biso   1.000  Cu
  Cu5      1.0000 0.48844  0.01156  0.23499  Biso   1.000  Cu
  Cu6      1.0000 0.98844  0.98844  0.26501  Biso   1.000  Cu
  Cu7      1.0000 0.51156  0.51156  0.26501  Biso   1.000  Cu
  Cu8      1.0000 0.51156  0.98844  0.76501  Biso   1.000  Cu
  Cu9      1.0000 0.00000  0.50000  0.50000  Biso   1.000  Cu
  Cu10     1.0000 0.00000  0.00000  0.00000  Biso   1.000  Cu
  Cu11     1.0000 0.50000  0.50000  0.00000  Biso   1.000  Cu
  Cu12     1.0000 0.50000  0.00000  0.50000  Biso   1.000  Cu
  Cl1      1.0000 0.08000  0.42000  0.37680  Biso   1.000  Cl
  Cl2      1.0000 0.08000  0.08000  0.87680  Biso   1.000  Cl
  Cl3      1.0000 0.42000  0.42000  0.87680  Biso   1.000  Cl
  Cl4      1.0000 0.92000  0.58000  0.62320  Biso   1.000  Cl
  Cl5      1.0000 0.42000  0.08000  0.37680  Biso   1.000  Cl
  Cl6      1.0000 0.92000  0.92000  0.12320  Biso   1.000  Cl
  Cl7      1.0000 0.58000  0.58000  0.12320  Biso   1.000  Cl
  Cl8      1.0000 0.58000  0.92000  0.62320  Biso   1.000  Cl
  Cl9      1.0000 0.14360  0.78656  0.14119  Biso   1.000  Cl
  Cl10     1.0000 0.71344  0.14360  0.64119  Biso   1.000  Cl
  Cl11     1.0000 0.78656  0.35640  0.64119  Biso   1.000  Cl
  Cl12     1.0000 0.28656  0.64360  0.85881  Biso   1.000  Cl
  Cl13     1.0000 0.35640  0.71344  0.14119  Biso   1.000  Cl
  Cl14     1.0000 0.85640  0.28656  0.35881  Biso   1.000  Cl
  Cl15     1.0000 0.64360  0.21344  0.35881  Biso   1.000  Cl
  Cl16     1.0000 0.21344  0.85640  0.85881  Biso   1.000  Cl
  Cl17     1.0000 0.85640  0.21344  0.85881  Biso   1.000  Cl
  Cl18     1.0000 0.28656  0.85640  0.35881  Biso   1.000  Cl
  Cl19     1.0000 0.21344  0.64360  0.35881  Biso   1.000  Cl
  Cl20     1.0000 0.71344  0.35640  0.14119  Biso   1.000  Cl
  Cl21     1.0000 0.64360  0.28656  0.85881  Biso   1.000  Cl
  Cl22     1.0000 0.14360  0.71344  0.64119  Biso   1.000  Cl
  Cl23     1.0000 0.35640  0.78656  0.64119  Biso   1.000  Cl
  Cl24     1.0000 0.78656  0.14360  0.14119  Biso   1.000  Cl
  O1       1.0000 0.95810  0.54190  0.08740  Biso   1.000  O
  O2       1.0000 0.95810  0.95810  0.58740  Biso   1.000  O
  O3       1.0000 0.54190  0.54190  0.58740  Biso   1.000  O
  O4       1.0000 0.04190  0.45810  0.91260  Biso   1.000  O
  O5       1.0000 0.54190  0.95810  0.08740  Biso   1.000  O
  O6       1.0000 0.04190  0.04190  0.41260  Biso   1.000  O
  O7       1.0000 0.45810  0.45810  0.41260  Biso   1.000  O
  O8       1.0000 0.45810  0.04190  0.91260  Biso   1.000  O
  N1       1.0000 0.01940  0.58960  0.41450  Biso   1.000  N
  N2       1.0000 0.91040  0.01940  0.91450  Biso   1.000  N
  N3       1.0000 0.58960  0.48060  0.91450  Biso   1.000  N
  N4       1.0000 0.08960  0.51940  0.58550  Biso   1.000  N
  N5       1.0000 0.48060  0.91040  0.41450  Biso   1.000  N
  N6       1.0000 0.98060  0.08960  0.08550  Biso   1.000  N
  N7       1.0000 0.51940  0.41040  0.08550  Biso   1.000  N
  N8       1.0000 0.41040  0.98060  0.58550  Biso   1.000  N
  N9       1.0000 0.98060  0.41040  0.58550  Biso   1.000  N
  N10      1.0000 0.08960  0.98060  0.08550  Biso   1.000  N
  N11      1.0000 0.41040  0.51940  0.08550  Biso   1.000  N
  N12      1.0000 0.91040  0.48060  0.41450  Biso   1.000  N
  N13      1.0000 0.51940  0.08960  0.58550  Biso   1.000  N
  N14      1.0000 0.01940  0.91040  0.91450  Biso   1.000  N
  N15      1.0000 0.48060  0.58960  0.91450  Biso   1.000  N
  N16      1.0000 0.58960  0.01940  0.41450  Biso   1.000  N
  N17      1.0000 0.02270  0.58720  0.31010  Biso   1.000  N
  N18      1.0000 0.91280  0.02270  0.81010  Biso   1.000  N
  N19      1.0000 0.58720  0.47730  0.81010  Biso   1.000  N
  N20      1.0000 0.08720  0.52270  0.68990  Biso   1.000  N
  N21      1.0000 0.47730  0.91280  0.31010  Biso   1.000  N
  N22      1.0000 0.97730  0.08720  0.18990  Biso   1.000  N
  N23      1.0000 0.52270  0.41280  0.18990  Biso   1.000  N
  N24      1.0000 0.41280  0.97730  0.68990  Biso   1.000  N
  N25      1.0000 0.97730  0.41280  0.68990  Biso   1.000  N
  N26      1.0000 0.08720  0.97730  0.18990  Biso   1.000  N
  N27      1.0000 0.41280  0.52270  0.18990  Biso   1.000  N
  N28      1.0000 0.91280  0.47730  0.31010  Biso   1.000  N
  N29      1.0000 0.52270  0.08720  0.68990  Biso   1.000  N
  N30      1.0000 0.02270  0.91280  0.81010  Biso   1.000  N
  N31      1.0000 0.47730  0.58720  0.81010  Biso   1.000  N
  N32      1.0000 0.58720  0.02270  0.31010  Biso   1.000  N
  N33      1.0000 0.02830  0.70080  0.36050  Biso   1.000  N
  N34      1.0000 0.79920  0.02830  0.86050  Biso   1.000  N
  N35      1.0000 0.70080  0.47170  0.86050  Biso   1.000  N
  N36      1.0000 0.20080  0.52830  0.63950  Biso   1.000  N
  N37      1.0000 0.47170  0.79920  0.36050  Biso   1.000  N
  N38      1.0000 0.97170  0.20080  0.13950  Biso   1.000  N
  N39      1.0000 0.52830  0.29920  0.13950  Biso   1.000  N
  N40      1.0000 0.29920  0.97170  0.63950  Biso   1.000  N
  N41      1.0000 0.97170  0.29920  0.63950  Biso   1.000  N
  N42      1.0000 0.20080  0.97170  0.13950  Biso   1.000  N
  N43      1.0000 0.29920  0.52830  0.13950  Biso   1.000  N
  N44      1.0000 0.79920  0.47170  0.36050  Biso   1.000  N
  N45      1.0000 0.52830  0.20080  0.63950  Biso   1.000  N
  N46      1.0000 0.02830  0.79920  0.86050  Biso   1.000  N
  N47      1.0000 0.47170  0.70080  0.86050  Biso   1.000  N
  N48      1.0000 0.70080  0.02830  0.36050  Biso   1.000  N
  N49      1.0000 0.07750  0.88630  0.38710  Biso   1.000  N
  N50      1.0000 0.61370  0.07750  0.88710  Biso   1.000  N
  N51      1.0000 0.88630  0.42250  0.88710  Biso   1.000  N
  N52      1.0000 0.38630  0.57750  0.61290  Biso   1.000  N
  N53      1.0000 0.42250  0.61370  0.38710  Biso   1.000  N
  N54      1.0000 0.92250  0.38630  0.11290  Biso   1.000  N
  N55      1.0000 0.57750  0.11370  0.11290  Biso   1.000  N
  N56      1.0000 0.11370  0.92250  0.61290  Biso   1.000  N
  N57      1.0000 0.92250  0.11370  0.61290  Biso   1.000  N
  N58      1.0000 0.38630  0.92250  0.11290  Biso   1.000  N
  N59      1.0000 0.11370  0.57750  0.11290  Biso   1.000  N
  N60      1.0000 0.61370  0.42250  0.38710  Biso   1.000  N
  N61      1.0000 0.57750  0.38630  0.61290  Biso   1.000  N
  N62      1.0000 0.07750  0.61370  0.88710  Biso   1.000  N
  N63      1.0000 0.42250  0.88630  0.88710  Biso   1.000  N
  N64      1.0000 0.88630  0.07750  0.38710  Biso   1.000  N
  N65      1.0000 0.01200  0.89090  0.33180  Biso   1.000  N
  N66      1.0000 0.60910  0.01200  0.83180  Biso   1.000  N
  N67      1.0000 0.89090  0.48800  0.83180  Biso   1.000  N
  N68      1.0000 0.39090  0.51200  0.66820  Biso   1.000  N
  N69      1.0000 0.48800  0.60910  0.33180  Biso   1.000  N
  N70      1.0000 0.98800  0.39090  0.16820  Biso   1.000  N
  N71      1.0000 0.51200  0.10910  0.16820  Biso   1.000  N
  N72      1.0000 0.10910  0.98800  0.66820  Biso   1.000  N
  N73      1.0000 0.98800  0.10910  0.66820  Biso   1.000  N
  N74      1.0000 0.39090  0.98800  0.16820  Biso   1.000  N
  N75      1.0000 0.10910  0.51200  0.16820  Biso   1.000  N
  N76      1.0000 0.60910  0.48800  0.33180  Biso   1.000  N
  N77      1.0000 0.51200  0.39090  0.66820  Biso   1.000  N
  N78      1.0000 0.01200  0.60910  0.83180  Biso   1.000  N
  N79      1.0000 0.48800  0.89090  0.83180  Biso   1.000  N
  N80      1.0000 0.89090  0.01200  0.33180  Biso   1.000  N
  N81      1.0000 0.03420  0.77670  0.36010  Biso   1.000  N
  N82      1.0000 0.72330  0.03420  0.86010  Biso   1.000  N
  N83      1.0000 0.77670  0.46580  0.86010  Biso   1.000  N
  N84      1.0000 0.27670  0.53420  0.63990  Biso   1.000  N
  N85      1.0000 0.46580  0.72330  0.36010  Biso   1.000  N
  N86      1.0000 0.96580  0.27670  0.13990  Biso   1.000  N
  N87      1.0000 0.53420  0.22330  0.13990  Biso   1.000  N
  N88      1.0000 0.22330  0.96580  0.63990  Biso   1.000  N
  N89      1.0000 0.96580  0.22330  0.63990  Biso   1.000  N
  N90      1.0000 0.27670  0.96580  0.13990  Biso   1.000  N
  N91      1.0000 0.22330  0.53420  0.13990  Biso   1.000  N
  N92      1.0000 0.72330  0.46580  0.36010  Biso   1.000  N
  N93      1.0000 0.53420  0.27670  0.63990  Biso   1.000  N
  N94      1.0000 0.03420  0.72330  0.86010  Biso   1.000  N
  N95      1.0000 0.46580  0.77670  0.86010  Biso   1.000  N
  N96      1.0000 0.77670  0.03420  0.36010  Biso   1.000  N
  C1       1.0000 0.02160  0.65770  0.44310  Biso   1.000  C
  C2       1.0000 0.84230  0.02160  0.94310  Biso   1.000  C
  C3       1.0000 0.65770  0.47840  0.94310  Biso   1.000  C
  C4       1.0000 0.15770  0.52160  0.55690  Biso   1.000  C
  C5       1.0000 0.47840  0.84230  0.44310  Biso   1.000  C
  C6       1.0000 0.97840  0.15770  0.05690  Biso   1.000  C
  C7       1.0000 0.52160  0.34230  0.05690  Biso   1.000  C
  C8       1.0000 0.34230  0.97840  0.55690  Biso   1.000  C
  C9       1.0000 0.97840  0.34230  0.55690  Biso   1.000  C
  C10      1.0000 0.15770  0.97840  0.05690  Biso   1.000  C
  C11      1.0000 0.34230  0.52160  0.05690  Biso   1.000  C
  C12      1.0000 0.84230  0.47840  0.44310  Biso   1.000  C
  C13      1.0000 0.52160  0.15770  0.55690  Biso   1.000  C
  C14      1.0000 0.02160  0.84230  0.94310  Biso   1.000  C
  C15      1.0000 0.47840  0.65770  0.94310  Biso   1.000  C
  C16      1.0000 0.65770  0.02160  0.44310  Biso   1.000  C
  H1       1.0000 0.01990  0.67490  0.51160  Biso   1.000  H
  H2       1.0000 0.82510  0.01990  0.01160  Biso   1.000  H
  H3       1.0000 0.67490  0.48010  0.01160  Biso   1.000  H
  H4       1.0000 0.17490  0.51990  0.48840  Biso   1.000  H
  H5       1.0000 0.48010  0.82510  0.51160  Biso   1.000  H
  H6       1.0000 0.98010  0.17490  0.98840  Biso   1.000  H
  H7       1.0000 0.51990  0.32510  0.98840  Biso   1.000  H
  H8       1.0000 0.32510  0.98010  0.48840  Biso   1.000  H
  H9       1.0000 0.98010  0.32510  0.48840  Biso   1.000  H
  H10      1.0000 0.17490  0.98010  0.98840  Biso   1.000  H
  H11      1.0000 0.32510  0.51990  0.98840  Biso   1.000  H
  H12      1.0000 0.82510  0.48010  0.51160  Biso   1.000  H
  H13      1.0000 0.51990  0.17490  0.48840  Biso   1.000  H
  H14      1.0000 0.01990  0.82510  0.01160  Biso   1.000  H
  H15      1.0000 0.48010  0.67490  0.01160  Biso   1.000  H
  H16      1.0000 0.67490  0.01990  0.51160  Biso   1.000  H
  C17      1.0000 0.02900  0.65500  0.27820  Biso   1.000  C
  C18      1.0000 0.84500  0.02900  0.77820  Biso   1.000  C
  C19      1.0000 0.65500  0.47100  0.77820  Biso   1.000  C
  C20      1.0000 0.15500  0.52900  0.72180  Biso   1.000  C
  C21      1.0000 0.47100  0.84500  0.27820  Biso   1.000  C
  C22      1.0000 0.97100  0.15500  0.22180  Biso   1.000  C
  C23      1.0000 0.52900  0.34500  0.22180  Biso   1.000  C
  C24      1.0000 0.34500  0.97100  0.72180  Biso   1.000  C
  C25      1.0000 0.97100  0.34500  0.72180  Biso   1.000  C
  C26      1.0000 0.15500  0.97100  0.22180  Biso   1.000  C
  C27      1.0000 0.34500  0.52900  0.22180  Biso   1.000  C
  C28      1.0000 0.84500  0.47100  0.27820  Biso   1.000  C
  C29      1.0000 0.52900  0.15500  0.72180  Biso   1.000  C
  C30      1.0000 0.02900  0.84500  0.77820  Biso   1.000  C
  C31      1.0000 0.47100  0.65500  0.77820  Biso   1.000  C
  C32      1.0000 0.65500  0.02900  0.27820  Biso   1.000  C
  H17      1.0000 0.03380  0.67010  0.20910  Biso   1.000  H
  H18      1.0000 0.82990  0.03380  0.70910  Biso   1.000  H
  H19      1.0000 0.67010  0.46620  0.70910  Biso   1.000  H
  H20      1.0000 0.17010  0.53380  0.79090  Biso   1.000  H
  H21      1.0000 0.46620  0.82990  0.20910  Biso   1.000  H
  H22      1.0000 0.96620  0.17010  0.29090  Biso   1.000  H
  H23      1.0000 0.53380  0.32990  0.29090  Biso   1.000  H
  H24      1.0000 0.32990  0.96620  0.79090  Biso   1.000  H
  H25      1.0000 0.96620  0.32990  0.79090  Biso   1.000  H
  H26      1.0000 0.17010  0.96620  0.29090  Biso   1.000  H
  H27      1.0000 0.32990  0.53380  0.29090  Biso   1.000  H
  H28      1.0000 0.82990  0.46620  0.20910  Biso   1.000  H
  H29      1.0000 0.53380  0.17010  0.79090  Biso   1.000  H
  H30      1.0000 0.03380  0.82990  0.70910  Biso   1.000  H
  H31      1.0000 0.46620  0.67010  0.70910  Biso   1.000  H
  H32      1.0000 0.67010  0.03380  0.20910  Biso   1.000  H
  C33      1.0000 0.08850  0.81650  0.40260  Biso   1.000  C
  C34      1.0000 0.68350  0.08850  0.90260  Biso   1.000  C
  C35      1.0000 0.81650  0.41150  0.90260  Biso   1.000  C
  C36      1.0000 0.31650  0.58850  0.59740  Biso   1.000  C
  C37      1.0000 0.41150  0.68350  0.40260  Biso   1.000  C
  C38      1.0000 0.91150  0.31650  0.09740  Biso   1.000  C
  C39      1.0000 0.58850  0.18350  0.09740  Biso   1.000  C
  C40      1.0000 0.18350  0.91150  0.59740  Biso   1.000  C
  C41      1.0000 0.91150  0.18350  0.59740  Biso   1.000  C
  C42      1.0000 0.31650  0.91150  0.09740  Biso   1.000  C
  C43      1.0000 0.18350  0.58850  0.09740  Biso   1.000  C
  C44      1.0000 0.68350  0.41150  0.40260  Biso   1.000  C
  C45      1.0000 0.58850  0.31650  0.59740  Biso   1.000  C
  C46      1.0000 0.08850  0.68350  0.90260  Biso   1.000  C
  C47      1.0000 0.41150  0.81650  0.90260  Biso   1.000  C
  C48      1.0000 0.81650  0.08850  0.40260  Biso   1.000  C
  H33      1.0000 0.12930  0.79610  0.43910  Biso   1.000  H
  H34      1.0000 0.70390  0.12930  0.93910  Biso   1.000  H
  H35      1.0000 0.79610  0.37070  0.93910  Biso   1.000  H
  H36      1.0000 0.29610  0.62930  0.56090  Biso   1.000  H
  H37      1.0000 0.37070  0.70390  0.43910  Biso   1.000  H
  H38      1.0000 0.87070  0.29610  0.06090  Biso   1.000  H
  H39      1.0000 0.62930  0.20390  0.06090  Biso   1.000  H
  H40      1.0000 0.20390  0.87070  0.56090  Biso   1.000  H
  H41      1.0000 0.87070  0.20390  0.56090  Biso   1.000  H
  H42      1.0000 0.29610  0.87070  0.06090  Biso   1.000  H
  H43      1.0000 0.20390  0.62930  0.06090  Biso   1.000  H
  H44      1.0000 0.70390  0.37070  0.43910  Biso   1.000  H
  H45      1.0000 0.62930  0.29610  0.56090  Biso   1.000  H
  H46      1.0000 0.12930  0.70390  0.93910  Biso   1.000  H
  H47      1.0000 0.37070  0.79610  0.93910  Biso   1.000  H
  H48      1.0000 0.79610  0.12930  0.43910  Biso   1.000  H
  C49      1.0000 0.98700  0.82490  0.31580  Biso   1.000  C
  C50      1.0000 0.67510  0.98700  0.81580  Biso   1.000  C
  C51      1.0000 0.82490  0.51300  0.81580  Biso   1.000  C
  C52      1.0000 0.32490  0.48700  0.68420  Biso   1.000  C
  C53      1.0000 0.51300  0.67510  0.31580  Biso   1.000  C
  C54      1.0000 0.01300  0.32490  0.18420  Biso   1.000  C
  C55      1.0000 0.48700  0.17510  0.18420  Biso   1.000  C
  C56      1.0000 0.17510  0.01300  0.68420  Biso   1.000  C
  C57      1.0000 0.01300  0.17510  0.68420  Biso   1.000  C
  C58      1.0000 0.32490  0.01300  0.18420  Biso   1.000  C
  C59      1.0000 0.17510  0.48700  0.18420  Biso   1.000  C
  C60      1.0000 0.67510  0.51300  0.31580  Biso   1.000  C
  C61      1.0000 0.48700  0.32490  0.68420  Biso   1.000  C
  C62      1.0000 0.98700  0.67510  0.81580  Biso   1.000  C
  C63      1.0000 0.51300  0.82490  0.81580  Biso   1.000  C
  C64      1.0000 0.82490  0.98700  0.31580  Biso   1.000  C
  H49      1.0000 0.94340  0.81270  0.27870  Biso   1.000  H
  H50      1.0000 0.68730  0.94340  0.77870  Biso   1.000  H
  H51      1.0000 0.81270  0.55660  0.77870  Biso   1.000  H
  H52      1.0000 0.31270  0.44340  0.72130  Biso   1.000  H
  H53      1.0000 0.55660  0.68730  0.27870  Biso   1.000  H
  H54      1.0000 0.05660  0.31270  0.22130  Biso   1.000  H
  H55      1.0000 0.44340  0.18730  0.22130  Biso   1.000  H
  H56      1.0000 0.18730  0.05660  0.72130  Biso   1.000  H
  H57      1.0000 0.05660  0.18730  0.72130  Biso   1.000  H
  H58      1.0000 0.31270  0.05660  0.22130  Biso   1.000  H
  H59      1.0000 0.18730  0.44340  0.22130  Biso   1.000  H
  H60      1.0000 0.68730  0.55660  0.27870  Biso   1.000  H
  H61      1.0000 0.44340  0.31270  0.72130  Biso   1.000  H
  H62      1.0000 0.94340  0.68730  0.77870  Biso   1.000  H
  H63      1.0000 0.55660  0.81270  0.77870  Biso   1.000  H
  H64      1.0000 0.81270  0.94340  0.27870  Biso   1.000  H
  H65      1.0000 0.96120  0.59060  0.08910  Biso   1.000  H
  H66      1.0000 0.90940  0.96120  0.58910  Biso   1.000  H
  H67      1.0000 0.59060  0.53880  0.58910  Biso   1.000  H
  H68      1.0000 0.09060  0.46120  0.91090  Biso   1.000  H
  H69      1.0000 0.53880  0.90940  0.08910  Biso   1.000  H
  H70      1.0000 0.03880  0.09060  0.41090  Biso   1.000  H
  H71      1.0000 0.46120  0.40940  0.41090  Biso   1.000  H
  H72      1.0000 0.40940  0.03880  0.91090  Biso   1.000  H
  H73      1.0000 0.03880  0.40940  0.91090  Biso   1.000  H
  H74      1.0000 0.09060  0.03880  0.41090  Biso   1.000  H
  H75      1.0000 0.40940  0.46120  0.41090  Biso   1.000  H
  H76      1.0000 0.90940  0.53880  0.08910  Biso   1.000  H
  H77      1.0000 0.46120  0.09060  0.91090  Biso   1.000  H
  H78      1.0000 0.96120  0.90940  0.58910  Biso   1.000  H
  H79      1.0000 0.53880  0.59060  0.58910  Biso   1.000  H
  H80      1.0000 0.59060  0.96120  0.08910  Biso   1.000  H
