data_image0
_cell_length_a       5.738
_cell_length_b       9.471
_cell_length_c       10.852
_cell_angle_alpha    64.246
_cell_angle_beta     80.464
_cell_angle_gamma    89.857

_symmetry_space_group_name_H-M    "P 1"
_symmetry_int_tables_number       1

loop_
  _symmetry_equiv_pos_as_xyz
  'x, y, z'

loop_
  _atom_site_label
  _atom_site_occupancy
  _atom_site_fract_x
  _atom_site_fract_y
  _atom_site_fract_z
  _atom_site_thermal_displace_type
  _atom_site_B_iso_or_equiv
  _atom_site_type_symbol
  Cu1      1.0000 0.00000  0.00000  0.00000  Biso   1.000  Cu
  O1       1.0000 0.08980  0.96160  0.17190  Biso   1.000  O
  O2       1.0000 0.91020  0.03840  0.82810  Biso   1.000  O
  O3       1.0000 0.79450  0.77930  0.25300  Biso   1.000  O
  O4       1.0000 0.20550  0.22070  0.74700  Biso   1.000  O
  N1       1.0000 0.18800  0.81170  0.57200  Biso   1.000  N
  N2       1.0000 0.81200  0.18830  0.42800  Biso   1.000  N
  N3       1.0000 0.79640  0.16870  0.01210  Biso   1.000  N
  N4       1.0000 0.20360  0.83130  0.98790  Biso   1.000  N
  O5       1.0000 0.00190  0.68780  0.63480  Biso   1.000  O
  O6       1.0000 0.99810  0.31220  0.36520  Biso   1.000  O
  C1       1.0000 0.95450  0.84710  0.27060  Biso   1.000  C
  C2       1.0000 0.04550  0.15290  0.72940  Biso   1.000  C
  C3       1.0000 0.00990  0.80670  0.40840  Biso   1.000  C
  C4       1.0000 0.99010  0.19330  0.59160  Biso   1.000  C
  C5       1.0000 0.18650  0.87650  0.43980  Biso   1.000  C
  C6       1.0000 0.81350  0.12350  0.56020  Biso   1.000  C
  C7       1.0000 0.90050  0.69000  0.53430  Biso   1.000  C
  C8       1.0000 0.09950  0.31000  0.46570  Biso   1.000  C
  C9       1.0000 0.36720  0.00630  0.35390  Biso   1.000  C
  C10      1.0000 0.63280  0.99370  0.64610  Biso   1.000  C
  H1       1.0000 0.43810  0.03860  0.41260  Biso   1.000  H
  H2       1.0000 0.56190  0.96140  0.58740  Biso   1.000  H
  H3       1.0000 0.29500  0.09320  0.29060  Biso   1.000  H
  H4       1.0000 0.70500  0.90680  0.70940  Biso   1.000  H
  H5       1.0000 0.48700  0.97220  0.30210  Biso   1.000  H
  H6       1.0000 0.51300  0.02780  0.69790  Biso   1.000  H
  C11      1.0000 0.70360  0.57630  0.56600  Biso   1.000  C
  C12      1.0000 0.29640  0.42370  0.43400  Biso   1.000  C
  H7       1.0000 0.72880  0.47770  0.63970  Biso   1.000  H
  H8       1.0000 0.27120  0.52230  0.36030  Biso   1.000  H
  H9       1.0000 0.69300  0.56210  0.48460  Biso   1.000  H
  H10      1.0000 0.30700  0.43790  0.51540  Biso   1.000  H
  H11      1.0000 0.55890  0.61390  0.59460  Biso   1.000  H
  H12      1.0000 0.44110  0.38610  0.40540  Biso   1.000  H
  C13      1.0000 0.85060  0.24760  0.08170  Biso   1.000  C
  C14      1.0000 0.14940  0.75240  0.91830  Biso   1.000  C
  H13      1.0000 0.97020  0.21380  0.13400  Biso   1.000  H
  H14      1.0000 0.02980  0.78620  0.86600  Biso   1.000  H
  C15      1.0000 0.73780  0.37530  0.07910  Biso   1.000  C
  C16      1.0000 0.26220  0.62470  0.92090  Biso   1.000  C
  H15      1.0000 0.78300  0.42650  0.12860  Biso   1.000  H
  H16      1.0000 0.21700  0.57350  0.87140  Biso   1.000  H
  C17      1.0000 0.55940  0.42970  0.00510  Biso   1.000  C
  C18      1.0000 0.44060  0.57030  0.99490  Biso   1.000  C
  C19      1.0000 0.49820  0.34400  0.93680  Biso   1.000  C
  C20      1.0000 0.50180  0.65600  0.06320  Biso   1.000  C
  H17      1.0000 0.37410  0.37190  0.88760  Biso   1.000  H
  H18      1.0000 0.62590  0.62810  0.11240  Biso   1.000  H
  C21      1.0000 0.62290  0.21820  0.94290  Biso   1.000  C
  C22      1.0000 0.37710  0.78180  0.05710  Biso   1.000  C
  H19      1.0000 0.58150  0.16430  0.89470  Biso   1.000  H
  H20      1.0000 0.41850  0.83570  0.10530  Biso   1.000  H
