data_image0
_cell_length_a       10.028
_cell_length_b       12.693
_cell_length_c       11.881
_cell_angle_alpha    90
_cell_angle_beta     97.236
_cell_angle_gamma    90

_symmetry_space_group_name_H-M    "P 1"
_symmetry_int_tables_number       1

loop_
  _symmetry_equiv_pos_as_xyz
  'x, y, z'

loop_
  _atom_site_label
  _atom_site_occupancy
  _atom_site_fract_x
  _atom_site_fract_y
  _atom_site_fract_z
  _atom_site_thermal_displace_type
  _atom_site_B_iso_or_equiv
  _atom_site_type_symbol
  Cu1      1.0000 0.94378  0.06365  0.91668  Biso   1.000  Cu
  Cu2      1.0000 0.55622  0.56365  0.58332  Biso   1.000  Cu
  Cu3      1.0000 0.05622  0.93635  0.08332  Biso   1.000  Cu
  Cu4      1.0000 0.44378  0.43635  0.41668  Biso   1.000  Cu
  N1       1.0000 0.45850  0.05610  0.19240  Biso   1.000  N
  N2       1.0000 0.04150  0.55610  0.30760  Biso   1.000  N
  N3       1.0000 0.54150  0.94390  0.80760  Biso   1.000  N
  N4       1.0000 0.95850  0.44390  0.69240  Biso   1.000  N
  N5       1.0000 0.83190  0.15530  0.77840  Biso   1.000  N
  N6       1.0000 0.66810  0.65530  0.72160  Biso   1.000  N
  N7       1.0000 0.16810  0.84470  0.22160  Biso   1.000  N
  N8       1.0000 0.33190  0.34470  0.27840  Biso   1.000  N
  O1       1.0000 0.79480  0.06740  0.01270  Biso   1.000  O
  O2       1.0000 0.70520  0.56740  0.48730  Biso   1.000  O
  O3       1.0000 0.20520  0.93260  0.98730  Biso   1.000  O
  O4       1.0000 0.29480  0.43260  0.51270  Biso   1.000  O
  O5       1.0000 0.88580  0.95570  0.14950  Biso   1.000  O
  O6       1.0000 0.61420  0.45570  0.35050  Biso   1.000  O
  O7       1.0000 0.11420  0.04430  0.85050  Biso   1.000  O
  O8       1.0000 0.38580  0.54430  0.64950  Biso   1.000  O
  O9       1.0000 0.62300  0.42700  0.64770  Biso   1.000  O
  O10      1.0000 0.87700  0.92700  0.85230  Biso   1.000  O
  O11      1.0000 0.37700  0.57300  0.35230  Biso   1.000  O
  O12      1.0000 0.12300  0.07300  0.14770  Biso   1.000  O
  O13      1.0000 0.53290  0.31890  0.50590  Biso   1.000  O
  O14      1.0000 0.96710  0.81890  0.99410  Biso   1.000  O
  O15      1.0000 0.46710  0.68110  0.49410  Biso   1.000  O
  O16      1.0000 0.03290  0.18110  0.00590  Biso   1.000  O
  C1       1.0000 0.79070  0.01240  0.10090  Biso   1.000  C
  C2       1.0000 0.70930  0.51240  0.39910  Biso   1.000  C
  C3       1.0000 0.20930  0.98760  0.89910  Biso   1.000  C
  C4       1.0000 0.29070  0.48760  0.60090  Biso   1.000  C
  C5       1.0000 0.66270  0.01270  0.15450  Biso   1.000  C
  C6       1.0000 0.83730  0.51270  0.34550  Biso   1.000  C
  C7       1.0000 0.33730  0.98730  0.84550  Biso   1.000  C
  C8       1.0000 0.16270  0.48730  0.65450  Biso   1.000  C
  C9       1.0000 0.62590  0.94350  0.23660  Biso   1.000  C
  C10      1.0000 0.87410  0.44350  0.26340  Biso   1.000  C
  C11      1.0000 0.37410  0.05650  0.76340  Biso   1.000  C
  C12      1.0000 0.12590  0.55650  0.73660  Biso   1.000  C
  C13      1.0000 0.69770  0.85160  0.29490  Biso   1.000  C
  C14      1.0000 0.80230  0.35160  0.20510  Biso   1.000  C
  C15      1.0000 0.30230  0.14840  0.70510  Biso   1.000  C
  C16      1.0000 0.19770  0.64840  0.79490  Biso   1.000  C
  H1       1.0000 0.64330  0.82130  0.34740  Biso   1.000  H
  H2       1.0000 0.85670  0.32130  0.15260  Biso   1.000  H
  H3       1.0000 0.35670  0.17870  0.65260  Biso   1.000  H
  H4       1.0000 0.14330  0.67870  0.84740  Biso   1.000  H
  H5       1.0000 0.78160  0.87470  0.33510  Biso   1.000  H
  H6       1.0000 0.71840  0.37470  0.16490  Biso   1.000  H
  H7       1.0000 0.21840  0.12530  0.66490  Biso   1.000  H
  H8       1.0000 0.28160  0.62530  0.83510  Biso   1.000  H
  H9       1.0000 0.71440  0.79970  0.23950  Biso   1.000  H
  H10      1.0000 0.78560  0.29970  0.26050  Biso   1.000  H
  H11      1.0000 0.28560  0.20030  0.76050  Biso   1.000  H
  H12      1.0000 0.21440  0.70030  0.73950  Biso   1.000  H
  O17      1.0000 0.50270  0.96920  0.26120  Biso   1.000  O
  O18      1.0000 0.99730  0.46920  0.23880  Biso   1.000  O
  O19      1.0000 0.49730  0.03080  0.73880  Biso   1.000  O
  O20      1.0000 0.00270  0.53080  0.76120  Biso   1.000  O
  C17      1.0000 0.55550  0.07990  0.12980  Biso   1.000  C
  C18      1.0000 0.94450  0.57990  0.37020  Biso   1.000  C
  C19      1.0000 0.44450  0.92010  0.87020  Biso   1.000  C
  C20      1.0000 0.05550  0.42010  0.62980  Biso   1.000  C
  C21      1.0000 0.52680  0.17020  0.05050  Biso   1.000  C
  C22      1.0000 0.97320  0.67020  0.44950  Biso   1.000  C
  C23      1.0000 0.47320  0.82980  0.94950  Biso   1.000  C
  C24      1.0000 0.02680  0.32980  0.55050  Biso   1.000  C
  H13      1.0000 0.43900  0.19780  0.05730  Biso   1.000  H
  H14      1.0000 0.06100  0.69780  0.44270  Biso   1.000  H
  H15      1.0000 0.56100  0.80220  0.94270  Biso   1.000  H
  H16      1.0000 0.93900  0.30220  0.55730  Biso   1.000  H
  H17      1.0000 0.53010  0.14680  0.97410  Biso   1.000  H
  H18      1.0000 0.96990  0.64680  0.52590  Biso   1.000  H
  H19      1.0000 0.46990  0.85320  0.02590  Biso   1.000  H
  H20      1.0000 0.03010  0.35320  0.47410  Biso   1.000  H
  H21      1.0000 0.59280  0.22440  0.06900  Biso   1.000  H
  H22      1.0000 0.90720  0.72440  0.43100  Biso   1.000  H
  H23      1.0000 0.40720  0.77560  0.93100  Biso   1.000  H
  H24      1.0000 0.09280  0.27560  0.56900  Biso   1.000  H
  C25      1.0000 0.60790  0.33890  0.59750  Biso   1.000  C
  C26      1.0000 0.89210  0.83890  0.90250  Biso   1.000  C
  C27      1.0000 0.39210  0.66110  0.40250  Biso   1.000  C
  C28      1.0000 0.10790  0.16110  0.09750  Biso   1.000  C
  C29      1.0000 0.69060  0.24920  0.65150  Biso   1.000  C
  C30      1.0000 0.80940  0.74920  0.84850  Biso   1.000  C
  C31      1.0000 0.30940  0.75080  0.34850  Biso   1.000  C
  C32      1.0000 0.19060  0.25080  0.15150  Biso   1.000  C
  C33      1.0000 0.72020  0.15740  0.60100  Biso   1.000  C
  C34      1.0000 0.77980  0.65740  0.89900  Biso   1.000  C
  C35      1.0000 0.27980  0.84260  0.39900  Biso   1.000  C
  C36      1.0000 0.22020  0.34260  0.10100  Biso   1.000  C
  C37      1.0000 0.68120  0.10890  0.48670  Biso   1.000  C
  C38      1.0000 0.81880  0.60890  0.01330  Biso   1.000  C
  C39      1.0000 0.31880  0.89110  0.51330  Biso   1.000  C
  C40      1.0000 0.18120  0.39110  0.98670  Biso   1.000  C
  H25      1.0000 0.72500  0.04190  0.48340  Biso   1.000  H
  H26      1.0000 0.77500  0.54190  0.01660  Biso   1.000  H
  H27      1.0000 0.27500  0.95810  0.51660  Biso   1.000  H
  H28      1.0000 0.22500  0.45810  0.98340  Biso   1.000  H
  H29      1.0000 0.70800  0.15440  0.42910  Biso   1.000  H
  H30      1.0000 0.79200  0.65440  0.07090  Biso   1.000  H
  H31      1.0000 0.29200  0.84560  0.57090  Biso   1.000  H
  H32      1.0000 0.20800  0.34560  0.92910  Biso   1.000  H
  H33      1.0000 0.58550  0.09910  0.47440  Biso   1.000  H
  H34      1.0000 0.91450  0.59910  0.02560  Biso   1.000  H
  H35      1.0000 0.41450  0.90090  0.52560  Biso   1.000  H
  H36      1.0000 0.08550  0.40090  0.97440  Biso   1.000  H
  O21      1.0000 0.80610  0.09910  0.67350  Biso   1.000  O
  O22      1.0000 0.69390  0.59910  0.82650  Biso   1.000  O
  O23      1.0000 0.19390  0.90090  0.32650  Biso   1.000  O
  O24      1.0000 0.30610  0.40090  0.17350  Biso   1.000  O
  C41      1.0000 0.76340  0.24360  0.76340  Biso   1.000  C
  C42      1.0000 0.73660  0.74360  0.73660  Biso   1.000  C
  C43      1.0000 0.23660  0.75640  0.23660  Biso   1.000  C
  C44      1.0000 0.26340  0.25640  0.26340  Biso   1.000  C
  C45      1.0000 0.76660  0.32090  0.85980  Biso   1.000  C
  C46      1.0000 0.73340  0.82090  0.64020  Biso   1.000  C
  C47      1.0000 0.23340  0.67910  0.14020  Biso   1.000  C
  C48      1.0000 0.26660  0.17910  0.35980  Biso   1.000  C
  H37      1.0000 0.82470  0.29470  0.92410  Biso   1.000  H
  H38      1.0000 0.67530  0.79470  0.57590  Biso   1.000  H
  H39      1.0000 0.17530  0.70530  0.07590  Biso   1.000  H
  H40      1.0000 0.32470  0.20530  0.42410  Biso   1.000  H
  H41      1.0000 0.67750  0.32970  0.87980  Biso   1.000  H
  H42      1.0000 0.82250  0.82970  0.62020  Biso   1.000  H
  H43      1.0000 0.32250  0.67030  0.12020  Biso   1.000  H
  H44      1.0000 0.17750  0.17030  0.37980  Biso   1.000  H
  H45      1.0000 0.79970  0.38750  0.83690  Biso   1.000  H
  H46      1.0000 0.70030  0.88750  0.66310  Biso   1.000  H
  H47      1.0000 0.20030  0.61250  0.16310  Biso   1.000  H
  H48      1.0000 0.29970  0.11250  0.33690  Biso   1.000  H
