data_image0
_cell_length_a       6.5294
_cell_length_b       16.7236
_cell_length_c       8.599
_cell_angle_alpha    90
_cell_angle_beta     112.21
_cell_angle_gamma    90

_symmetry_space_group_name_H-M    "P 1"
_symmetry_int_tables_number       1

loop_
  _symmetry_equiv_pos_as_xyz
  'x, y, z'

loop_
  _atom_site_label
  _atom_site_occupancy
  _atom_site_fract_x
  _atom_site_fract_y
  _atom_site_fract_z
  _atom_site_thermal_displace_type
  _atom_site_B_iso_or_equiv
  _atom_site_type_symbol
  Cl1      1.0000 0.26134  0.59813  0.51988  Biso   1.000  Cl
  Cl2      1.0000 0.26134  0.90187  0.01988  Biso   1.000  Cl
  Cl3      1.0000 0.73866  0.40187  0.48012  Biso   1.000  Cl
  Cl4      1.0000 0.73866  0.09813  0.98012  Biso   1.000  Cl
  Cl5      1.0000 0.12263  0.42581  0.33119  Biso   1.000  Cl
  Cl6      1.0000 0.12263  0.07419  0.83119  Biso   1.000  Cl
  Cl7      1.0000 0.87737  0.57419  0.66881  Biso   1.000  Cl
  Cl8      1.0000 0.87737  0.92581  0.16881  Biso   1.000  Cl
  O1       1.0000 0.52160  0.45083  0.71910  Biso   1.000  O
  O2       1.0000 0.52160  0.04917  0.21910  Biso   1.000  O
  O3       1.0000 0.47840  0.54917  0.28090  Biso   1.000  O
  O4       1.0000 0.47840  0.95083  0.78090  Biso   1.000  O
  N1       1.0000 0.34070  0.43970  0.74110  Biso   1.000  N
  N2       1.0000 0.34070  0.06030  0.24110  Biso   1.000  N
  N3       1.0000 0.65930  0.56030  0.25890  Biso   1.000  N
  N4       1.0000 0.65930  0.93970  0.75890  Biso   1.000  N
  N5       1.0000 0.36310  0.40921  0.88410  Biso   1.000  N
  N6       1.0000 0.36310  0.09079  0.38410  Biso   1.000  N
  N7       1.0000 0.63690  0.59079  0.11590  Biso   1.000  N
  N8       1.0000 0.63690  0.90921  0.61590  Biso   1.000  N
  C1       1.0000 0.16090  0.39140  0.91480  Biso   1.000  C
  C2       1.0000 0.16090  0.10860  0.41480  Biso   1.000  C
  C3       1.0000 0.83910  0.60860  0.08520  Biso   1.000  C
  C4       1.0000 0.83910  0.89140  0.58520  Biso   1.000  C
  C5       1.0000 0.57630  0.38550  0.01620  Biso   1.000  C
  C6       1.0000 0.57630  0.11450  0.51620  Biso   1.000  C
  C7       1.0000 0.42370  0.61450  0.98380  Biso   1.000  C
  C8       1.0000 0.42370  0.88550  0.48380  Biso   1.000  C
  H1       1.0000 0.16410  0.41990  0.00890  Biso   1.000  H
  H2       1.0000 0.16410  0.08010  0.50890  Biso   1.000  H
  H3       1.0000 0.83590  0.58010  0.99110  Biso   1.000  H
  H4       1.0000 0.83590  0.91990  0.49110  Biso   1.000  H
  H5       1.0000 0.03960  0.41160  0.82160  Biso   1.000  H
  H6       1.0000 0.03960  0.08840  0.32160  Biso   1.000  H
  H7       1.0000 0.96040  0.58840  0.17840  Biso   1.000  H
  H8       1.0000 0.96040  0.91160  0.67840  Biso   1.000  H
  C9       1.0000 0.15180  0.30220  0.94330  Biso   1.000  C
  C10      1.0000 0.15180  0.19780  0.44330  Biso   1.000  C
  C11      1.0000 0.84820  0.69780  0.05670  Biso   1.000  C
  C12      1.0000 0.84820  0.80220  0.55670  Biso   1.000  C
  C13      1.0000 0.56860  0.29620  0.04820  Biso   1.000  C
  C14      1.0000 0.56860  0.20380  0.54820  Biso   1.000  C
  C15      1.0000 0.43140  0.70380  0.95180  Biso   1.000  C
  C16      1.0000 0.43140  0.79620  0.45180  Biso   1.000  C
  H9       1.0000 0.69620  0.40140  0.98350  Biso   1.000  H
  H10      1.0000 0.69620  0.09860  0.48350  Biso   1.000  H
  H11      1.0000 0.30380  0.59860  0.01650  Biso   1.000  H
  H12      1.0000 0.30380  0.90140  0.51650  Biso   1.000  H
  H13      1.0000 0.58180  0.41640  0.11060  Biso   1.000  H
  H14      1.0000 0.58180  0.08360  0.61060  Biso   1.000  H
  H15      1.0000 0.41820  0.58360  0.88940  Biso   1.000  H
  H16      1.0000 0.41820  0.91640  0.38940  Biso   1.000  H
  H17      1.0000 0.12650  0.27460  0.84330  Biso   1.000  H
  H18      1.0000 0.12650  0.22540  0.34330  Biso   1.000  H
  H19      1.0000 0.87350  0.72540  0.15670  Biso   1.000  H
  H20      1.0000 0.87350  0.77460  0.65670  Biso   1.000  H
  H21      1.0000 0.02980  0.29340  0.97480  Biso   1.000  H
  H22      1.0000 0.02980  0.20660  0.47480  Biso   1.000  H
  H23      1.0000 0.97020  0.70660  0.02520  Biso   1.000  H
  H24      1.0000 0.97020  0.79340  0.52520  Biso   1.000  H
  C17      1.0000 0.36510  0.27380  0.08280  Biso   1.000  C
  C18      1.0000 0.36510  0.22620  0.58280  Biso   1.000  C
  C19      1.0000 0.63490  0.72620  0.91720  Biso   1.000  C
  C20      1.0000 0.63490  0.77380  0.41720  Biso   1.000  C
  H25      1.0000 0.70360  0.28370  0.14450  Biso   1.000  H
  H26      1.0000 0.70360  0.21630  0.64450  Biso   1.000  H
  H27      1.0000 0.29640  0.71630  0.85550  Biso   1.000  H
  H28      1.0000 0.29640  0.78370  0.35550  Biso   1.000  H
  H29      1.0000 0.57340  0.26800  0.94950  Biso   1.000  H
  H30      1.0000 0.57340  0.23200  0.44950  Biso   1.000  H
  H31      1.0000 0.42660  0.73200  0.05050  Biso   1.000  H
  H32      1.0000 0.42660  0.76800  0.55050  Biso   1.000  H
  H33      1.0000 0.35810  0.21510  0.09800  Biso   1.000  H
  H34      1.0000 0.35810  0.28490  0.59800  Biso   1.000  H
  H35      1.0000 0.64190  0.78490  0.90200  Biso   1.000  H
  H36      1.0000 0.64190  0.71510  0.40200  Biso   1.000  H
  H37      1.0000 0.36740  0.30130  0.18830  Biso   1.000  H
  H38      1.0000 0.36740  0.19870  0.68830  Biso   1.000  H
  H39      1.0000 0.63260  0.69870  0.81170  Biso   1.000  H
  H40      1.0000 0.63260  0.80130  0.31170  Biso   1.000  H
  Cu1      1.0000 0.00000  0.50000  0.50000  Biso   1.000  Cu
  Cu2      1.0000 0.00000  0.00000  0.00000  Biso   1.000  Cu
  Cu3      1.0000 0.50000  0.50000  0.50000  Biso   1.000  Cu
  Cu4      1.0000 0.50000  0.00000  0.00000  Biso   1.000  Cu
