data_image0
_cell_length_a       18.883
_cell_length_b       11.088
_cell_length_c       11.086
_cell_angle_alpha    90
_cell_angle_beta     104.588
_cell_angle_gamma    90

_symmetry_space_group_name_H-M    "P 1"
_symmetry_int_tables_number       1

loop_
  _symmetry_equiv_pos_as_xyz
  'x, y, z'

loop_
  _atom_site_label
  _atom_site_occupancy
  _atom_site_fract_x
  _atom_site_fract_y
  _atom_site_fract_z
  _atom_site_thermal_displace_type
  _atom_site_B_iso_or_equiv
  _atom_site_type_symbol
  Cu1      1.0000 0.57375  0.50000  0.53169  Biso   1.000  Cu
  Cu2      1.0000 0.42625  0.50000  0.46831  Biso   1.000  Cu
  Cu3      1.0000 0.07375  0.00000  0.53169  Biso   1.000  Cu
  Cu4      1.0000 0.92625  0.00000  0.46831  Biso   1.000  Cu
  O1       1.0000 0.56120  0.67540  0.52590  Biso   1.000  O
  O2       1.0000 0.43880  0.67540  0.47410  Biso   1.000  O
  O3       1.0000 0.06120  0.17540  0.52590  Biso   1.000  O
  O4       1.0000 0.93880  0.17540  0.47410  Biso   1.000  O
  O5       1.0000 0.43880  0.32460  0.47410  Biso   1.000  O
  O6       1.0000 0.56120  0.32460  0.52590  Biso   1.000  O
  O7       1.0000 0.93880  0.82460  0.47410  Biso   1.000  O
  O8       1.0000 0.06120  0.82460  0.52590  Biso   1.000  O
  O9       1.0000 0.56050  0.50000  0.70010  Biso   1.000  O
  O10      1.0000 0.43950  0.50000  0.29990  Biso   1.000  O
  O11      1.0000 0.06050  0.00000  0.70010  Biso   1.000  O
  O12      1.0000 0.93950  0.00000  0.29990  Biso   1.000  O
  O13      1.0000 0.43800  0.50000  0.64830  Biso   1.000  O
  O14      1.0000 0.56200  0.50000  0.35170  Biso   1.000  O
  O15      1.0000 0.93800  0.00000  0.64830  Biso   1.000  O
  O16      1.0000 0.06200  0.00000  0.35170  Biso   1.000  O
  B1       1.0000 0.48880  0.93290  0.63030  Biso   1.000  B
  B2       1.0000 0.51120  0.93290  0.36970  Biso   1.000  B
  B3       1.0000 0.98880  0.43290  0.63030  Biso   1.000  B
  B4       1.0000 0.01120  0.43290  0.36970  Biso   1.000  B
  B5       1.0000 0.51120  0.06710  0.36970  Biso   1.000  B
  B6       1.0000 0.48880  0.06710  0.63030  Biso   1.000  B
  B7       1.0000 0.01120  0.56710  0.36970  Biso   1.000  B
  B8       1.0000 0.98880  0.56710  0.63030  Biso   1.000  B
  H1       1.0000 0.48250  0.88740  0.71720  Biso   1.000  H
  H2       1.0000 0.51750  0.88740  0.28280  Biso   1.000  H
  H3       1.0000 0.98250  0.38740  0.71720  Biso   1.000  H
  H4       1.0000 0.01750  0.38740  0.28280  Biso   1.000  H
  H5       1.0000 0.51750  0.11260  0.28280  Biso   1.000  H
  H6       1.0000 0.48250  0.11260  0.71720  Biso   1.000  H
  H7       1.0000 0.01750  0.61260  0.28280  Biso   1.000  H
  H8       1.0000 0.98250  0.61260  0.71720  Biso   1.000  H
  B9       1.0000 0.41880  0.92920  0.48510  Biso   1.000  B
  B10      1.0000 0.58120  0.92920  0.51490  Biso   1.000  B
  B11      1.0000 0.91880  0.42920  0.48510  Biso   1.000  B
  B12      1.0000 0.08120  0.42920  0.51490  Biso   1.000  B
  B13      1.0000 0.58120  0.07080  0.51490  Biso   1.000  B
  B14      1.0000 0.41880  0.07080  0.48510  Biso   1.000  B
  B15      1.0000 0.08120  0.57080  0.51490  Biso   1.000  B
  B16      1.0000 0.91880  0.57080  0.48510  Biso   1.000  B
  H9       1.0000 0.36590  0.88030  0.47690  Biso   1.000  H
  H10      1.0000 0.63410  0.88030  0.52310  Biso   1.000  H
  H11      1.0000 0.86590  0.38030  0.47690  Biso   1.000  H
  H12      1.0000 0.13410  0.38030  0.52310  Biso   1.000  H
  H13      1.0000 0.63410  0.11970  0.52310  Biso   1.000  H
  H14      1.0000 0.36590  0.11970  0.47690  Biso   1.000  H
  H15      1.0000 0.13410  0.61970  0.52310  Biso   1.000  H
  H16      1.0000 0.86590  0.61970  0.47690  Biso   1.000  H
  B17      1.0000 0.46230  0.92980  0.36110  Biso   1.000  B
  B18      1.0000 0.53770  0.92980  0.63890  Biso   1.000  B
  B19      1.0000 0.96230  0.42980  0.36110  Biso   1.000  B
  B20      1.0000 0.03770  0.42980  0.63890  Biso   1.000  B
  B21      1.0000 0.53770  0.07020  0.63890  Biso   1.000  B
  B22      1.0000 0.46230  0.07020  0.36110  Biso   1.000  B
  B23      1.0000 0.03770  0.57020  0.63890  Biso   1.000  B
  B24      1.0000 0.96230  0.57020  0.36110  Biso   1.000  B
  H17      1.0000 0.43880  0.88260  0.27050  Biso   1.000  H
  H18      1.0000 0.56120  0.88260  0.72950  Biso   1.000  H
  H19      1.0000 0.93880  0.38260  0.27050  Biso   1.000  H
  H20      1.0000 0.06120  0.38260  0.72950  Biso   1.000  H
  H21      1.0000 0.56120  0.11740  0.72950  Biso   1.000  H
  H22      1.0000 0.43880  0.11740  0.27050  Biso   1.000  H
  H23      1.0000 0.06120  0.61740  0.72950  Biso   1.000  H
  H24      1.0000 0.93880  0.61740  0.27050  Biso   1.000  H
  B25      1.0000 0.56290  0.93610  0.43610  Biso   1.000  B
  B26      1.0000 0.43710  0.93610  0.56390  Biso   1.000  B
  B27      1.0000 0.06290  0.43610  0.43610  Biso   1.000  B
  B28      1.0000 0.93710  0.43610  0.56390  Biso   1.000  B
  B29      1.0000 0.43710  0.06390  0.56390  Biso   1.000  B
  B30      1.0000 0.56290  0.06390  0.43610  Biso   1.000  B
  B31      1.0000 0.93710  0.56390  0.56390  Biso   1.000  B
  B32      1.0000 0.06290  0.56390  0.43610  Biso   1.000  B
  H25      1.0000 0.60490  0.89190  0.39530  Biso   1.000  H
  H26      1.0000 0.39510  0.89190  0.60470  Biso   1.000  H
  H27      1.0000 0.10490  0.39190  0.39530  Biso   1.000  H
  H28      1.0000 0.89510  0.39190  0.60470  Biso   1.000  H
  H29      1.0000 0.39510  0.10810  0.60470  Biso   1.000  H
  H30      1.0000 0.60490  0.10810  0.39530  Biso   1.000  H
  H31      1.0000 0.89510  0.60810  0.60470  Biso   1.000  H
  H32      1.0000 0.10490  0.60810  0.39530  Biso   1.000  H
  B33      1.0000 0.57460  0.93870  0.59350  Biso   1.000  B
  B34      1.0000 0.42540  0.93870  0.40650  Biso   1.000  B
  B35      1.0000 0.07460  0.43870  0.59350  Biso   1.000  B
  B36      1.0000 0.92540  0.43870  0.40650  Biso   1.000  B
  B37      1.0000 0.42540  0.06130  0.40650  Biso   1.000  B
  B38      1.0000 0.57460  0.06130  0.59350  Biso   1.000  B
  B39      1.0000 0.92540  0.56130  0.40650  Biso   1.000  B
  B40      1.0000 0.07460  0.56130  0.59350  Biso   1.000  B
  H33      1.0000 0.62390  0.89470  0.65540  Biso   1.000  H
  H34      1.0000 0.37610  0.89470  0.34460  Biso   1.000  H
  H35      1.0000 0.12390  0.39470  0.65540  Biso   1.000  H
  H36      1.0000 0.87610  0.39470  0.34460  Biso   1.000  H
  H37      1.0000 0.37610  0.10530  0.34460  Biso   1.000  H
  H38      1.0000 0.62390  0.10530  0.65540  Biso   1.000  H
  H39      1.0000 0.87610  0.60530  0.34460  Biso   1.000  H
  H40      1.0000 0.12390  0.60530  0.65540  Biso   1.000  H
  B41      1.0000 0.55290  0.39940  0.95410  Biso   1.000  B
  B42      1.0000 0.44710  0.39940  0.04590  Biso   1.000  B
  B43      1.0000 0.05290  0.89940  0.95410  Biso   1.000  B
  B44      1.0000 0.94710  0.89940  0.04590  Biso   1.000  B
  B45      1.0000 0.44710  0.60060  0.04590  Biso   1.000  B
  B46      1.0000 0.55290  0.60060  0.95410  Biso   1.000  B
  B47      1.0000 0.94710  0.10060  0.04590  Biso   1.000  B
  B48      1.0000 0.05290  0.10060  0.95410  Biso   1.000  B
  H41      1.0000 0.59940  0.33540  0.95880  Biso   1.000  H
  H42      1.0000 0.40060  0.33540  0.04120  Biso   1.000  H
  H43      1.0000 0.09940  0.83540  0.95880  Biso   1.000  H
  H44      1.0000 0.90060  0.83540  0.04120  Biso   1.000  H
  H45      1.0000 0.40060  0.66460  0.04120  Biso   1.000  H
  H46      1.0000 0.59940  0.66460  0.95880  Biso   1.000  H
  H47      1.0000 0.90060  0.16460  0.04120  Biso   1.000  H
  H48      1.0000 0.09940  0.16460  0.95880  Biso   1.000  H
  B49      1.0000 0.45900  0.38080  0.91590  Biso   1.000  B
  B50      1.0000 0.54100  0.38080  0.08410  Biso   1.000  B
  B51      1.0000 0.95900  0.88080  0.91590  Biso   1.000  B
  B52      1.0000 0.04100  0.88080  0.08410  Biso   1.000  B
  B53      1.0000 0.54100  0.61920  0.08410  Biso   1.000  B
  B54      1.0000 0.45900  0.61920  0.91590  Biso   1.000  B
  B55      1.0000 0.04100  0.11920  0.08410  Biso   1.000  B
  B56      1.0000 0.95900  0.11920  0.91590  Biso   1.000  B
  H49      1.0000 0.43300  0.30140  0.85940  Biso   1.000  H
  H50      1.0000 0.56700  0.30140  0.14060  Biso   1.000  H
  H51      1.0000 0.93300  0.80140  0.85940  Biso   1.000  H
  H52      1.0000 0.06700  0.80140  0.14060  Biso   1.000  H
  H53      1.0000 0.56700  0.69860  0.14060  Biso   1.000  H
  H54      1.0000 0.43300  0.69860  0.85940  Biso   1.000  H
  H55      1.0000 0.06700  0.19860  0.14060  Biso   1.000  H
  H56      1.0000 0.93300  0.19860  0.85940  Biso   1.000  H
  B57      1.0000 0.42030  0.52620  0.90050  Biso   1.000  B
  B58      1.0000 0.57970  0.52620  0.09950  Biso   1.000  B
  B59      1.0000 0.92030  0.02620  0.90050  Biso   1.000  B
  B60      1.0000 0.07970  0.02620  0.09950  Biso   1.000  B
  B61      1.0000 0.57970  0.47380  0.09950  Biso   1.000  B
  B62      1.0000 0.42030  0.47380  0.90050  Biso   1.000  B
  B63      1.0000 0.07970  0.97380  0.09950  Biso   1.000  B
  B64      1.0000 0.92030  0.97380  0.90050  Biso   1.000  B
  H57      1.0000 0.36670  0.54360  0.83170  Biso   1.000  H
  H58      1.0000 0.63330  0.54360  0.16830  Biso   1.000  H
  H59      1.0000 0.86670  0.04360  0.83170  Biso   1.000  H
  H60      1.0000 0.13330  0.04360  0.16830  Biso   1.000  H
  H61      1.0000 0.63330  0.45640  0.16830  Biso   1.000  H
  H62      1.0000 0.36670  0.45640  0.83170  Biso   1.000  H
  H63      1.0000 0.13330  0.95640  0.16830  Biso   1.000  H
  H64      1.0000 0.86670  0.95640  0.83170  Biso   1.000  H
  B65      1.0000 0.49520  0.63210  0.93110  Biso   1.000  B
  B66      1.0000 0.50480  0.63210  0.06890  Biso   1.000  B
  B67      1.0000 0.99520  0.13210  0.93110  Biso   1.000  B
  B68      1.0000 0.00480  0.13210  0.06890  Biso   1.000  B
  B69      1.0000 0.50480  0.36790  0.06890  Biso   1.000  B
  B70      1.0000 0.49520  0.36790  0.93110  Biso   1.000  B
  B71      1.0000 0.00480  0.86790  0.06890  Biso   1.000  B
  B72      1.0000 0.99520  0.86790  0.93110  Biso   1.000  B
  H65      1.0000 0.49220  0.72140  0.88270  Biso   1.000  H
  H66      1.0000 0.50780  0.72140  0.11730  Biso   1.000  H
  H67      1.0000 0.99220  0.22140  0.88270  Biso   1.000  H
  H68      1.0000 0.00780  0.22140  0.11730  Biso   1.000  H
  H69      1.0000 0.50780  0.27860  0.11730  Biso   1.000  H
  H70      1.0000 0.49220  0.27860  0.88270  Biso   1.000  H
  H71      1.0000 0.00780  0.77860  0.11730  Biso   1.000  H
  H72      1.0000 0.99220  0.77860  0.88270  Biso   1.000  H
  B73      1.0000 0.57590  0.54930  0.96350  Biso   1.000  B
  B74      1.0000 0.42410  0.54930  0.03650  Biso   1.000  B
  B75      1.0000 0.07590  0.04930  0.96350  Biso   1.000  B
  B76      1.0000 0.92410  0.04930  0.03650  Biso   1.000  B
  B77      1.0000 0.42410  0.45070  0.03650  Biso   1.000  B
  B78      1.0000 0.57590  0.45070  0.96350  Biso   1.000  B
  B79      1.0000 0.92410  0.95070  0.03650  Biso   1.000  B
  B80      1.0000 0.07590  0.95070  0.96350  Biso   1.000  B
  H73      1.0000 0.62680  0.58020  0.93810  Biso   1.000  H
  H74      1.0000 0.37320  0.58020  0.06190  Biso   1.000  H
  H75      1.0000 0.12680  0.08020  0.93810  Biso   1.000  H
  H76      1.0000 0.87320  0.08020  0.06190  Biso   1.000  H
  H77      1.0000 0.37320  0.41980  0.06190  Biso   1.000  H
  H78      1.0000 0.62680  0.41980  0.93810  Biso   1.000  H
  H79      1.0000 0.87320  0.91980  0.06190  Biso   1.000  H
  H80      1.0000 0.12680  0.91980  0.93810  Biso   1.000  H
  C1       1.0000 0.50000  0.86140  0.50000  Biso   1.000  C
  C2       1.0000 0.00000  0.36140  0.50000  Biso   1.000  C
  C3       1.0000 0.50000  0.13860  0.50000  Biso   1.000  C
  C4       1.0000 0.00000  0.63860  0.50000  Biso   1.000  C
  C5       1.0000 0.50000  0.72350  0.50000  Biso   1.000  C
  C6       1.0000 0.00000  0.22350  0.50000  Biso   1.000  C
  C7       1.0000 0.50000  0.27650  0.50000  Biso   1.000  C
  C8       1.0000 0.00000  0.77650  0.50000  Biso   1.000  C
  C9       1.0000 0.49950  0.50000  0.86080  Biso   1.000  C
  C10      1.0000 0.50050  0.50000  0.13920  Biso   1.000  C
  C11      1.0000 0.99950  0.00000  0.86080  Biso   1.000  C
  C12      1.0000 0.00050  0.00000  0.13920  Biso   1.000  C
  C13      1.0000 0.49890  0.50000  0.72390  Biso   1.000  C
  C14      1.0000 0.50110  0.50000  0.27610  Biso   1.000  C
  C15      1.0000 0.99890  0.00000  0.72390  Biso   1.000  C
  C16      1.0000 0.00110  0.00000  0.27610  Biso   1.000  C
  O17      1.0000 0.68620  0.52890  0.58130  Biso   1.000  O
  O18      1.0000 0.31380  0.52890  0.41870  Biso   1.000  O
  O19      1.0000 0.18620  0.02890  0.58130  Biso   1.000  O
  O20      1.0000 0.81380  0.02890  0.41870  Biso   1.000  O
  O21      1.0000 0.31380  0.47110  0.41870  Biso   1.000  O
  O22      1.0000 0.68620  0.47110  0.58130  Biso   1.000  O
  O23      1.0000 0.81380  0.97110  0.41870  Biso   1.000  O
  O24      1.0000 0.18620  0.97110  0.58130  Biso   1.000  O
  H81      1.0000 0.71400  0.59140  0.60500  Biso   1.000  H
  H82      1.0000 0.28600  0.59140  0.39500  Biso   1.000  H
  H83      1.0000 0.21400  0.09140  0.60500  Biso   1.000  H
  H84      1.0000 0.78600  0.09140  0.39500  Biso   1.000  H
  H85      1.0000 0.28600  0.40860  0.39500  Biso   1.000  H
  H86      1.0000 0.71400  0.40860  0.60500  Biso   1.000  H
  H87      1.0000 0.78600  0.90860  0.39500  Biso   1.000  H
  H88      1.0000 0.21400  0.90860  0.60500  Biso   1.000  H
  H89      1.0000 0.69940  0.50000  0.51700  Biso   1.000  H
  H90      1.0000 0.30060  0.50000  0.48300  Biso   1.000  H
  H91      1.0000 0.19940  0.00000  0.51700  Biso   1.000  H
  H92      1.0000 0.80060  0.00000  0.48300  Biso   1.000  H
