data_image0
_cell_length_a       12.037
_cell_length_b       18.567
_cell_length_c       17.116
_cell_angle_alpha    90
_cell_angle_beta     102.077
_cell_angle_gamma    90

_symmetry_space_group_name_H-M    "P 1"
_symmetry_int_tables_number       1

loop_
  _symmetry_equiv_pos_as_xyz
  'x, y, z'

loop_
  _atom_site_label
  _atom_site_occupancy
  _atom_site_fract_x
  _atom_site_fract_y
  _atom_site_fract_z
  _atom_site_thermal_displace_type
  _atom_site_B_iso_or_equiv
  _atom_site_type_symbol
  Cu1      1.0000 0.47887  0.53974  0.06119  Biso   1.000  Cu
  Cu2      1.0000 0.52113  0.03974  0.93881  Biso   1.000  Cu
  Cu3      1.0000 0.52113  0.46026  0.93881  Biso   1.000  Cu
  Cu4      1.0000 0.47887  0.96026  0.06119  Biso   1.000  Cu
  Cu5      1.0000 0.09720  0.46158  0.51344  Biso   1.000  Cu
  Cu6      1.0000 0.90280  0.96158  0.48656  Biso   1.000  Cu
  Cu7      1.0000 0.90280  0.53842  0.48656  Biso   1.000  Cu
  Cu8      1.0000 0.09720  0.03842  0.51344  Biso   1.000  Cu
  O1       1.0000 0.63900  0.52100  0.11050  Biso   1.000  O
  O2       1.0000 0.36100  0.02100  0.88950  Biso   1.000  O
  O3       1.0000 0.36100  0.47900  0.88950  Biso   1.000  O
  O4       1.0000 0.63900  0.97900  0.11050  Biso   1.000  O
  O5       1.0000 0.67270  0.45560  0.00900  Biso   1.000  O
  O6       1.0000 0.32730  0.95560  0.99100  Biso   1.000  O
  O7       1.0000 0.32730  0.54440  0.99100  Biso   1.000  O
  O8       1.0000 0.67270  0.04440  0.00900  Biso   1.000  O
  O9       1.0000 0.05970  0.45180  0.39770  Biso   1.000  O
  O10      1.0000 0.94030  0.95180  0.60230  Biso   1.000  O
  O11      1.0000 0.94030  0.54820  0.60230  Biso   1.000  O
  O12      1.0000 0.05970  0.04820  0.39770  Biso   1.000  O
  O13      1.0000 0.89880  0.51470  0.37400  Biso   1.000  O
  O14      1.0000 0.10120  0.01470  0.62600  Biso   1.000  O
  O15      1.0000 0.10120  0.48530  0.62600  Biso   1.000  O
  O16      1.0000 0.89880  0.98530  0.37400  Biso   1.000  O
  O17      1.0000 0.44070  0.44620  0.10220  Biso   1.000  O
  O18      1.0000 0.55930  0.94620  0.89780  Biso   1.000  O
  O19      1.0000 0.55930  0.55380  0.89780  Biso   1.000  O
  O20      1.0000 0.44070  0.05380  0.10220  Biso   1.000  O
  O21      1.0000 0.47400  0.38040  0.99990  Biso   1.000  O
  O22      1.0000 0.52600  0.88040  0.00010  Biso   1.000  O
  O23      1.0000 0.52600  0.61960  0.00010  Biso   1.000  O
  O24      1.0000 0.47400  0.11960  0.99990  Biso   1.000  O
  O25      1.0000 0.16970  0.55430  0.50080  Biso   1.000  O
  O26      1.0000 0.83030  0.05430  0.49920  Biso   1.000  O
  O27      1.0000 0.83030  0.44570  0.49920  Biso   1.000  O
  O28      1.0000 0.16970  0.94570  0.50080  Biso   1.000  O
  O29      1.0000 0.00840  0.61920  0.48070  Biso   1.000  O
  O30      1.0000 0.99160  0.11920  0.51930  Biso   1.000  O
  O31      1.0000 0.99160  0.38080  0.51930  Biso   1.000  O
  O32      1.0000 0.00840  0.88080  0.48070  Biso   1.000  O
  O33      1.0000 0.24310  0.39700  0.53040  Biso   1.000  O
  O34      1.0000 0.75690  0.89700  0.46960  Biso   1.000  O
  O35      1.0000 0.75690  0.60300  0.46960  Biso   1.000  O
  O36      1.0000 0.24310  0.10300  0.53040  Biso   1.000  O
  H1       1.0000 0.22810  0.37280  0.48810  Biso   1.000  H
  H2       1.0000 0.77190  0.87280  0.51190  Biso   1.000  H
  H3       1.0000 0.77190  0.62720  0.51190  Biso   1.000  H
  H4       1.0000 0.22810  0.12720  0.48810  Biso   1.000  H
  H5       1.0000 0.26900  0.37000  0.56850  Biso   1.000  H
  H6       1.0000 0.73100  0.87000  0.43150  Biso   1.000  H
  H7       1.0000 0.73100  0.63000  0.43150  Biso   1.000  H
  H8       1.0000 0.26900  0.13000  0.56850  Biso   1.000  H
  B1       1.0000 0.37110  0.25000  0.04450  Biso   1.000  B
  B2       1.0000 0.62890  0.75000  0.95550  Biso   1.000  B
  H9       1.0000 0.35720  0.25000  0.97770  Biso   1.000  H
  H10      1.0000 0.64280  0.75000  0.02230  Biso   1.000  H
  B3       1.0000 0.50990  0.25000  0.10770  Biso   1.000  B
  B4       1.0000 0.49010  0.75000  0.89230  Biso   1.000  B
  H11      1.0000 0.58740  0.25000  0.08110  Biso   1.000  H
  H12      1.0000 0.41260  0.75000  0.91890  Biso   1.000  H
  B5       1.0000 0.27800  0.25000  0.19040  Biso   1.000  B
  B6       1.0000 0.72200  0.75000  0.80960  Biso   1.000  B
  H13      1.0000 0.20130  0.25000  0.21780  Biso   1.000  H
  H14      1.0000 0.79870  0.75000  0.78220  Biso   1.000  H
  B7       1.0000 0.50710  0.29710  0.19640  Biso   1.000  B
  B8       1.0000 0.49290  0.79710  0.80360  Biso   1.000  B
  B9       1.0000 0.49290  0.70290  0.80360  Biso   1.000  B
  B10      1.0000 0.50710  0.20290  0.19640  Biso   1.000  B
  H15      1.0000 0.58160  0.32980  0.22730  Biso   1.000  H
  H16      1.0000 0.41840  0.82980  0.77270  Biso   1.000  H
  H17      1.0000 0.41840  0.67020  0.77270  Biso   1.000  H
  H18      1.0000 0.58160  0.17020  0.22730  Biso   1.000  H
  B11      1.0000 0.36270  0.32390  0.19240  Biso   1.000  B
  B12      1.0000 0.63730  0.82390  0.80760  Biso   1.000  B
  B13      1.0000 0.63730  0.67610  0.80760  Biso   1.000  B
  B14      1.0000 0.36270  0.17610  0.19240  Biso   1.000  B
  H19      1.0000 0.34150  0.37440  0.22190  Biso   1.000  H
  H20      1.0000 0.65850  0.87440  0.77810  Biso   1.000  H
  H21      1.0000 0.65850  0.62560  0.77810  Biso   1.000  H
  H22      1.0000 0.34150  0.12560  0.22190  Biso   1.000  H
  B15      1.0000 0.41900  0.25000  0.25020  Biso   1.000  B
  B16      1.0000 0.58100  0.75000  0.74980  Biso   1.000  B
  H23      1.0000 0.43740  0.25000  0.31710  Biso   1.000  H
  H24      1.0000 0.56260  0.75000  0.68290  Biso   1.000  H
  B17      1.0000 0.28120  0.29840  0.09930  Biso   1.000  B
  B18      1.0000 0.71880  0.79840  0.90070  Biso   1.000  B
  B19      1.0000 0.71880  0.70160  0.90070  Biso   1.000  B
  B20      1.0000 0.28120  0.20160  0.09930  Biso   1.000  B
  H25      1.0000 0.20790  0.33150  0.06710  Biso   1.000  H
  H26      1.0000 0.79210  0.83150  0.93290  Biso   1.000  H
  H27      1.0000 0.79210  0.66850  0.93290  Biso   1.000  H
  H28      1.0000 0.20790  0.16850  0.06710  Biso   1.000  H
  B21      1.0000 0.04680  0.45750  0.12860  Biso   1.000  B
  B22      1.0000 0.95320  0.95750  0.87140  Biso   1.000  B
  B23      1.0000 0.95320  0.54250  0.87140  Biso   1.000  B
  B24      1.0000 0.04680  0.04250  0.12860  Biso   1.000  B
  H29      1.0000 0.12020  0.46580  0.09880  Biso   1.000  H
  H30      1.0000 0.87980  0.96580  0.90120  Biso   1.000  H
  H31      1.0000 0.87980  0.53420  0.90120  Biso   1.000  H
  H32      1.0000 0.12020  0.03420  0.09880  Biso   1.000  H
  B25      1.0000 0.84520  0.37550  0.14020  Biso   1.000  B
  B26      1.0000 0.15480  0.87550  0.85980  Biso   1.000  B
  B27      1.0000 0.15480  0.62450  0.85980  Biso   1.000  B
  B28      1.0000 0.84520  0.12450  0.14020  Biso   1.000  B
  H33      1.0000 0.78500  0.33050  0.11770  Biso   1.000  H
  H34      1.0000 0.21500  0.83050  0.88230  Biso   1.000  H
  H35      1.0000 0.21500  0.66950  0.88230  Biso   1.000  H
  H36      1.0000 0.78500  0.16950  0.11770  Biso   1.000  H
  B29      1.0000 0.94340  0.37330  0.23670  Biso   1.000  B
  B30      1.0000 0.05660  0.87330  0.76330  Biso   1.000  B
  B31      1.0000 0.05660  0.62670  0.76330  Biso   1.000  B
  B32      1.0000 0.94340  0.12670  0.23670  Biso   1.000  B
  H37      1.0000 0.94970  0.32660  0.27890  Biso   1.000  H
  H38      1.0000 0.05030  0.82660  0.72110  Biso   1.000  H
  H39      1.0000 0.05030  0.67340  0.72110  Biso   1.000  H
  H40      1.0000 0.94970  0.17340  0.27890  Biso   1.000  H
  B33      1.0000 0.93060  0.51730  0.11260  Biso   1.000  B
  B34      1.0000 0.06940  0.01730  0.88740  Biso   1.000  B
  B35      1.0000 0.06940  0.48270  0.88740  Biso   1.000  B
  B36      1.0000 0.93060  0.98270  0.11260  Biso   1.000  B
  H41      1.0000 0.92570  0.56500  0.07200  Biso   1.000  H
  H42      1.0000 0.07430  0.06500  0.92800  Biso   1.000  H
  H43      1.0000 0.07430  0.43500  0.92800  Biso   1.000  H
  H44      1.0000 0.92570  0.93500  0.07200  Biso   1.000  H
  B37      1.0000 0.02440  0.51410  0.20690  Biso   1.000  B
  B38      1.0000 0.97560  0.01410  0.79310  Biso   1.000  B
  B39      1.0000 0.97560  0.48590  0.79310  Biso   1.000  B
  B40      1.0000 0.02440  0.98590  0.20690  Biso   1.000  B
  H45      1.0000 0.08380  0.55930  0.23010  Biso   1.000  H
  H46      1.0000 0.91620  0.05930  0.76990  Biso   1.000  H
  H47      1.0000 0.91620  0.44070  0.76990  Biso   1.000  H
  H48      1.0000 0.08380  0.94070  0.23010  Biso   1.000  H
  B41      1.0000 0.99590  0.36950  0.14620  Biso   1.000  B
  B42      1.0000 0.00410  0.86950  0.85380  Biso   1.000  B
  B43      1.0000 0.00410  0.63050  0.85380  Biso   1.000  B
  B44      1.0000 0.99590  0.13050  0.14620  Biso   1.000  B
  H49      1.0000 0.03560  0.31950  0.12780  Biso   1.000  H
  H50      1.0000 0.96440  0.81950  0.87220  Biso   1.000  H
  H51      1.0000 0.96440  0.68050  0.87220  Biso   1.000  H
  H52      1.0000 0.03560  0.18050  0.12780  Biso   1.000  H
  B45      1.0000 0.06390  0.42300  0.22860  Biso   1.000  B
  B46      1.0000 0.93610  0.92300  0.77140  Biso   1.000  B
  B47      1.0000 0.93610  0.57700  0.77140  Biso   1.000  B
  B48      1.0000 0.06390  0.07700  0.22860  Biso   1.000  B
  H53      1.0000 0.14890  0.40840  0.26590  Biso   1.000  H
  H54      1.0000 0.85110  0.90840  0.73410  Biso   1.000  H
  H55      1.0000 0.85110  0.59160  0.73410  Biso   1.000  H
  H56      1.0000 0.14890  0.09160  0.26590  Biso   1.000  H
  B49      1.0000 0.91350  0.42720  0.07470  Biso   1.000  B
  B50      1.0000 0.08650  0.92720  0.92530  Biso   1.000  B
  B51      1.0000 0.08650  0.57280  0.92530  Biso   1.000  B
  B52      1.0000 0.91350  0.07280  0.07470  Biso   1.000  B
  H57      1.0000 0.89780  0.41570  0.00910  Biso   1.000  H
  H58      1.0000 0.10220  0.91570  0.99090  Biso   1.000  H
  H59      1.0000 0.10220  0.58430  0.99090  Biso   1.000  H
  H60      1.0000 0.89780  0.08430  0.00910  Biso   1.000  H
  B53      1.0000 0.82350  0.43350  0.21790  Biso   1.000  B
  B54      1.0000 0.17650  0.93350  0.78210  Biso   1.000  B
  B55      1.0000 0.17650  0.56650  0.78210  Biso   1.000  B
  B56      1.0000 0.82350  0.06650  0.21790  Biso   1.000  B
  H61      1.0000 0.74940  0.42620  0.24730  Biso   1.000  H
  H62      1.0000 0.25060  0.92620  0.75270  Biso   1.000  H
  H63      1.0000 0.25060  0.57380  0.75270  Biso   1.000  H
  H64      1.0000 0.74940  0.07380  0.24730  Biso   1.000  H
  B57      1.0000 0.87380  0.52050  0.20010  Biso   1.000  B
  B58      1.0000 0.12620  0.02050  0.79990  Biso   1.000  B
  B59      1.0000 0.12620  0.47950  0.79990  Biso   1.000  B
  B60      1.0000 0.87380  0.97950  0.20010  Biso   1.000  B
  H65      1.0000 0.83230  0.57040  0.21730  Biso   1.000  H
  H66      1.0000 0.16770  0.07040  0.78270  Biso   1.000  H
  H67      1.0000 0.16770  0.42960  0.78270  Biso   1.000  H
  H68      1.0000 0.83230  0.92960  0.21730  Biso   1.000  H
  B61      1.0000 0.33110  0.75000  0.41060  Biso   1.000  B
  B62      1.0000 0.66890  0.25000  0.58940  Biso   1.000  B
  H69      1.0000 0.38860  0.75000  0.36680  Biso   1.000  H
  H70      1.0000 0.61140  0.25000  0.63320  Biso   1.000  H
  B63      1.0000 0.20230  0.70090  0.39150  Biso   1.000  B
  B64      1.0000 0.79770  0.20090  0.60850  Biso   1.000  B
  B65      1.0000 0.79770  0.29910  0.60850  Biso   1.000  B
  B66      1.0000 0.20230  0.79910  0.39150  Biso   1.000  B
  H71      1.0000 0.17430  0.66750  0.33640  Biso   1.000  H
  H72      1.0000 0.82570  0.16750  0.66360  Biso   1.000  H
  H73      1.0000 0.82570  0.33250  0.66360  Biso   1.000  H
  H74      1.0000 0.17430  0.83250  0.33640  Biso   1.000  H
  B67      1.0000 0.10600  0.75000  0.43480  Biso   1.000  B
  B68      1.0000 0.89400  0.25000  0.56520  Biso   1.000  B
  H75      1.0000 0.01310  0.75000  0.40680  Biso   1.000  H
  H76      1.0000 0.98690  0.25000  0.59320  Biso   1.000  H
  B69      1.0000 0.15710  0.75000  0.54140  Biso   1.000  B
  B70      1.0000 0.84290  0.25000  0.45860  Biso   1.000  B
  H77      1.0000 0.09740  0.75000  0.58350  Biso   1.000  H
  H78      1.0000 0.90260  0.25000  0.41650  Biso   1.000  H
  B71      1.0000 0.28490  0.70350  0.56220  Biso   1.000  B
  B72      1.0000 0.71510  0.20350  0.43780  Biso   1.000  B
  B73      1.0000 0.71510  0.29650  0.43780  Biso   1.000  B
  B74      1.0000 0.28490  0.79650  0.56220  Biso   1.000  B
  H79      1.0000 0.31140  0.67160  0.61860  Biso   1.000  H
  H80      1.0000 0.68860  0.17160  0.38140  Biso   1.000  H
  H81      1.0000 0.68860  0.32840  0.38140  Biso   1.000  H
  H82      1.0000 0.31140  0.82840  0.61860  Biso   1.000  H
  B75      1.0000 0.31440  0.67370  0.47010  Biso   1.000  B
  B76      1.0000 0.68560  0.17370  0.52990  Biso   1.000  B
  B77      1.0000 0.68560  0.32630  0.52990  Biso   1.000  B
  B78      1.0000 0.31440  0.82630  0.47010  Biso   1.000  B
  H83      1.0000 0.36170  0.62240  0.46590  Biso   1.000  H
  H84      1.0000 0.63830  0.12240  0.53410  Biso   1.000  H
  H85      1.0000 0.63830  0.37760  0.53410  Biso   1.000  H
  H86      1.0000 0.36170  0.87760  0.46590  Biso   1.000  H
  B79      1.0000 0.38060  0.75000  0.51870  Biso   1.000  B
  B80      1.0000 0.61940  0.25000  0.48130  Biso   1.000  B
  H87      1.0000 0.47340  0.75000  0.54670  Biso   1.000  H
  H88      1.0000 0.52660  0.25000  0.45330  Biso   1.000  H
  C1       1.0000 0.96490  0.47330  0.35420  Biso   1.000  C
  C2       1.0000 0.03510  0.97330  0.64580  Biso   1.000  C
  C3       1.0000 0.03510  0.52670  0.64580  Biso   1.000  C
  C4       1.0000 0.96490  0.02670  0.35420  Biso   1.000  C
  C5       1.0000 0.69340  0.47620  0.08260  Biso   1.000  C
  C6       1.0000 0.30660  0.97620  0.91740  Biso   1.000  C
  C7       1.0000 0.30660  0.52380  0.91740  Biso   1.000  C
  C8       1.0000 0.69340  0.02380  0.08260  Biso   1.000  C
  C9       1.0000 0.44920  0.38830  0.06730  Biso   1.000  C
  C10      1.0000 0.55080  0.88830  0.93270  Biso   1.000  C
  C11      1.0000 0.55080  0.61170  0.93270  Biso   1.000  C
  C12      1.0000 0.44920  0.11170  0.06730  Biso   1.000  C
  C13      1.0000 0.11440  0.61180  0.48920  Biso   1.000  C
  C14      1.0000 0.88560  0.11180  0.51080  Biso   1.000  C
  C15      1.0000 0.88560  0.38820  0.51080  Biso   1.000  C
  C16      1.0000 0.11440  0.88820  0.48920  Biso   1.000  C
  C17      1.0000 0.95580  0.46200  0.26490  Biso   1.000  C
  C18      1.0000 0.04420  0.96200  0.73510  Biso   1.000  C
  C19      1.0000 0.04420  0.53800  0.73510  Biso   1.000  C
  C20      1.0000 0.95580  0.03800  0.26490  Biso   1.000  C
  C21      1.0000 0.81610  0.46430  0.12480  Biso   1.000  C
  C22      1.0000 0.18390  0.96430  0.87520  Biso   1.000  C
  C23      1.0000 0.18390  0.53570  0.87520  Biso   1.000  C
  C24      1.0000 0.81610  0.03570  0.12480  Biso   1.000  C
  C25      1.0000 0.41950  0.32140  0.10610  Biso   1.000  C
  C26      1.0000 0.58050  0.82140  0.89390  Biso   1.000  C
  C27      1.0000 0.58050  0.67860  0.89390  Biso   1.000  C
  C28      1.0000 0.41950  0.17860  0.10610  Biso   1.000  C
  C29      1.0000 0.17970  0.67860  0.48420  Biso   1.000  C
  C30      1.0000 0.82030  0.17860  0.51580  Biso   1.000  C
  C31      1.0000 0.82030  0.32140  0.51580  Biso   1.000  C
  C32      1.0000 0.17970  0.82140  0.48420  Biso   1.000  C
  O37      1.0000 0.42120  0.62050  0.13240  Biso   1.000  O
  O38      1.0000 0.57880  0.12050  0.86760  Biso   1.000  O
  O39      1.0000 0.57880  0.37950  0.86760  Biso   1.000  O
  O40      1.0000 0.42120  0.87950  0.13240  Biso   1.000  O
  H89      1.0000 0.38610  0.58940  0.15510  Biso   1.000  H
  H90      1.0000 0.61390  0.08940  0.84490  Biso   1.000  H
  H91      1.0000 0.61390  0.41060  0.84490  Biso   1.000  H
  H92      1.0000 0.38610  0.91060  0.15510  Biso   1.000  H
  H93      1.0000 0.47610  0.63380  0.16950  Biso   1.000  H
  H94      1.0000 0.52390  0.13380  0.83050  Biso   1.000  H
  H95      1.0000 0.52390  0.36620  0.83050  Biso   1.000  H
  H96      1.0000 0.47610  0.86620  0.16950  Biso   1.000  H
  O41      1.0000 0.45630  0.58990  0.16750  Biso   1.000  O
  O42      1.0000 0.54370  0.08990  0.83250  Biso   1.000  O
  O43      1.0000 0.54370  0.41010  0.83250  Biso   1.000  O
  O44      1.0000 0.45630  0.91010  0.16750  Biso   1.000  O
  H97      1.0000 0.38460  0.58970  0.15330  Biso   1.000  H
  H98      1.0000 0.61540  0.08970  0.84670  Biso   1.000  H
  H99      1.0000 0.61540  0.41030  0.84670  Biso   1.000  H
  H100     1.0000 0.38460  0.91030  0.15330  Biso   1.000  H
  H101     1.0000 0.47470  0.63400  0.16760  Biso   1.000  H
  H102     1.0000 0.52530  0.13400  0.83240  Biso   1.000  H
  H103     1.0000 0.52530  0.36600  0.83240  Biso   1.000  H
  H104     1.0000 0.47470  0.86600  0.16760  Biso   1.000  H
  C33      1.0000 0.37000  0.46070  0.39840  Biso   1.000  C
  C34      1.0000 0.63000  0.96070  0.60160  Biso   1.000  C
  C35      1.0000 0.63000  0.53930  0.60160  Biso   1.000  C
  C36      1.0000 0.37000  0.03930  0.39840  Biso   1.000  C
  H105     1.0000 0.29140  0.47110  0.38120  Biso   1.000  H
  H106     1.0000 0.70860  0.97110  0.61880  Biso   1.000  H
  H107     1.0000 0.70860  0.52890  0.61880  Biso   1.000  H
  H108     1.0000 0.29140  0.02890  0.38120  Biso   1.000  H
  C37      1.0000 0.38210  0.54350  0.29060  Biso   1.000  C
  C38      1.0000 0.61790  0.04350  0.70940  Biso   1.000  C
  C39      1.0000 0.61790  0.45650  0.70940  Biso   1.000  C
  C40      1.0000 0.38210  0.95650  0.29060  Biso   1.000  C
  H109     1.0000 0.39410  0.59260  0.31160  Biso   1.000  H
  H110     1.0000 0.60590  0.09260  0.68840  Biso   1.000  H
  H111     1.0000 0.60590  0.40740  0.68840  Biso   1.000  H
  H112     1.0000 0.39410  0.90740  0.31160  Biso   1.000  H
  H113     1.0000 0.30040  0.53370  0.27520  Biso   1.000  H
  H114     1.0000 0.69960  0.03370  0.72480  Biso   1.000  H
  H115     1.0000 0.69960  0.46630  0.72480  Biso   1.000  H
  H116     1.0000 0.30040  0.96630  0.27520  Biso   1.000  H
  H117     1.0000 0.41640  0.53850  0.24370  Biso   1.000  H
  H118     1.0000 0.58360  0.03850  0.75630  Biso   1.000  H
  H119     1.0000 0.58360  0.46150  0.75630  Biso   1.000  H
  H120     1.0000 0.41640  0.96150  0.24370  Biso   1.000  H
  C41      1.0000 0.55530  0.48760  0.35340  Biso   1.000  C
  C42      1.0000 0.44470  0.98760  0.64660  Biso   1.000  C
  C43      1.0000 0.44470  0.51240  0.64660  Biso   1.000  C
  C44      1.0000 0.55530  0.01240  0.35340  Biso   1.000  C
  H121     1.0000 0.56910  0.49730  0.30000  Biso   1.000  H
  H122     1.0000 0.43090  0.99730  0.70000  Biso   1.000  H
  H123     1.0000 0.43090  0.50270  0.70000  Biso   1.000  H
  H124     1.0000 0.56910  0.00270  0.30000  Biso   1.000  H
  H125     1.0000 0.58240  0.43910  0.37030  Biso   1.000  H
  H126     1.0000 0.41760  0.93910  0.62970  Biso   1.000  H
  H127     1.0000 0.41760  0.56090  0.62970  Biso   1.000  H
  H128     1.0000 0.58240  0.06090  0.37030  Biso   1.000  H
  H129     1.0000 0.59610  0.52300  0.39130  Biso   1.000  H
  H130     1.0000 0.40390  0.02300  0.60870  Biso   1.000  H
  H131     1.0000 0.40390  0.47700  0.60870  Biso   1.000  H
  H132     1.0000 0.59610  0.97700  0.39130  Biso   1.000  H
  O45      1.0000 0.39070  0.42030  0.45990  Biso   1.000  O
  O46      1.0000 0.60930  0.92030  0.54010  Biso   1.000  O
  O47      1.0000 0.60930  0.57970  0.54010  Biso   1.000  O
  O48      1.0000 0.39070  0.07970  0.45990  Biso   1.000  O
  N1       1.0000 0.43450  0.49240  0.35170  Biso   1.000  N
  N2       1.0000 0.56550  0.99240  0.64830  Biso   1.000  N
  N3       1.0000 0.56550  0.50760  0.64830  Biso   1.000  N
  N4       1.0000 0.43450  0.00760  0.35170  Biso   1.000  N
