data_image0
_cell_length_a       9.7985
_cell_length_b       11.4767
_cell_length_c       12.2068
_cell_angle_alpha    110.917
_cell_angle_beta     103.992
_cell_angle_gamma    102.05

_symmetry_space_group_name_H-M    "P 1"
_symmetry_int_tables_number       1

loop_
  _symmetry_equiv_pos_as_xyz
  'x, y, z'

loop_
  _atom_site_label
  _atom_site_occupancy
  _atom_site_fract_x
  _atom_site_fract_y
  _atom_site_fract_z
  _atom_site_thermal_displace_type
  _atom_site_B_iso_or_equiv
  _atom_site_type_symbol
  Cu1      1.0000 0.45193  0.18565  0.36389  Biso   1.000  Cu
  Cu2      1.0000 0.54807  0.81435  0.63611  Biso   1.000  Cu
  Cu3      1.0000 0.50000  0.00000  0.50000  Biso   1.000  Cu
  O1       1.0000 0.43410  0.88300  0.31540  Biso   1.000  O
  O2       1.0000 0.56590  0.11700  0.68460  Biso   1.000  O
  O3       1.0000 0.41080  0.01890  0.22320  Biso   1.000  O
  O4       1.0000 0.58920  0.98110  0.77680  Biso   1.000  O
  O5       1.0000 0.45000  0.72440  0.71950  Biso   1.000  O
  O6       1.0000 0.55000  0.27560  0.28050  Biso   1.000  O
  O7       1.0000 0.26620  0.81180  0.71630  Biso   1.000  O
  O8       1.0000 0.73380  0.18820  0.28370  Biso   1.000  O
  O9       1.0000 0.37920  0.10210  0.45820  Biso   1.000  O
  O10      1.0000 0.62080  0.89790  0.54180  Biso   1.000  O
  O11      1.0000 0.48360  0.35320  0.50540  Biso   1.000  O
  O12      1.0000 0.51640  0.64680  0.49460  Biso   1.000  O
  H1       1.0000 0.56700  0.40700  0.52700  Biso   1.000  H
  H2       1.0000 0.43300  0.59300  0.47300  Biso   1.000  H
  O13      1.0000 0.22370  0.20730  0.25680  Biso   1.000  O
  O14      1.0000 0.77630  0.79270  0.74320  Biso   1.000  O
  H3       1.0000 0.15200  0.16400  0.26200  Biso   1.000  H
  H4       1.0000 0.84800  0.83600  0.73800  Biso   1.000  H
  O15      1.0000 0.29020  0.85950  0.51620  Biso   1.000  O
  O16      1.0000 0.70980  0.14050  0.48380  Biso   1.000  O
  H5       1.0000 0.28600  0.86200  0.57500  Biso   1.000  H
  H6       1.0000 0.71400  0.13800  0.42500  Biso   1.000  H
  B1       1.0000 0.27660  0.82340  0.96950  Biso   1.000  B
  B2       1.0000 0.72340  0.17660  0.03050  Biso   1.000  B
  H7       1.0000 0.26880  0.92080  0.97370  Biso   1.000  H
  H8       1.0000 0.73120  0.07920  0.02630  Biso   1.000  H
  B3       1.0000 0.15910  0.72980  0.01750  Biso   1.000  B
  B4       1.0000 0.84090  0.27020  0.98250  Biso   1.000  B
  H9       1.0000 0.07500  0.76510  0.05600  Biso   1.000  H
  H10      1.0000 0.92500  0.23490  0.94400  Biso   1.000  H
  B5       1.0000 0.25790  0.63850  0.07560  Biso   1.000  B
  B6       1.0000 0.74210  0.36150  0.92440  Biso   1.000  B
  H11      1.0000 0.23720  0.61280  0.15180  Biso   1.000  H
  H12      1.0000 0.76280  0.38720  0.84820  Biso   1.000  H
  B7       1.0000 0.44000  0.68080  0.06970  Biso   1.000  B
  B8       1.0000 0.56000  0.31920  0.93030  Biso   1.000  B
  H13      1.0000 0.53860  0.68410  0.14140  Biso   1.000  H
  H14      1.0000 0.46140  0.31590  0.85860  Biso   1.000  H
  B9       1.0000 0.45160  0.79550  0.00250  Biso   1.000  B
  B10      1.0000 0.54840  0.20450  0.99750  Biso   1.000  B
  H15      1.0000 0.55870  0.87420  0.02890  Biso   1.000  H
  H16      1.0000 0.44130  0.12580  0.97110  Biso   1.000  H
  B11      1.0000 0.13920  0.67610  0.85750  Biso   1.000  B
  B12      1.0000 0.86080  0.32390  0.14250  Biso   1.000  B
  H17      1.0000 0.04080  0.67470  0.78690  Biso   1.000  H
  H18      1.0000 0.95920  0.32530  0.21310  Biso   1.000  H
  B13      1.0000 0.12690  0.56100  0.92240  Biso   1.000  B
  B14      1.0000 0.87310  0.43900  0.07760  Biso   1.000  B
  H19      1.0000 0.01880  0.48320  0.89530  Biso   1.000  H
  H20      1.0000 0.98120  0.51680  0.10470  Biso   1.000  H
  B15      1.0000 0.30070  0.53120  0.95540  Biso   1.000  B
  B16      1.0000 0.69930  0.46880  0.04460  Biso   1.000  B
  H21      1.0000 0.30770  0.43340  0.95040  Biso   1.000  H
  H22      1.0000 0.69230  0.56660  0.04960  Biso   1.000  H
  B17      1.0000 0.42110  0.62740  0.90910  Biso   1.000  B
  B18      1.0000 0.57890  0.37260  0.09090  Biso   1.000  B
  H23      1.0000 0.50730  0.59430  0.87250  Biso   1.000  H
  H24      1.0000 0.49270  0.40570  0.12750  Biso   1.000  H
  B19      1.0000 0.22830  0.55280  0.81880  Biso   1.000  B
  B20      1.0000 0.77170  0.44720  0.18120  Biso   1.000  B
  H25      1.0000 0.18840  0.47050  0.72270  Biso   1.000  H
  H26      1.0000 0.81160  0.52950  0.27730  Biso   1.000  H
  C1       1.0000 0.34660  0.79450  0.09540  Biso   1.000  C
  C2       1.0000 0.65340  0.20550  0.90460  Biso   1.000  C
  C3       1.0000 0.31930  0.71470  0.85770  Biso   1.000  C
  C4       1.0000 0.68070  0.28530  0.14230  Biso   1.000  C
  C5       1.0000 0.40290  0.90970  0.22450  Biso   1.000  C
  C6       1.0000 0.59710  0.09030  0.77550  Biso   1.000  C
  C7       1.0000 0.34690  0.75530  0.75550  Biso   1.000  C
  C8       1.0000 0.65310  0.24470  0.24450  Biso   1.000  C
  C9       1.0000 0.33640  0.19150  0.54760  Biso   1.000  C
  C10      1.0000 0.66360  0.80850  0.45240  Biso   1.000  C
  H27      1.0000 0.32530  0.16010  0.61170  Biso   1.000  H
  H28      1.0000 0.67470  0.83990  0.38830  Biso   1.000  H
  H29      1.0000 0.24000  0.19800  0.50610  Biso   1.000  H
  H30      1.0000 0.76000  0.80200  0.49390  Biso   1.000  H
  C11      1.0000 0.45790  0.32720  0.60910  Biso   1.000  C
  C12      1.0000 0.54210  0.67280  0.39090  Biso   1.000  C
  H31      1.0000 0.42430  0.39590  0.66050  Biso   1.000  H
  H32      1.0000 0.57570  0.60410  0.33950  Biso   1.000  H
  H33      1.0000 0.55020  0.32550  0.66310  Biso   1.000  H
  H34      1.0000 0.44980  0.67450  0.33690  Biso   1.000  H
  C13      1.0000 0.19250  0.17660  0.12690  Biso   1.000  C
  C14      1.0000 0.80750  0.82340  0.87310  Biso   1.000  C
  H35      1.0000 0.27630  0.15650  0.10280  Biso   1.000  H
  H36      1.0000 0.72370  0.84350  0.89720  Biso   1.000  H
  H37      1.0000 0.17780  0.25230  0.11220  Biso   1.000  H
  H38      1.0000 0.82220  0.74770  0.88780  Biso   1.000  H
  H39      1.0000 0.10220  0.09990  0.07680  Biso   1.000  H
  H40      1.0000 0.89780  0.90010  0.92320  Biso   1.000  H
  C15      1.0000 0.15780  0.77890  0.41110  Biso   1.000  C
  C16      1.0000 0.84220  0.22110  0.58890  Biso   1.000  C
  H41      1.0000 0.14910  0.81560  0.34950  Biso   1.000  H
  H42      1.0000 0.85090  0.18440  0.65050  Biso   1.000  H
  H43      1.0000 0.07140  0.77640  0.43830  Biso   1.000  H
  H44      1.0000 0.92860  0.22360  0.56170  Biso   1.000  H
  H45      1.0000 0.16190  0.68920  0.37320  Biso   1.000  H
  H46      1.0000 0.83810  0.31080  0.62680  Biso   1.000  H
  C17      1.0000 0.08530  0.03750  0.73850  Biso   1.000  C
  C18      1.0000 0.91470  0.96250  0.26150  Biso   1.000  C
  H47      1.0000 0.11420  0.10280  0.82510  Biso   1.000  H
  H48      1.0000 0.88580  0.89720  0.17490  Biso   1.000  H
  H49      1.0000 0.00620  0.05290  0.68450  Biso   1.000  H
  H50      1.0000 0.99380  0.94710  0.31550  Biso   1.000  H
  H51      1.0000 0.17170  0.04560  0.71130  Biso   1.000  H
  H52      1.0000 0.82830  0.95440  0.28870  Biso   1.000  H
  O17      1.0000 0.03420  0.91160  0.73100  Biso   1.000  O
  O18      1.0000 0.96580  0.08840  0.26900  Biso   1.000  O
  H53      1.0000 0.11700  0.90800  0.76500  Biso   1.000  H
  H54      1.0000 0.88300  0.09200  0.23500  Biso   1.000  H
  C19      1.0000 0.16990  0.46440  0.46480  Biso   1.000  C
  C20      1.0000 0.83010  0.53560  0.53520  Biso   1.000  C
  H55      1.0000 0.23080  0.45980  0.53870  Biso   1.000  H
  H56      1.0000 0.76920  0.54020  0.46130  Biso   1.000  H
  H57      1.0000 0.08030  0.38650  0.42000  Biso   1.000  H
  H58      1.0000 0.91970  0.61350  0.58000  Biso   1.000  H
  H59      1.0000 0.14130  0.54420  0.49080  Biso   1.000  H
  H60      1.0000 0.85870  0.45580  0.50920  Biso   1.000  H
  O19      1.0000 0.25200  0.46840  0.38590  Biso   1.000  O
  O20      1.0000 0.74800  0.53160  0.61410  Biso   1.000  O
  H61      1.0000 0.24500  0.38400  0.32500  Biso   1.000  H
  H62      1.0000 0.75500  0.61600  0.67500  Biso   1.000  H
