data_image0
_cell_length_a       9.5924
_cell_length_b       10.2168
_cell_length_c       11.281
_cell_angle_alpha    74.845
_cell_angle_beta     82.169
_cell_angle_gamma    80.761

_symmetry_space_group_name_H-M    "P 1"
_symmetry_int_tables_number       1

loop_
  _symmetry_equiv_pos_as_xyz
  'x, y, z'

loop_
  _atom_site_label
  _atom_site_occupancy
  _atom_site_fract_x
  _atom_site_fract_y
  _atom_site_fract_z
  _atom_site_thermal_displace_type
  _atom_site_B_iso_or_equiv
  _atom_site_type_symbol
  Cu1      1.0000 0.59160  0.59284  0.60838  Biso   1.000  Cu
  Cu2      1.0000 0.40840  0.40716  0.39162  Biso   1.000  Cu
  N1       1.0000 0.44330  0.59260  0.75420  Biso   1.000  N
  N2       1.0000 0.55670  0.40740  0.24580  Biso   1.000  N
  O1       1.0000 0.63010  0.77660  0.61590  Biso   1.000  O
  O2       1.0000 0.36990  0.22340  0.38410  Biso   1.000  O
  O3       1.0000 0.77510  0.64540  0.75060  Biso   1.000  O
  O4       1.0000 0.22490  0.35460  0.24940  Biso   1.000  O
  O5       1.0000 0.58600  0.29490  0.51020  Biso   1.000  O
  O6       1.0000 0.41400  0.70510  0.48980  Biso   1.000  O
  O7       1.0000 0.62220  0.39200  0.65700  Biso   1.000  O
  O8       1.0000 0.37780  0.60800  0.34300  Biso   1.000  O
  B1       1.0000 0.60710  0.01960  0.71460  Biso   1.000  B
  B2       1.0000 0.39290  0.98040  0.28540  Biso   1.000  B
  H1       1.0000 0.50270  0.02050  0.68020  Biso   1.000  H
  H2       1.0000 0.49730  0.97950  0.31980  Biso   1.000  H
  B3       1.0000 0.76470  0.03000  0.61280  Biso   1.000  B
  B4       1.0000 0.23530  0.97000  0.38720  Biso   1.000  B
  H3       1.0000 0.76420  0.03800  0.51190  Biso   1.000  H
  H4       1.0000 0.23580  0.96200  0.48810  Biso   1.000  H
  B5       1.0000 0.90740  0.93530  0.69830  Biso   1.000  B
  B6       1.0000 0.09260  0.06470  0.30170  Biso   1.000  B
  H5       1.0000 0.00200  0.87960  0.65420  Biso   1.000  H
  H6       1.0000 0.99800  0.12040  0.34580  Biso   1.000  H
  B7       1.0000 0.83570  0.86870  0.85230  Biso   1.000  B
  B8       1.0000 0.16430  0.13130  0.14770  Biso   1.000  B
  H7       1.0000 0.88440  0.76880  0.90870  Biso   1.000  H
  H8       1.0000 0.11560  0.23120  0.09130  Biso   1.000  H
  B9       1.0000 0.64870  0.91830  0.86100  Biso   1.000  B
  B10      1.0000 0.35130  0.08170  0.13900  Biso   1.000  B
  H9       1.0000 0.57350  0.85060  0.92260  Biso   1.000  H
  H10      1.0000 0.42650  0.14940  0.07740  Biso   1.000  H
  B11      1.0000 0.87730  0.11750  0.66870  Biso   1.000  B
  B12      1.0000 0.12270  0.88250  0.33130  Biso   1.000  B
  H11      1.0000 0.95200  0.18370  0.60440  Biso   1.000  H
  H12      1.0000 0.04800  0.81630  0.39560  Biso   1.000  H
  B13      1.0000 0.91810  0.01810  0.82040  Biso   1.000  B
  B14      1.0000 0.08190  0.98190  0.17960  Biso   1.000  B
  H13      1.0000 0.02080  0.01850  0.85690  Biso   1.000  H
  H14      1.0000 0.97920  0.98150  0.14310  Biso   1.000  H
  B15      1.0000 0.75790  0.00600  0.91980  Biso   1.000  B
  B16      1.0000 0.24210  0.99400  0.08020  Biso   1.000  B
  H15      1.0000 0.75380  0.99750  0.02120  Biso   1.000  H
  H16      1.0000 0.24620  0.00250  0.97880  Biso   1.000  H
  B17      1.0000 0.61860  0.10070  0.83250  Biso   1.000  B
  B18      1.0000 0.38140  0.89930  0.16750  Biso   1.000  B
  H17      1.0000 0.52330  0.15720  0.87510  Biso   1.000  H
  H18      1.0000 0.47670  0.84280  0.12490  Biso   1.000  H
  B19      1.0000 0.78640  0.15990  0.80610  Biso   1.000  B
  B20      1.0000 0.21360  0.84010  0.19390  Biso   1.000  B
  H19      1.0000 0.80190  0.25520  0.83140  Biso   1.000  H
  H20      1.0000 0.19810  0.74480  0.16860  Biso   1.000  H
  C1       1.0000 0.74260  0.88690  0.72790  Biso   1.000  C
  C2       1.0000 0.25740  0.11310  0.27210  Biso   1.000  C
  C3       1.0000 0.69660  0.15620  0.68520  Biso   1.000  C
  C4       1.0000 0.30340  0.84380  0.31480  Biso   1.000  C
  C5       1.0000 0.71530  0.75710  0.69640  Biso   1.000  C
  C6       1.0000 0.28470  0.24290  0.30360  Biso   1.000  C
  C7       1.0000 0.62700  0.29480  0.60870  Biso   1.000  C
  C8       1.0000 0.37300  0.70520  0.39130  Biso   1.000  C
  C9       1.0000 0.43550  0.48450  0.84990  Biso   1.000  C
  C10      1.0000 0.56450  0.51550  0.15010  Biso   1.000  C
  H21      1.0000 0.50040  0.40400  0.84900  Biso   1.000  H
  H22      1.0000 0.49960  0.59600  0.15100  Biso   1.000  H
  C11      1.0000 0.33410  0.48580  0.95230  Biso   1.000  C
  C12      1.0000 0.66590  0.51420  0.04770  Biso   1.000  C
  H23      1.0000 0.33020  0.40700  0.01910  Biso   1.000  H
  H24      1.0000 0.66980  0.59300  0.98090  Biso   1.000  H
  C13      1.0000 0.24350  0.59880  0.95440  Biso   1.000  C
  C14      1.0000 0.75650  0.40120  0.04560  Biso   1.000  C
  H25      1.0000 0.17390  0.60060  0.02270  Biso   1.000  H
  H26      1.0000 0.82610  0.39940  0.97730  Biso   1.000  H
  C15      1.0000 0.25070  0.71500  0.85610  Biso   1.000  C
  C16      1.0000 0.74930  0.28500  0.14390  Biso   1.000  C
  H27      1.0000 0.18860  0.79700  0.85750  Biso   1.000  H
  H28      1.0000 0.81140  0.20300  0.14250  Biso   1.000  H
  C17      1.0000 0.35060  0.70700  0.75700  Biso   1.000  C
  C18      1.0000 0.64940  0.29300  0.24300  Biso   1.000  C
  H29      1.0000 0.35450  0.78410  0.68850  Biso   1.000  H
  H30      1.0000 0.64550  0.21590  0.31150  Biso   1.000  H
  N3       1.0000 0.73500  0.59980  0.45730  Biso   1.000  N
  N4       1.0000 0.26500  0.40020  0.54270  Biso   1.000  N
  C19      1.0000 0.71420  0.72480  0.37150  Biso   1.000  C
  C20      1.0000 0.28580  0.27520  0.62850  Biso   1.000  C
  H31      1.0000 0.64720  0.79680  0.39170  Biso   1.000  H
  H32      1.0000 0.35280  0.20320  0.60830  Biso   1.000  H
  C21      1.0000 0.79160  0.74440  0.25610  Biso   1.000  C
  C22      1.0000 0.20840  0.25560  0.74390  Biso   1.000  C
  H33      1.0000 0.77740  0.82980  0.19750  Biso   1.000  H
  H34      1.0000 0.22260  0.17020  0.80250  Biso   1.000  H
  C23      1.0000 0.88970  0.63900  0.22660  Biso   1.000  C
  C24      1.0000 0.11030  0.36100  0.77340  Biso   1.000  C
  H35      1.0000 0.94250  0.65240  0.14780  Biso   1.000  H
  H36      1.0000 0.05750  0.34760  0.85220  Biso   1.000  H
  C25      1.0000 0.91040  0.51410  0.31250  Biso   1.000  C
  C26      1.0000 0.08960  0.48590  0.68750  Biso   1.000  C
  H37      1.0000 0.97750  0.44200  0.29230  Biso   1.000  H
  H38      1.0000 0.02250  0.55800  0.70770  Biso   1.000  H
  C27      1.0000 0.83310  0.49450  0.42780  Biso   1.000  C
  C28      1.0000 0.16690  0.50550  0.57220  Biso   1.000  C
  H39      1.0000 0.84730  0.40910  0.48650  Biso   1.000  H
  H40      1.0000 0.15270  0.59090  0.51350  Biso   1.000  H
  N5       1.0000 0.72880  0.60180  0.46300  Biso   1.000  N
  N6       1.0000 0.27120  0.39820  0.53700  Biso   1.000  N
  C29      1.0000 0.71680  0.70180  0.35320  Biso   1.000  C
  C30      1.0000 0.28320  0.29820  0.64680  Biso   1.000  C
  H41      1.0000 0.64120  0.77500  0.34730  Biso   1.000  H
  H42      1.0000 0.35880  0.22500  0.65270  Biso   1.000  H
  C31      1.0000 0.81560  0.69490  0.25200  Biso   1.000  C
  C32      1.0000 0.18440  0.30510  0.74800  Biso   1.000  C
  H43      1.0000 0.80750  0.76320  0.17690  Biso   1.000  H
  H44      1.0000 0.19250  0.23680  0.82310  Biso   1.000  H
  C33      1.0000 0.92630  0.58790  0.26060  Biso   1.000  C
  C34      1.0000 0.07370  0.41210  0.73940  Biso   1.000  C
  H45      1.0000 0.99380  0.58310  0.19150  Biso   1.000  H
  H46      1.0000 0.00620  0.41690  0.80850  Biso   1.000  H
  C35      1.0000 0.93820  0.48780  0.37050  Biso   1.000  C
  C36      1.0000 0.06180  0.51220  0.62950  Biso   1.000  C
  H47      1.0000 0.01390  0.41470  0.37640  Biso   1.000  H
  H48      1.0000 0.98610  0.58530  0.62360  Biso   1.000  H
  C37      1.0000 0.83950  0.49480  0.47170  Biso   1.000  C
  C38      1.0000 0.16050  0.50520  0.52830  Biso   1.000  C
  H49      1.0000 0.84760  0.42640  0.54670  Biso   1.000  H
  H50      1.0000 0.15240  0.57360  0.45330  Biso   1.000  H
