data_image0
_cell_length_a       24.3006
_cell_length_b       12.7704
_cell_length_c       13.844
_cell_angle_alpha    90
_cell_angle_beta     123.028
_cell_angle_gamma    90

_symmetry_space_group_name_H-M    "P 1"
_symmetry_int_tables_number       1

loop_
  _symmetry_equiv_pos_as_xyz
  'x, y, z'

loop_
  _atom_site_label
  _atom_site_occupancy
  _atom_site_fract_x
  _atom_site_fract_y
  _atom_site_fract_z
  _atom_site_thermal_displace_type
  _atom_site_B_iso_or_equiv
  _atom_site_type_symbol
  Cu1      1.0000 0.30342  0.30549  0.57037  Biso   1.000  Cu
  Cu2      1.0000 0.69658  0.30549  0.92963  Biso   1.000  Cu
  Cu3      1.0000 0.80342  0.80549  0.57037  Biso   1.000  Cu
  Cu4      1.0000 0.19658  0.80549  0.92963  Biso   1.000  Cu
  Cu5      1.0000 0.69658  0.69451  0.42963  Biso   1.000  Cu
  Cu6      1.0000 0.30342  0.69451  0.07037  Biso   1.000  Cu
  Cu7      1.0000 0.19658  0.19451  0.42963  Biso   1.000  Cu
  Cu8      1.0000 0.80342  0.19451  0.07037  Biso   1.000  Cu
  O1       1.0000 0.25370  0.41481  0.45571  Biso   1.000  O
  O2       1.0000 0.74630  0.41481  0.04429  Biso   1.000  O
  O3       1.0000 0.75370  0.91481  0.45571  Biso   1.000  O
  O4       1.0000 0.24630  0.91481  0.04429  Biso   1.000  O
  O5       1.0000 0.74630  0.58519  0.54429  Biso   1.000  O
  O6       1.0000 0.25370  0.58519  0.95571  Biso   1.000  O
  O7       1.0000 0.24630  0.08519  0.54429  Biso   1.000  O
  O8       1.0000 0.75370  0.08519  0.95571  Biso   1.000  O
  O9       1.0000 0.16324  0.32277  0.33679  Biso   1.000  O
  O10      1.0000 0.83676  0.32277  0.16321  Biso   1.000  O
  O11      1.0000 0.66324  0.82277  0.33679  Biso   1.000  O
  O12      1.0000 0.33676  0.82277  0.16321  Biso   1.000  O
  O13      1.0000 0.83676  0.67723  0.66321  Biso   1.000  O
  O14      1.0000 0.16324  0.67723  0.83679  Biso   1.000  O
  O15      1.0000 0.33676  0.17723  0.66321  Biso   1.000  O
  O16      1.0000 0.66324  0.17723  0.83679  Biso   1.000  O
  O17      1.0000 0.25534  0.66015  0.14318  Biso   1.000  O
  O18      1.0000 0.74466  0.66015  0.35682  Biso   1.000  O
  O19      1.0000 0.75534  0.16015  0.14318  Biso   1.000  O
  O20      1.0000 0.24466  0.16015  0.35682  Biso   1.000  O
  O21      1.0000 0.74466  0.33985  0.85682  Biso   1.000  O
  O22      1.0000 0.25534  0.33985  0.64318  Biso   1.000  O
  O23      1.0000 0.24466  0.83985  0.85682  Biso   1.000  O
  O24      1.0000 0.75534  0.83985  0.64318  Biso   1.000  O
  O25      1.0000 0.16474  0.75222  0.02338  Biso   1.000  O
  O26      1.0000 0.83526  0.75222  0.47662  Biso   1.000  O
  O27      1.0000 0.66474  0.25222  0.02338  Biso   1.000  O
  O28      1.0000 0.33526  0.25222  0.47662  Biso   1.000  O
  O29      1.0000 0.83526  0.24778  0.97662  Biso   1.000  O
  O30      1.0000 0.16474  0.24778  0.52338  Biso   1.000  O
  O31      1.0000 0.33526  0.74778  0.97662  Biso   1.000  O
  O32      1.0000 0.66474  0.74778  0.52338  Biso   1.000  O
  O33      1.0000 0.38333  0.40781  0.67928  Biso   1.000  O
  O34      1.0000 0.61667  0.40781  0.82072  Biso   1.000  O
  O35      1.0000 0.88333  0.90781  0.67928  Biso   1.000  O
  O36      1.0000 0.11667  0.90781  0.82072  Biso   1.000  O
  O37      1.0000 0.61667  0.59219  0.32072  Biso   1.000  O
  O38      1.0000 0.38333  0.59219  0.17928  Biso   1.000  O
  O39      1.0000 0.11667  0.09219  0.32072  Biso   1.000  O
  O40      1.0000 0.88333  0.09219  0.17928  Biso   1.000  O
  H1       1.0000 0.40910  0.39100  0.74490  Biso   1.000  H
  H2       1.0000 0.59090  0.39100  0.75510  Biso   1.000  H
  H3       1.0000 0.90910  0.89100  0.74490  Biso   1.000  H
  H4       1.0000 0.09090  0.89100  0.75510  Biso   1.000  H
  H5       1.0000 0.59090  0.60900  0.25510  Biso   1.000  H
  H6       1.0000 0.40910  0.60900  0.24490  Biso   1.000  H
  H7       1.0000 0.09090  0.10900  0.25510  Biso   1.000  H
  H8       1.0000 0.90910  0.10900  0.24490  Biso   1.000  H
  B1       1.0000 0.21680  0.59385  0.29922  Biso   1.000  B
  B2       1.0000 0.78320  0.59385  0.20078  Biso   1.000  B
  B3       1.0000 0.71680  0.09385  0.29922  Biso   1.000  B
  B4       1.0000 0.28320  0.09385  0.20078  Biso   1.000  B
  B5       1.0000 0.78320  0.40615  0.70078  Biso   1.000  B
  B6       1.0000 0.21680  0.40615  0.79922  Biso   1.000  B
  B7       1.0000 0.28320  0.90615  0.70078  Biso   1.000  B
  B8       1.0000 0.71680  0.90615  0.79922  Biso   1.000  B
  H9       1.0000 0.27140  0.58610  0.34590  Biso   1.000  H
  H10      1.0000 0.72860  0.58610  0.15410  Biso   1.000  H
  H11      1.0000 0.77140  0.08610  0.34590  Biso   1.000  H
  H12      1.0000 0.22860  0.08610  0.15410  Biso   1.000  H
  H13      1.0000 0.72860  0.41390  0.65410  Biso   1.000  H
  H14      1.0000 0.27140  0.41390  0.84590  Biso   1.000  H
  H15      1.0000 0.22860  0.91390  0.65410  Biso   1.000  H
  H16      1.0000 0.77140  0.91390  0.84590  Biso   1.000  H
  B9       1.0000 0.17772  0.61715  0.37320  Biso   1.000  B
  B10      1.0000 0.82228  0.61715  0.12680  Biso   1.000  B
  B11      1.0000 0.67772  0.11715  0.37320  Biso   1.000  B
  B12      1.0000 0.32228  0.11715  0.12680  Biso   1.000  B
  B13      1.0000 0.82228  0.38285  0.62680  Biso   1.000  B
  B14      1.0000 0.17772  0.38285  0.87320  Biso   1.000  B
  B15      1.0000 0.32228  0.88285  0.62680  Biso   1.000  B
  B16      1.0000 0.67772  0.88285  0.87320  Biso   1.000  B
  H17      1.0000 0.20650  0.62420  0.46940  Biso   1.000  H
  H18      1.0000 0.79350  0.62420  0.03060  Biso   1.000  H
  H19      1.0000 0.70650  0.12420  0.46940  Biso   1.000  H
  H20      1.0000 0.29350  0.12420  0.03060  Biso   1.000  H
  H21      1.0000 0.79350  0.37580  0.53060  Biso   1.000  H
  H22      1.0000 0.20650  0.37580  0.96940  Biso   1.000  H
  H23      1.0000 0.29350  0.87580  0.53060  Biso   1.000  H
  H24      1.0000 0.70650  0.87580  0.96940  Biso   1.000  H
  B17      1.0000 0.09932  0.55446  0.29480  Biso   1.000  B
  B18      1.0000 0.90068  0.55446  0.20520  Biso   1.000  B
  B19      1.0000 0.59932  0.05446  0.29480  Biso   1.000  B
  B20      1.0000 0.40068  0.05446  0.20520  Biso   1.000  B
  B21      1.0000 0.90068  0.44554  0.70520  Biso   1.000  B
  B22      1.0000 0.09932  0.44554  0.79480  Biso   1.000  B
  B23      1.0000 0.40068  0.94554  0.70520  Biso   1.000  B
  B24      1.0000 0.59932  0.94554  0.79480  Biso   1.000  B
  H25      1.0000 0.07680  0.52010  0.34000  Biso   1.000  H
  H26      1.0000 0.92320  0.52010  0.16000  Biso   1.000  H
  H27      1.0000 0.57680  0.02010  0.34000  Biso   1.000  H
  H28      1.0000 0.42320  0.02010  0.16000  Biso   1.000  H
  H29      1.0000 0.92320  0.47990  0.66000  Biso   1.000  H
  H30      1.0000 0.07680  0.47990  0.84000  Biso   1.000  H
  H31      1.0000 0.42320  0.97990  0.66000  Biso   1.000  H
  H32      1.0000 0.57680  0.97990  0.84000  Biso   1.000  H
  B25      1.0000 0.08972  0.49317  0.17101  Biso   1.000  B
  B26      1.0000 0.91028  0.49317  0.32899  Biso   1.000  B
  B27      1.0000 0.58972  0.99317  0.17101  Biso   1.000  B
  B28      1.0000 0.41028  0.99317  0.32899  Biso   1.000  B
  B29      1.0000 0.91028  0.50683  0.82899  Biso   1.000  B
  B30      1.0000 0.08972  0.50683  0.67101  Biso   1.000  B
  B31      1.0000 0.41028  0.00683  0.82899  Biso   1.000  B
  B32      1.0000 0.58972  0.00683  0.67101  Biso   1.000  B
  H33      1.0000 0.06090  0.41910  0.13450  Biso   1.000  H
  H34      1.0000 0.93910  0.41910  0.36550  Biso   1.000  H
  H35      1.0000 0.56090  0.91910  0.13450  Biso   1.000  H
  H36      1.0000 0.43910  0.91910  0.36550  Biso   1.000  H
  H37      1.0000 0.93910  0.58090  0.86550  Biso   1.000  H
  H38      1.0000 0.06090  0.58090  0.63450  Biso   1.000  H
  H39      1.0000 0.43910  0.08090  0.86550  Biso   1.000  H
  H40      1.0000 0.56090  0.08090  0.63450  Biso   1.000  H
  B33      1.0000 0.16227  0.51675  0.17352  Biso   1.000  B
  B34      1.0000 0.83773  0.51675  0.32648  Biso   1.000  B
  B35      1.0000 0.66227  0.01675  0.17352  Biso   1.000  B
  B36      1.0000 0.33773  0.01675  0.32648  Biso   1.000  B
  B37      1.0000 0.83773  0.48325  0.82648  Biso   1.000  B
  B38      1.0000 0.16227  0.48325  0.67352  Biso   1.000  B
  B39      1.0000 0.33773  0.98325  0.82648  Biso   1.000  B
  B40      1.0000 0.66227  0.98325  0.67352  Biso   1.000  B
  H41      1.0000 0.18130  0.45870  0.13790  Biso   1.000  H
  H42      1.0000 0.81870  0.45870  0.36210  Biso   1.000  H
  H43      1.0000 0.68130  0.95870  0.13790  Biso   1.000  H
  H44      1.0000 0.31870  0.95870  0.36210  Biso   1.000  H
  H45      1.0000 0.81870  0.54130  0.86210  Biso   1.000  H
  H46      1.0000 0.18130  0.54130  0.63790  Biso   1.000  H
  H47      1.0000 0.31870  0.04130  0.86210  Biso   1.000  H
  H48      1.0000 0.68130  0.04130  0.63790  Biso   1.000  H
  B41      1.0000 0.17870  0.71591  0.28440  Biso   1.000  B
  B42      1.0000 0.82130  0.71591  0.21560  Biso   1.000  B
  B43      1.0000 0.67870  0.21591  0.28440  Biso   1.000  B
  B44      1.0000 0.32130  0.21591  0.21560  Biso   1.000  B
  B45      1.0000 0.82130  0.28409  0.71560  Biso   1.000  B
  B46      1.0000 0.17870  0.28409  0.78440  Biso   1.000  B
  B47      1.0000 0.32130  0.78409  0.71560  Biso   1.000  B
  B48      1.0000 0.67870  0.78409  0.78440  Biso   1.000  B
  H49      1.0000 0.20800  0.78970  0.32000  Biso   1.000  H
  H50      1.0000 0.79200  0.78970  0.18000  Biso   1.000  H
  H51      1.0000 0.70800  0.28970  0.32000  Biso   1.000  H
  H52      1.0000 0.29200  0.28970  0.18000  Biso   1.000  H
  H53      1.0000 0.79200  0.21030  0.68000  Biso   1.000  H
  H54      1.0000 0.20800  0.21030  0.82000  Biso   1.000  H
  H55      1.0000 0.29200  0.71030  0.68000  Biso   1.000  H
  H56      1.0000 0.70800  0.71030  0.82000  Biso   1.000  H
  B49      1.0000 0.10561  0.69176  0.28250  Biso   1.000  B
  B50      1.0000 0.89439  0.69176  0.21750  Biso   1.000  B
  B51      1.0000 0.60561  0.19176  0.28250  Biso   1.000  B
  B52      1.0000 0.39439  0.19176  0.21750  Biso   1.000  B
  B53      1.0000 0.89439  0.30824  0.71750  Biso   1.000  B
  B54      1.0000 0.10561  0.30824  0.78250  Biso   1.000  B
  B55      1.0000 0.39439  0.80824  0.71750  Biso   1.000  B
  B56      1.0000 0.60561  0.80824  0.78250  Biso   1.000  B
  H57      1.0000 0.08660  0.74950  0.31850  Biso   1.000  H
  H58      1.0000 0.91340  0.74950  0.18150  Biso   1.000  H
  H59      1.0000 0.58660  0.24950  0.31850  Biso   1.000  H
  H60      1.0000 0.41340  0.24950  0.18150  Biso   1.000  H
  H61      1.0000 0.91340  0.25050  0.68150  Biso   1.000  H
  H62      1.0000 0.08660  0.25050  0.81850  Biso   1.000  H
  H63      1.0000 0.41340  0.75050  0.68150  Biso   1.000  H
  H64      1.0000 0.58660  0.75050  0.81850  Biso   1.000  H
  B57      1.0000 0.05149  0.61545  0.15800  Biso   1.000  B
  B58      1.0000 0.94851  0.61545  0.34200  Biso   1.000  B
  B59      1.0000 0.55149  0.11545  0.15800  Biso   1.000  B
  B60      1.0000 0.44851  0.11545  0.34200  Biso   1.000  B
  B61      1.0000 0.94851  0.38455  0.84200  Biso   1.000  B
  B62      1.0000 0.05149  0.38455  0.65800  Biso   1.000  B
  B63      1.0000 0.44851  0.88455  0.84200  Biso   1.000  B
  B64      1.0000 0.55149  0.88455  0.65800  Biso   1.000  B
  H65      1.0000 0.99690  0.62280  0.11200  Biso   1.000  H
  H66      1.0000 0.00310  0.62280  0.38800  Biso   1.000  H
  H67      1.0000 0.49690  0.12280  0.11200  Biso   1.000  H
  H68      1.0000 0.50310  0.12280  0.38800  Biso   1.000  H
  H69      1.0000 0.00310  0.37720  0.88800  Biso   1.000  H
  H70      1.0000 0.99690  0.37720  0.61200  Biso   1.000  H
  H71      1.0000 0.50310  0.87720  0.88800  Biso   1.000  H
  H72      1.0000 0.49690  0.87720  0.61200  Biso   1.000  H
  B65      1.0000 0.09080  0.59279  0.08276  Biso   1.000  B
  B66      1.0000 0.90920  0.59279  0.41724  Biso   1.000  B
  B67      1.0000 0.59080  0.09279  0.08276  Biso   1.000  B
  B68      1.0000 0.40920  0.09279  0.41724  Biso   1.000  B
  B69      1.0000 0.90920  0.40721  0.91724  Biso   1.000  B
  B70      1.0000 0.09080  0.40721  0.58276  Biso   1.000  B
  B71      1.0000 0.40920  0.90721  0.91724  Biso   1.000  B
  B72      1.0000 0.59080  0.90721  0.58276  Biso   1.000  B
  H73      1.0000 0.06280  0.58620  0.98660  Biso   1.000  H
  H74      1.0000 0.93720  0.58620  0.51340  Biso   1.000  H
  H75      1.0000 0.56280  0.08620  0.98660  Biso   1.000  H
  H76      1.0000 0.43720  0.08620  0.51340  Biso   1.000  H
  H77      1.0000 0.93720  0.41380  0.01340  Biso   1.000  H
  H78      1.0000 0.06280  0.41380  0.48660  Biso   1.000  H
  H79      1.0000 0.43720  0.91380  0.01340  Biso   1.000  H
  H80      1.0000 0.56280  0.91380  0.48660  Biso   1.000  H
  B73      1.0000 0.10037  0.71476  0.15110  Biso   1.000  B
  B74      1.0000 0.89963  0.71476  0.34890  Biso   1.000  B
  B75      1.0000 0.60037  0.21476  0.15110  Biso   1.000  B
  B76      1.0000 0.39963  0.21476  0.34890  Biso   1.000  B
  B77      1.0000 0.89963  0.28524  0.84890  Biso   1.000  B
  B78      1.0000 0.10037  0.28524  0.65110  Biso   1.000  B
  B79      1.0000 0.39963  0.78524  0.84890  Biso   1.000  B
  B80      1.0000 0.60037  0.78524  0.65110  Biso   1.000  B
  H81      1.0000 0.07840  0.78800  0.09950  Biso   1.000  H
  H82      1.0000 0.92160  0.78800  0.40050  Biso   1.000  H
  H83      1.0000 0.57840  0.28800  0.09950  Biso   1.000  H
  H84      1.0000 0.42160  0.28800  0.40050  Biso   1.000  H
  H85      1.0000 0.92160  0.21200  0.90050  Biso   1.000  H
  H86      1.0000 0.07840  0.21200  0.59950  Biso   1.000  H
  H87      1.0000 0.42160  0.71200  0.90050  Biso   1.000  H
  H88      1.0000 0.57840  0.71200  0.59950  Biso   1.000  H
  C1       1.0000 0.16526  0.50279  0.29831  Biso   1.000  C
  C2       1.0000 0.83474  0.50279  0.20169  Biso   1.000  C
  C3       1.0000 0.66526  0.00279  0.29831  Biso   1.000  C
  C4       1.0000 0.33474  0.00279  0.20169  Biso   1.000  C
  C5       1.0000 0.83474  0.49721  0.70169  Biso   1.000  C
  C6       1.0000 0.16526  0.49721  0.79831  Biso   1.000  C
  C7       1.0000 0.33474  0.99721  0.70169  Biso   1.000  C
  C8       1.0000 0.66526  0.99721  0.79831  Biso   1.000  C
  C9       1.0000 0.16686  0.64983  0.16724  Biso   1.000  C
  C10      1.0000 0.83314  0.64983  0.33276  Biso   1.000  C
  C11      1.0000 0.66686  0.14983  0.16724  Biso   1.000  C
  C12      1.0000 0.33314  0.14983  0.33276  Biso   1.000  C
  C13      1.0000 0.83314  0.35017  0.83276  Biso   1.000  C
  C14      1.0000 0.16686  0.35017  0.66724  Biso   1.000  C
  C15      1.0000 0.33314  0.85017  0.83276  Biso   1.000  C
  C16      1.0000 0.66686  0.85017  0.66724  Biso   1.000  C
  C17      1.0000 0.19684  0.40413  0.36969  Biso   1.000  C
  C18      1.0000 0.80316  0.40413  0.13031  Biso   1.000  C
  C19      1.0000 0.69684  0.90413  0.36969  Biso   1.000  C
  C20      1.0000 0.30316  0.90413  0.13031  Biso   1.000  C
  C21      1.0000 0.80316  0.59587  0.63031  Biso   1.000  C
  C22      1.0000 0.19684  0.59587  0.86969  Biso   1.000  C
  C23      1.0000 0.30316  0.09587  0.63031  Biso   1.000  C
  C24      1.0000 0.69684  0.09587  0.86969  Biso   1.000  C
  C25      1.0000 0.19879  0.69165  0.10608  Biso   1.000  C
  C26      1.0000 0.80121  0.69165  0.39392  Biso   1.000  C
  C27      1.0000 0.69879  0.19165  0.10608  Biso   1.000  C
  C28      1.0000 0.30121  0.19165  0.39392  Biso   1.000  C
  C29      1.0000 0.80121  0.30835  0.89392  Biso   1.000  C
  C30      1.0000 0.19879  0.30835  0.60608  Biso   1.000  C
  C31      1.0000 0.30121  0.80835  0.89392  Biso   1.000  C
  C32      1.0000 0.69879  0.80835  0.60608  Biso   1.000  C
  C33      1.0000 0.37360  0.51690  0.68140  Biso   1.000  C
  C34      1.0000 0.62640  0.51690  0.81860  Biso   1.000  C
  C35      1.0000 0.87360  0.01690  0.68140  Biso   1.000  C
  C36      1.0000 0.12640  0.01690  0.81860  Biso   1.000  C
  C37      1.0000 0.62640  0.48310  0.31860  Biso   1.000  C
  C38      1.0000 0.37360  0.48310  0.18140  Biso   1.000  C
  C39      1.0000 0.12640  0.98310  0.31860  Biso   1.000  C
  C40      1.0000 0.87360  0.98310  0.18140  Biso   1.000  C
  H89      1.0000 0.41610  0.55130  0.73170  Biso   1.000  H
  H90      1.0000 0.58390  0.55130  0.76830  Biso   1.000  H
  H91      1.0000 0.91610  0.05130  0.73170  Biso   1.000  H
  H92      1.0000 0.08390  0.05130  0.76830  Biso   1.000  H
  H93      1.0000 0.58390  0.44870  0.26830  Biso   1.000  H
  H94      1.0000 0.41610  0.44870  0.23170  Biso   1.000  H
  H95      1.0000 0.08390  0.94870  0.26830  Biso   1.000  H
  H96      1.0000 0.91610  0.94870  0.23170  Biso   1.000  H
  H97      1.0000 0.34550  0.52970  0.71060  Biso   1.000  H
  H98      1.0000 0.65450  0.52970  0.78940  Biso   1.000  H
  H99      1.0000 0.84550  0.02970  0.71060  Biso   1.000  H
  H100     1.0000 0.15450  0.02970  0.78940  Biso   1.000  H
  H101     1.0000 0.65450  0.47030  0.28940  Biso   1.000  H
  H102     1.0000 0.34550  0.47030  0.21060  Biso   1.000  H
  H103     1.0000 0.15450  0.97030  0.28940  Biso   1.000  H
  H104     1.0000 0.84550  0.97030  0.21060  Biso   1.000  H
  H105     1.0000 0.35260  0.54530  0.60320  Biso   1.000  H
  H106     1.0000 0.64740  0.54530  0.89680  Biso   1.000  H
  H107     1.0000 0.85260  0.04530  0.60320  Biso   1.000  H
  H108     1.0000 0.14740  0.04530  0.89680  Biso   1.000  H
  H109     1.0000 0.64740  0.45470  0.39680  Biso   1.000  H
  H110     1.0000 0.35260  0.45470  0.10320  Biso   1.000  H
  H111     1.0000 0.14740  0.95470  0.39680  Biso   1.000  H
  H112     1.0000 0.85260  0.95470  0.10320  Biso   1.000  H
  C41      1.0000 0.00000  0.27400  0.25000  Biso   1.000  C
  C42      1.0000 0.50000  0.77400  0.25000  Biso   1.000  C
  C43      1.0000 0.00000  0.72600  0.75000  Biso   1.000  C
  C44      1.0000 0.50000  0.22600  0.75000  Biso   1.000  C
  H113     1.0000 0.04190  0.31300  0.27600  Biso   1.000  H
  H114     1.0000 0.95810  0.31300  0.22400  Biso   1.000  H
  H115     1.0000 0.54190  0.81300  0.27600  Biso   1.000  H
  H116     1.0000 0.45810  0.81300  0.22400  Biso   1.000  H
  H117     1.0000 0.95810  0.68700  0.72400  Biso   1.000  H
  H118     1.0000 0.04190  0.68700  0.77600  Biso   1.000  H
  H119     1.0000 0.45810  0.18700  0.72400  Biso   1.000  H
  H120     1.0000 0.54190  0.18700  0.77600  Biso   1.000  H
  O41      1.0000 0.00527  0.17000  0.30010  Biso   1.000  O
  O42      1.0000 0.99473  0.17000  0.19990  Biso   1.000  O
  O43      1.0000 0.50527  0.67000  0.30010  Biso   1.000  O
  O44      1.0000 0.49473  0.67000  0.19990  Biso   1.000  O
  O45      1.0000 0.99473  0.83000  0.69990  Biso   1.000  O
  O46      1.0000 0.00527  0.83000  0.80010  Biso   1.000  O
  O47      1.0000 0.49473  0.33000  0.69990  Biso   1.000  O
  O48      1.0000 0.50527  0.33000  0.80010  Biso   1.000  O
  H121     1.0000 0.04500  0.15200  0.32900  Biso   1.000  H
  H122     1.0000 0.95500  0.15200  0.17100  Biso   1.000  H
  H123     1.0000 0.54500  0.65200  0.32900  Biso   1.000  H
  H124     1.0000 0.45500  0.65200  0.17100  Biso   1.000  H
  H125     1.0000 0.95500  0.84800  0.67100  Biso   1.000  H
  H126     1.0000 0.04500  0.84800  0.82900  Biso   1.000  H
  H127     1.0000 0.45500  0.34800  0.67100  Biso   1.000  H
  H128     1.0000 0.54500  0.34800  0.82900  Biso   1.000  H
  C45      1.0000 0.38400  0.51360  0.64420  Biso   1.000  C
  C46      1.0000 0.61600  0.51360  0.85580  Biso   1.000  C
  C47      1.0000 0.88400  0.01360  0.64420  Biso   1.000  C
  C48      1.0000 0.11600  0.01360  0.85580  Biso   1.000  C
  C49      1.0000 0.61600  0.48640  0.35580  Biso   1.000  C
  C50      1.0000 0.38400  0.48640  0.14420  Biso   1.000  C
  C51      1.0000 0.11600  0.98640  0.35580  Biso   1.000  C
  C52      1.0000 0.88400  0.98640  0.14420  Biso   1.000  C
  H129     1.0000 0.34890  0.55370  0.64150  Biso   1.000  H
  H130     1.0000 0.65110  0.55370  0.85850  Biso   1.000  H
  H131     1.0000 0.84890  0.05370  0.64150  Biso   1.000  H
  H132     1.0000 0.15110  0.05370  0.85850  Biso   1.000  H
  H133     1.0000 0.65110  0.44630  0.35850  Biso   1.000  H
  H134     1.0000 0.34890  0.44630  0.14150  Biso   1.000  H
  H135     1.0000 0.15110  0.94630  0.35850  Biso   1.000  H
  H136     1.0000 0.84890  0.94630  0.14150  Biso   1.000  H
  H137     1.0000 0.37730  0.51310  0.56760  Biso   1.000  H
  H138     1.0000 0.62270  0.51310  0.93240  Biso   1.000  H
  H139     1.0000 0.87730  0.01310  0.56760  Biso   1.000  H
  H140     1.0000 0.12270  0.01310  0.93240  Biso   1.000  H
  H141     1.0000 0.62270  0.48690  0.43240  Biso   1.000  H
  H142     1.0000 0.37730  0.48690  0.06760  Biso   1.000  H
  H143     1.0000 0.12270  0.98690  0.43240  Biso   1.000  H
  H144     1.0000 0.87730  0.98690  0.06760  Biso   1.000  H
  H145     1.0000 0.42650  0.54600  0.69950  Biso   1.000  H
  H146     1.0000 0.57350  0.54600  0.80050  Biso   1.000  H
  H147     1.0000 0.92650  0.04600  0.69950  Biso   1.000  H
  H148     1.0000 0.07350  0.04600  0.80050  Biso   1.000  H
  H149     1.0000 0.57350  0.45400  0.30050  Biso   1.000  H
  H150     1.0000 0.42650  0.45400  0.19950  Biso   1.000  H
  H151     1.0000 0.07350  0.95400  0.30050  Biso   1.000  H
  H152     1.0000 0.92650  0.95400  0.19950  Biso   1.000  H
  H153     1.0000 0.00500  0.25200  0.32500  Biso   1.000  H
  H154     1.0000 0.99500  0.25200  0.17500  Biso   1.000  H
  H155     1.0000 0.50500  0.75200  0.32500  Biso   1.000  H
  H156     1.0000 0.49500  0.75200  0.17500  Biso   1.000  H
  H157     1.0000 0.99500  0.74800  0.67500  Biso   1.000  H
  H158     1.0000 0.00500  0.74800  0.82500  Biso   1.000  H
  H159     1.0000 0.49500  0.24800  0.67500  Biso   1.000  H
  H160     1.0000 0.50500  0.24800  0.82500  Biso   1.000  H
