data_image0
_cell_length_a       11.74
_cell_length_b       12.684
_cell_length_c       13.5746
_cell_angle_alpha    90
_cell_angle_beta     113.301
_cell_angle_gamma    90

_symmetry_space_group_name_H-M    "P 1"
_symmetry_int_tables_number       1

loop_
  _symmetry_equiv_pos_as_xyz
  'x, y, z'

loop_
  _atom_site_label
  _atom_site_occupancy
  _atom_site_fract_x
  _atom_site_fract_y
  _atom_site_fract_z
  _atom_site_thermal_displace_type
  _atom_site_B_iso_or_equiv
  _atom_site_type_symbol
  Cu1      1.0000 0.41425  0.55281  0.02164  Biso   1.000  Cu
  Cu2      1.0000 0.08575  0.05281  0.47836  Biso   1.000  Cu
  Cu3      1.0000 0.58575  0.44719  0.97837  Biso   1.000  Cu
  Cu4      1.0000 0.91425  0.94719  0.52163  Biso   1.000  Cu
  O1       1.0000 0.53883  0.66520  0.05177  Biso   1.000  O
  O2       1.0000 0.96117  0.16520  0.44823  Biso   1.000  O
  O3       1.0000 0.46117  0.33480  0.94823  Biso   1.000  O
  O4       1.0000 0.03883  0.83480  0.55177  Biso   1.000  O
  O5       1.0000 0.68233  0.57931  0.01345  Biso   1.000  O
  O6       1.0000 0.81767  0.07931  0.48655  Biso   1.000  O
  O7       1.0000 0.31767  0.42069  0.98655  Biso   1.000  O
  O8       1.0000 0.18233  0.92069  0.51345  Biso   1.000  O
  O9       1.0000 0.85429  0.91253  0.36830  Biso   1.000  O
  O10      1.0000 0.64571  0.41253  0.13170  Biso   1.000  O
  O11      1.0000 0.14571  0.08747  0.63170  Biso   1.000  O
  O12      1.0000 0.35429  0.58747  0.86830  Biso   1.000  O
  O13      1.0000 0.99992  0.99786  0.33214  Biso   1.000  O
  O14      1.0000 0.50008  0.49786  0.16786  Biso   1.000  O
  O15      1.0000 0.00008  0.00214  0.66786  Biso   1.000  O
  O16      1.0000 0.49992  0.50214  0.83214  Biso   1.000  O
  O17      1.0000 0.28808  0.65099  0.05058  Biso   1.000  O
  O18      1.0000 0.21192  0.15099  0.44942  Biso   1.000  O
  O19      1.0000 0.71192  0.34901  0.94942  Biso   1.000  O
  O20      1.0000 0.78808  0.84901  0.55058  Biso   1.000  O
  H1       1.0000 0.23700  0.62400  0.06900  Biso   1.000  H
  H2       1.0000 0.26300  0.12400  0.43100  Biso   1.000  H
  H3       1.0000 0.76300  0.37600  0.93100  Biso   1.000  H
  H4       1.0000 0.73700  0.87600  0.56900  Biso   1.000  H
  B1       1.0000 0.70627  0.84276  0.15340  Biso   1.000  B
  B2       1.0000 0.79373  0.34276  0.34660  Biso   1.000  B
  B3       1.0000 0.29373  0.15724  0.84660  Biso   1.000  B
  B4       1.0000 0.20627  0.65724  0.65340  Biso   1.000  B
  H5       1.0000 0.65500  0.82660  0.20600  Biso   1.000  H
  H6       1.0000 0.84500  0.32660  0.29400  Biso   1.000  H
  H7       1.0000 0.34500  0.17340  0.79400  Biso   1.000  H
  H8       1.0000 0.15500  0.67340  0.70600  Biso   1.000  H
  B5       1.0000 0.62700  0.87499  0.01705  Biso   1.000  B
  B6       1.0000 0.87300  0.37499  0.48295  Biso   1.000  B
  B7       1.0000 0.37300  0.12501  0.98295  Biso   1.000  B
  B8       1.0000 0.12700  0.62501  0.51705  Biso   1.000  B
  H9       1.0000 0.52330  0.87960  0.97880  Biso   1.000  H
  H10      1.0000 0.97670  0.37960  0.52120  Biso   1.000  H
  H11      1.0000 0.47670  0.12040  0.02120  Biso   1.000  H
  H12      1.0000 0.02330  0.62040  0.47880  Biso   1.000  H
  B9       1.0000 0.71590  0.82382  0.94681  Biso   1.000  B
  B10      1.0000 0.78410  0.32382  0.55319  Biso   1.000  B
  B11      1.0000 0.28410  0.17618  0.05319  Biso   1.000  B
  B12      1.0000 0.21590  0.67618  0.44681  Biso   1.000  B
  H13      1.0000 0.67020  0.79440  0.86240  Biso   1.000  H
  H14      1.0000 0.82980  0.29440  0.63760  Biso   1.000  H
  H15      1.0000 0.32980  0.20560  0.13760  Biso   1.000  H
  H16      1.0000 0.17020  0.70560  0.36240  Biso   1.000  H
  B13      1.0000 0.85070  0.76092  0.04134  Biso   1.000  B
  B14      1.0000 0.64930  0.26092  0.45866  Biso   1.000  B
  B15      1.0000 0.14930  0.23908  0.95866  Biso   1.000  B
  B16      1.0000 0.35070  0.73908  0.54134  Biso   1.000  B
  H17      1.0000 0.89320  0.69060  0.01920  Biso   1.000  H
  H18      1.0000 0.60680  0.19060  0.48080  Biso   1.000  H
  H19      1.0000 0.10680  0.30940  0.98080  Biso   1.000  H
  H20      1.0000 0.39320  0.80940  0.51920  Biso   1.000  H
  B17      1.0000 0.84539  0.77204  0.16934  Biso   1.000  B
  B18      1.0000 0.65461  0.27204  0.33066  Biso   1.000  B
  B19      1.0000 0.15461  0.22796  0.83066  Biso   1.000  B
  B20      1.0000 0.34539  0.72796  0.66934  Biso   1.000  B
  H21      1.0000 0.88530  0.71000  0.23240  Biso   1.000  H
  H22      1.0000 0.61470  0.21000  0.26760  Biso   1.000  H
  H23      1.0000 0.11470  0.29000  0.76760  Biso   1.000  H
  H24      1.0000 0.38530  0.79000  0.73240  Biso   1.000  H
  B21      1.0000 0.71820  0.97116  0.10887  Biso   1.000  B
  B22      1.0000 0.78180  0.47116  0.39113  Biso   1.000  B
  B23      1.0000 0.28180  0.02884  0.89113  Biso   1.000  B
  B24      1.0000 0.21820  0.52884  0.60887  Biso   1.000  B
  H25      1.0000 0.67660  0.04080  0.13310  Biso   1.000  H
  H26      1.0000 0.82340  0.54080  0.36690  Biso   1.000  H
  H27      1.0000 0.32340  0.95920  0.86690  Biso   1.000  H
  H28      1.0000 0.17660  0.45920  0.63310  Biso   1.000  H
  B25      1.0000 0.72310  0.95972  0.97969  Biso   1.000  B
  B26      1.0000 0.77690  0.45972  0.52031  Biso   1.000  B
  B27      1.0000 0.27690  0.04028  0.02031  Biso   1.000  B
  B28      1.0000 0.22310  0.54028  0.47969  Biso   1.000  B
  H29      1.0000 0.68280  0.02180  0.91670  Biso   1.000  H
  H30      1.0000 0.81720  0.52180  0.58330  Biso   1.000  H
  H31      1.0000 0.31720  0.97820  0.08330  Biso   1.000  H
  H32      1.0000 0.18280  0.47820  0.41670  Biso   1.000  H
  B29      1.0000 0.86080  0.88970  0.99442  Biso   1.000  B
  B30      1.0000 0.63920  0.38970  0.50558  Biso   1.000  B
  B31      1.0000 0.13920  0.11030  0.00558  Biso   1.000  B
  B32      1.0000 0.36080  0.61030  0.49442  Biso   1.000  B
  H33      1.0000 0.91110  0.90560  0.94110  Biso   1.000  H
  H34      1.0000 0.58890  0.40560  0.55890  Biso   1.000  H
  H35      1.0000 0.08890  0.09440  0.05890  Biso   1.000  H
  H36      1.0000 0.41110  0.59440  0.44110  Biso   1.000  H
  B33      1.0000 0.94100  0.85802  0.13197  Biso   1.000  B
  B34      1.0000 0.55900  0.35802  0.36803  Biso   1.000  B
  B35      1.0000 0.05900  0.14198  0.86803  Biso   1.000  B
  B36      1.0000 0.44100  0.64198  0.63197  Biso   1.000  B
  H37      1.0000 0.04460  0.85370  0.17100  Biso   1.000  H
  H38      1.0000 0.45540  0.35370  0.32900  Biso   1.000  H
  H39      1.0000 0.95540  0.14630  0.82900  Biso   1.000  H
  H40      1.0000 0.54460  0.64630  0.67100  Biso   1.000  H
  B37      1.0000 0.86260  0.98037  0.09425  Biso   1.000  B
  B38      1.0000 0.63740  0.48037  0.40575  Biso   1.000  B
  B39      1.0000 0.13740  0.01963  0.90575  Biso   1.000  B
  B40      1.0000 0.36260  0.51963  0.59425  Biso   1.000  B
  H41      1.0000 0.91520  0.05640  0.10860  Biso   1.000  H
  H42      1.0000 0.58480  0.55640  0.39140  Biso   1.000  H
  H43      1.0000 0.08480  0.94360  0.89140  Biso   1.000  H
  H44      1.0000 0.41520  0.44360  0.60860  Biso   1.000  H
  C1       1.0000 0.71197  0.76068  0.05693  Biso   1.000  C
  C2       1.0000 0.78803  0.26068  0.44307  Biso   1.000  C
  C3       1.0000 0.28803  0.23932  0.94307  Biso   1.000  C
  C4       1.0000 0.21197  0.73932  0.55693  Biso   1.000  C
  C5       1.0000 0.84670  0.90406  0.19256  Biso   1.000  C
  C6       1.0000 0.65330  0.40406  0.30744  Biso   1.000  C
  C7       1.0000 0.15330  0.09594  0.80744  Biso   1.000  C
  C8       1.0000 0.34670  0.59594  0.69256  Biso   1.000  C
  C9       1.0000 0.63798  0.65840  0.03944  Biso   1.000  C
  C10      1.0000 0.86202  0.15840  0.46056  Biso   1.000  C
  C11      1.0000 0.36202  0.34160  0.96056  Biso   1.000  C
  C12      1.0000 0.13798  0.84160  0.53944  Biso   1.000  C
  C13      1.0000 0.90619  0.94161  0.30826  Biso   1.000  C
  C14      1.0000 0.59381  0.44161  0.19174  Biso   1.000  C
  C15      1.0000 0.09381  0.05839  0.69174  Biso   1.000  C
  C16      1.0000 0.40619  0.55839  0.80826  Biso   1.000  C
  C17      1.0000 0.24200  0.74610  0.99330  Biso   1.000  C
  C18      1.0000 0.25800  0.24610  0.50670  Biso   1.000  C
  C19      1.0000 0.75800  0.25390  0.00670  Biso   1.000  C
  C20      1.0000 0.74200  0.75390  0.49330  Biso   1.000  C
  H45      1.0000 0.31040  0.79620  0.00830  Biso   1.000  H
  H46      1.0000 0.18960  0.29620  0.49170  Biso   1.000  H
  H47      1.0000 0.68960  0.20380  0.99170  Biso   1.000  H
  H48      1.0000 0.81040  0.70380  0.50830  Biso   1.000  H
  H49      1.0000 0.17940  0.77650  0.01580  Biso   1.000  H
  H50      1.0000 0.32060  0.27650  0.48420  Biso   1.000  H
  H51      1.0000 0.82060  0.22350  0.98420  Biso   1.000  H
  H52      1.0000 0.67940  0.72350  0.51580  Biso   1.000  H
  H53      1.0000 0.20440  0.73110  0.91620  Biso   1.000  H
  H54      1.0000 0.29560  0.23110  0.58380  Biso   1.000  H
  H55      1.0000 0.79560  0.26890  0.08380  Biso   1.000  H
  H56      1.0000 0.70440  0.76890  0.41620  Biso   1.000  H
  O21      1.0000 0.85420  0.42570  0.86580  Biso   1.000  O
  O22      1.0000 0.64580  0.92570  0.63420  Biso   1.000  O
  O23      1.0000 0.14580  0.57430  0.13420  Biso   1.000  O
  O24      1.0000 0.35420  0.07430  0.36580  Biso   1.000  O
  N1       1.0000 0.91580  0.57321  0.81141  Biso   1.000  N
  N2       1.0000 0.58420  0.07321  0.68859  Biso   1.000  N
  N3       1.0000 0.08420  0.42679  0.18859  Biso   1.000  N
  N4       1.0000 0.41580  0.92679  0.31141  Biso   1.000  N
  C21      1.0000 0.83770  0.51890  0.83670  Biso   1.000  C
  C22      1.0000 0.66230  0.01890  0.66330  Biso   1.000  C
  C23      1.0000 0.16230  0.48110  0.16330  Biso   1.000  C
  C24      1.0000 0.33770  0.98110  0.33670  Biso   1.000  C
  H57      1.0000 0.76370  0.55250  0.83260  Biso   1.000  H
  H58      1.0000 0.73630  0.05250  0.66740  Biso   1.000  H
  H59      1.0000 0.23630  0.44750  0.16740  Biso   1.000  H
  H60      1.0000 0.26370  0.94750  0.33260  Biso   1.000  H
  C25      1.0000 0.02900  0.52470  0.81500  Biso   1.000  C
  C26      1.0000 0.47100  0.02470  0.68500  Biso   1.000  C
  C27      1.0000 0.97100  0.47530  0.18500  Biso   1.000  C
  C28      1.0000 0.52900  0.97530  0.31500  Biso   1.000  C
  H61      1.0000 0.02840  0.44940  0.83120  Biso   1.000  H
  H62      1.0000 0.47160  0.94940  0.66880  Biso   1.000  H
  H63      1.0000 0.97160  0.55060  0.16880  Biso   1.000  H
  H64      1.0000 0.52840  0.05060  0.33120  Biso   1.000  H
  H65      1.0000 0.10050  0.55860  0.87090  Biso   1.000  H
  H66      1.0000 0.39950  0.05860  0.62910  Biso   1.000  H
  H67      1.0000 0.89950  0.44140  0.12910  Biso   1.000  H
  H68      1.0000 0.60050  0.94140  0.37090  Biso   1.000  H
  H69      1.0000 0.03480  0.53320  0.74540  Biso   1.000  H
  H70      1.0000 0.46520  0.03320  0.75460  Biso   1.000  H
  H71      1.0000 0.96520  0.46680  0.25460  Biso   1.000  H
  H72      1.0000 0.53480  0.96680  0.24540  Biso   1.000  H
  C29      1.0000 0.89410  0.68300  0.77970  Biso   1.000  C
  C30      1.0000 0.60590  0.18300  0.72030  Biso   1.000  C
  C31      1.0000 0.10590  0.31700  0.22030  Biso   1.000  C
  C32      1.0000 0.39410  0.81700  0.27970  Biso   1.000  C
  H73      1.0000 0.81000  0.70290  0.77080  Biso   1.000  H
  H74      1.0000 0.69000  0.20290  0.72920  Biso   1.000  H
  H75      1.0000 0.19000  0.29710  0.22920  Biso   1.000  H
  H76      1.0000 0.31000  0.79710  0.27080  Biso   1.000  H
  H77      1.0000 0.90350  0.69310  0.71170  Biso   1.000  H
  H78      1.0000 0.59650  0.19310  0.78830  Biso   1.000  H
  H79      1.0000 0.09650  0.30690  0.28830  Biso   1.000  H
  H80      1.0000 0.40350  0.80690  0.21170  Biso   1.000  H
  H81      1.0000 0.95440  0.72720  0.83520  Biso   1.000  H
  H82      1.0000 0.54560  0.22720  0.66480  Biso   1.000  H
  H83      1.0000 0.04560  0.27280  0.16480  Biso   1.000  H
  H84      1.0000 0.45440  0.77280  0.33520  Biso   1.000  H
