data_image0
_cell_length_a       15.635
_cell_length_b       16.496
_cell_length_c       17.116
_cell_angle_alpha    89.07
_cell_angle_beta     73.91
_cell_angle_gamma    65.82

_symmetry_space_group_name_H-M    "P 1"
_symmetry_int_tables_number       1

loop_
  _symmetry_equiv_pos_as_xyz
  'x, y, z'

loop_
  _atom_site_label
  _atom_site_occupancy
  _atom_site_fract_x
  _atom_site_fract_y
  _atom_site_fract_z
  _atom_site_thermal_displace_type
  _atom_site_B_iso_or_equiv
  _atom_site_type_symbol
  O1       1.0000 0.31900  0.71790  0.12020  Biso   1.000  O
  O2       1.0000 0.68100  0.28210  0.87980  Biso   1.000  O
  O3       1.0000 0.30590  0.74730  0.55250  Biso   1.000  O
  O4       1.0000 0.69410  0.25270  0.44750  Biso   1.000  O
  O5       1.0000 0.16350  0.62980  0.16070  Biso   1.000  O
  O6       1.0000 0.83650  0.37020  0.83930  Biso   1.000  O
  O7       1.0000 0.20440  0.18180  0.15820  Biso   1.000  O
  O8       1.0000 0.79560  0.81820  0.84180  Biso   1.000  O
  O9       1.0000 0.20870  0.21600  0.67970  Biso   1.000  O
  O10      1.0000 0.79130  0.78400  0.32030  Biso   1.000  O
  O11      1.0000 0.04070  0.43370  0.18670  Biso   1.000  O
  O12      1.0000 0.95930  0.56630  0.81330  Biso   1.000  O
  O13      1.0000 0.07360  0.70230  0.32020  Biso   1.000  O
  O14      1.0000 0.92640  0.29770  0.67980  Biso   1.000  O
  O15      1.0000 0.04290  0.29180  0.09990  Biso   1.000  O
  O16      1.0000 0.95710  0.70820  0.90010  Biso   1.000  O
  O17      1.0000 0.41000  0.01000  0.02550  Biso   1.000  O
  O18      1.0000 0.59000  0.99000  0.97450  Biso   1.000  O
  O19      1.0000 0.05900  0.27400  0.94060  Biso   1.000  O
  O20      1.0000 0.94100  0.72600  0.05940  Biso   1.000  O
  O21      1.0000 0.99900  0.40400  0.84900  Biso   1.000  O
  O22      1.0000 0.00100  0.59600  0.15100  Biso   1.000  O
  O23      1.0000 0.00370  0.41700  0.41900  Biso   1.000  O
  O24      1.0000 0.99630  0.58300  0.58100  Biso   1.000  O
  O25      1.0000 0.00100  0.59700  0.42150  Biso   1.000  O
  O26      1.0000 0.99900  0.40300  0.57850  Biso   1.000  O
  O27      1.0000 0.58600  0.01250  0.47710  Biso   1.000  O
  O28      1.0000 0.41400  0.98750  0.52290  Biso   1.000  O
  O29      1.0000 0.89000  0.49800  0.35400  Biso   1.000  O
  O30      1.0000 0.11000  0.50200  0.64600  Biso   1.000  O
  O31      1.0000 0.92700  0.85900  0.28200  Biso   1.000  O
  O32      1.0000 0.07300  0.14100  0.71800  Biso   1.000  O
  La1      1.0000 0.64621  0.03523  0.20478  Biso   1.000  La
  La2      1.0000 0.35379  0.96477  0.79522  Biso   1.000  La
  La3      1.0000 0.36391  0.91565  0.28354  Biso   1.000  La
  La4      1.0000 0.63609  0.08435  0.71646  Biso   1.000  La
  Cu1      1.0000 0.41781  0.28376  0.32904  Biso   1.000  Cu
  Cu2      1.0000 0.58219  0.71624  0.67096  Biso   1.000  Cu
  Cu3      1.0000 0.51255  0.47366  0.23965  Biso   1.000  Cu
  Cu4      1.0000 0.48745  0.52634  0.76035  Biso   1.000  Cu
  Cu5      1.0000 0.59967  0.66704  0.14980  Biso   1.000  Cu
  Cu6      1.0000 0.40033  0.33296  0.85020  Biso   1.000  Cu
  Cu7      1.0000 0.91760  0.12360  0.36440  Biso   1.000  Cu
  Cu8      1.0000 0.08240  0.87640  0.63560  Biso   1.000  Cu
  Cu9      1.0000 0.00000  0.00000  0.00000  Biso   1.000  Cu
  O33      1.0000 0.81020  0.89210  0.16920  Biso   1.000  O
  O34      1.0000 0.18980  0.10790  0.83080  Biso   1.000  O
  O35      1.0000 0.49900  0.12840  0.14480  Biso   1.000  O
  O36      1.0000 0.50100  0.87160  0.85520  Biso   1.000  O
  O37      1.0000 0.63410  0.93090  0.31750  Biso   1.000  O
  O38      1.0000 0.36590  0.06910  0.68250  Biso   1.000  O
  O39      1.0000 0.21200  0.88130  0.30900  Biso   1.000  O
  O40      1.0000 0.78800  0.11870  0.69100  Biso   1.000  O
  O41      1.0000 0.37290  0.03040  0.18250  Biso   1.000  O
  O42      1.0000 0.62710  0.96960  0.81750  Biso   1.000  O
  O43      1.0000 0.29940  0.91160  0.43950  Biso   1.000  O
  O44      1.0000 0.70060  0.08840  0.56050  Biso   1.000  O
  O45      1.0000 0.51740  0.82940  0.33940  Biso   1.000  O
  O46      1.0000 0.48260  0.17060  0.66060  Biso   1.000  O
  O47      1.0000 0.32520  0.88370  0.15250  Biso   1.000  O
  O48      1.0000 0.67480  0.11630  0.84750  Biso   1.000  O
  O49      1.0000 0.62110  0.19080  0.20640  Biso   1.000  O
  O50      1.0000 0.37890  0.80920  0.79360  Biso   1.000  O
  O51      1.0000 0.49930  0.32570  0.24220  Biso   1.000  O
  O52      1.0000 0.50070  0.67430  0.75780  Biso   1.000  O
  O53      1.0000 0.34700  0.49500  0.10010  Biso   1.000  O
  O54      1.0000 0.65300  0.50500  0.89990  Biso   1.000  O
  O55      1.0000 0.40730  0.52820  0.19150  Biso   1.000  O
  O56      1.0000 0.59270  0.47180  0.80850  Biso   1.000  O
  O57      1.0000 0.59080  0.93270  0.15990  Biso   1.000  O
  O58      1.0000 0.40920  0.06730  0.84010  Biso   1.000  O
  O59      1.0000 0.52440  0.83520  0.16820  Biso   1.000  O
  O60      1.0000 0.47560  0.16480  0.83180  Biso   1.000  O
  O61      1.0000 0.51870  0.68380  0.07700  Biso   1.000  O
  O62      1.0000 0.48130  0.31620  0.92300  Biso   1.000  O
  O63      1.0000 0.47120  0.77880  0.98920  Biso   1.000  O
  O64      1.0000 0.52880  0.22120  0.01080  Biso   1.000  O
  O65      1.0000 0.78360  0.62520  0.28350  Biso   1.000  O
  O66      1.0000 0.21640  0.37480  0.71650  Biso   1.000  O
  O67      1.0000 0.66380  0.68130  0.22930  Biso   1.000  O
  O68      1.0000 0.33620  0.31870  0.77070  Biso   1.000  O
  O69      1.0000 0.21160  0.05860  0.32650  Biso   1.000  O
  O70      1.0000 0.78840  0.94140  0.67350  Biso   1.000  O
  O71      1.0000 0.07540  0.04580  0.32530  Biso   1.000  O
  O72      1.0000 0.92460  0.95420  0.67470  Biso   1.000  O
  O73      1.0000 0.84180  0.23440  0.58850  Biso   1.000  O
  O74      1.0000 0.15820  0.76560  0.41150  Biso   1.000  O
  O75      1.0000 0.88520  0.13300  0.48360  Biso   1.000  O
  O76      1.0000 0.11480  0.86700  0.51640  Biso   1.000  O
  O77      1.0000 0.17750  0.94800  0.92330  Biso   1.000  O
  O78      1.0000 0.82250  0.05200  0.07670  Biso   1.000  O
  O79      1.0000 0.70760  0.01700  0.05270  Biso   1.000  O
  O80      1.0000 0.29240  0.98300  0.94730  Biso   1.000  O
  O81      1.0000 0.09330  0.75470  0.05640  Biso   1.000  O
  O82      1.0000 0.90670  0.24530  0.94360  Biso   1.000  O
  O83      1.0000 0.00680  0.88260  0.01520  Biso   1.000  O
  O84      1.0000 0.99320  0.11740  0.98480  Biso   1.000  O
  O85      1.0000 0.74050  0.04740  0.29590  Biso   1.000  O
  O86      1.0000 0.25950  0.95260  0.70410  Biso   1.000  O
  O87      1.0000 0.84990  0.05100  0.35260  Biso   1.000  O
  O88      1.0000 0.15010  0.94900  0.64740  Biso   1.000  O
  O89      1.0000 0.42150  0.01750  0.33690  Biso   1.000  O
  O90      1.0000 0.57850  0.98250  0.66310  Biso   1.000  O
  O91      1.0000 0.48830  0.11450  0.31600  Biso   1.000  O
  O92      1.0000 0.51170  0.88550  0.68400  Biso   1.000  O
  O93      1.0000 0.51180  0.24780  0.52160  Biso   1.000  O
  O94      1.0000 0.48820  0.75220  0.47840  Biso   1.000  O
  O95      1.0000 0.49110  0.28430  0.40240  Biso   1.000  O
  O96      1.0000 0.50890  0.71570  0.59760  Biso   1.000  O
  O97      1.0000 0.61530  0.41290  0.29000  Biso   1.000  O
  O98      1.0000 0.38470  0.58710  0.71000  Biso   1.000  O
  O99      1.0000 0.66140  0.42560  0.39850  Biso   1.000  O
  O100     1.0000 0.33860  0.57440  0.60150  Biso   1.000  O
  O101     1.0000 0.52170  0.61850  0.23120  Biso   1.000  O
  O102     1.0000 0.47830  0.38150  0.76880  Biso   1.000  O
  O103     1.0000 0.40730  0.75550  0.27460  Biso   1.000  O
  O104     1.0000 0.59270  0.24450  0.72540  Biso   1.000  O
  O105     1.0000 0.34700  0.27190  0.25670  Biso   1.000  O
  O106     1.0000 0.65300  0.72810  0.74330  Biso   1.000  O
  O107     1.0000 0.21750  0.33020  0.21070  Biso   1.000  O
  O108     1.0000 0.78250  0.66980  0.78930  Biso   1.000  O
  N1       1.0000 0.58860  0.40360  0.12740  Biso   1.000  N
  N2       1.0000 0.41140  0.59640  0.87260  Biso   1.000  N
  N3       1.0000 0.73700  0.53020  0.11740  Biso   1.000  N
  N4       1.0000 0.26300  0.46980  0.88260  Biso   1.000  N
  N5       1.0000 0.68640  0.70800  0.05790  Biso   1.000  N
  N6       1.0000 0.31360  0.29200  0.94210  Biso   1.000  N
  N7       1.0000 0.96010  0.22140  0.37570  Biso   1.000  N
  N8       1.0000 0.03990  0.77860  0.62430  Biso   1.000  N
  N9       1.0000 0.89220  0.16720  0.25850  Biso   1.000  N
  N10      1.0000 0.10780  0.83280  0.74150  Biso   1.000  N
  N11      1.0000 0.07380  0.97990  0.08600  Biso   1.000  N
  N12      1.0000 0.92620  0.02010  0.91400  Biso   1.000  N
  N13      1.0000 0.33380  0.24560  0.42600  Biso   1.000  N
  N14      1.0000 0.66620  0.75440  0.57400  Biso   1.000  N
  N15      1.0000 0.28370  0.42250  0.36610  Biso   1.000  N
  N16      1.0000 0.71630  0.57750  0.63390  Biso   1.000  N
  N17      1.0000 0.43820  0.54500  0.35080  Biso   1.000  N
  N18      1.0000 0.56180  0.45500  0.64920  Biso   1.000  N
  C1       1.0000 0.41610  0.48230  0.12800  Biso   1.000  C
  C2       1.0000 0.58390  0.51770  0.87200  Biso   1.000  C
  C3       1.0000 0.51430  0.41010  0.08650  Biso   1.000  C
  C4       1.0000 0.48570  0.58990  0.91350  Biso   1.000  C
  C5       1.0000 0.58340  0.27270  0.19910  Biso   1.000  C
  C6       1.0000 0.41660  0.72730  0.80090  Biso   1.000  C
  C7       1.0000 0.64380  0.30790  0.13630  Biso   1.000  C
  C8       1.0000 0.35620  0.69210  0.86370  Biso   1.000  C
  C9       1.0000 0.65470  0.44130  0.07660  Biso   1.000  C
  C10      1.0000 0.34530  0.55870  0.92340  Biso   1.000  C
  C11      1.0000 0.73050  0.44340  0.11530  Biso   1.000  C
  C12      1.0000 0.26950  0.55660  0.88470  Biso   1.000  C
  C13      1.0000 0.78350  0.54280  0.03470  Biso   1.000  C
  C14      1.0000 0.21650  0.45720  0.96530  Biso   1.000  C
  C15      1.0000 0.78600  0.63500  0.02930  Biso   1.000  C
  C16      1.0000 0.21400  0.36500  0.97070  Biso   1.000  C
  C17      1.0000 0.69070  0.78950  0.08770  Biso   1.000  C
  C18      1.0000 0.30930  0.21050  0.91230  Biso   1.000  C
  C19      1.0000 0.59300  0.85800  0.14260  Biso   1.000  C
  C20      1.0000 0.40700  0.14200  0.85740  Biso   1.000  C
  C21      1.0000 0.63780  0.72730  0.99320  Biso   1.000  C
  C22      1.0000 0.36220  0.27270  0.00680  Biso   1.000  C
  C23      1.0000 0.53540  0.73110  0.02170  Biso   1.000  C
  C24      1.0000 0.46460  0.26890  0.97830  Biso   1.000  C
  C25      1.0000 0.79010  0.53360  0.17640  Biso   1.000  C
  C26      1.0000 0.20990  0.46640  0.82360  Biso   1.000  C
  C27      1.0000 0.74280  0.61930  0.23460  Biso   1.000  C
  C28      1.0000 0.25720  0.38070  0.76540  Biso   1.000  C
  C29      1.0000 0.87150  0.20930  0.51290  Biso   1.000  C
  C30      1.0000 0.12850  0.79070  0.48710  Biso   1.000  C
  C31      1.0000 0.88980  0.27450  0.45470  Biso   1.000  C
  C32      1.0000 0.11020  0.72550  0.54530  Biso   1.000  C
  C33      1.0000 0.12160  0.08860  0.34000  Biso   1.000  C
  C34      1.0000 0.87840  0.91140  0.66000  Biso   1.000  C
  C35      1.0000 0.06250  0.18400  0.38090  Biso   1.000  C
  C36      1.0000 0.93750  0.81600  0.61910  Biso   1.000  C
  C37      1.0000 0.95170  0.26990  0.30410  Biso   1.000  C
  C38      1.0000 0.04830  0.73010  0.69590  Biso   1.000  C
  C39      1.0000 0.87530  0.26280  0.27010  Biso   1.000  C
  C40      1.0000 0.12470  0.73720  0.72990  Biso   1.000  C
  C41      1.0000 0.97230  0.12240  0.17980  Biso   1.000  C
  C42      1.0000 0.02770  0.87760  0.82020  Biso   1.000  C
  C43      1.0000 0.00730  0.02270  0.16940  Biso   1.000  C
  C44      1.0000 0.99270  0.97730  0.83060  Biso   1.000  C
  C45      1.0000 0.15250  0.01070  0.05890  Biso   1.000  C
  C46      1.0000 0.84750  0.98930  0.94110  Biso   1.000  C
  C47      1.0000 0.78930  0.02580  0.03110  Biso   1.000  C
  C48      1.0000 0.21070  0.97420  0.96890  Biso   1.000  C
  C49      1.0000 0.11730  0.88090  0.08750  Biso   1.000  C
  C50      1.0000 0.88270  0.11910  0.91250  Biso   1.000  C
  C51      1.0000 0.06990  0.83590  0.05140  Biso   1.000  C
  C52      1.0000 0.93010  0.16410  0.94860  Biso   1.000  C
  C53      1.0000 0.80500  0.11550  0.25830  Biso   1.000  C
  C54      1.0000 0.19500  0.88450  0.74170  Biso   1.000  C
  C55      1.0000 0.79750  0.08010  0.30420  Biso   1.000  C
  C56      1.0000 0.20250  0.91990  0.69580  Biso   1.000  C
  C57      1.0000 0.46880  0.25580  0.46950  Biso   1.000  C
  C58      1.0000 0.53120  0.74420  0.53050  Biso   1.000  C
  C59      1.0000 0.38630  0.22980  0.49070  Biso   1.000  C
  C60      1.0000 0.61370  0.77020  0.50930  Biso   1.000  C
  C61      1.0000 0.41980  0.09250  0.34820  Biso   1.000  C
  C62      1.0000 0.58020  0.90750  0.65180  Biso   1.000  C
  C63      1.0000 0.32500  0.16400  0.40100  Biso   1.000  C
  C64      1.0000 0.67500  0.83600  0.59900  Biso   1.000  C
  C65      1.0000 0.23420  0.31940  0.45320  Biso   1.000  C
  C66      1.0000 0.76580  0.68060  0.54680  Biso   1.000  C
  C67      1.0000 0.23690  0.41040  0.45020  Biso   1.000  C
  C68      1.0000 0.76310  0.58960  0.54980  Biso   1.000  C
  C69      1.0000 0.29400  0.50760  0.36770  Biso   1.000  C
  C70      1.0000 0.70600  0.49240  0.63230  Biso   1.000  C
  C71      1.0000 0.37140  0.50620  0.40410  Biso   1.000  C
  C72      1.0000 0.62860  0.49380  0.59590  Biso   1.000  C
  C73      1.0000 0.38000  0.64010  0.34440  Biso   1.000  C
  C74      1.0000 0.62000  0.35990  0.65560  Biso   1.000  C
  C75      1.0000 0.44080  0.67430  0.27810  Biso   1.000  C
  C76      1.0000 0.55920  0.32570  0.72190  Biso   1.000  C
  C77      1.0000 0.51380  0.53650  0.38850  Biso   1.000  C
  C78      1.0000 0.48620  0.46350  0.61150  Biso   1.000  C
  C79      1.0000 0.60390  0.45170  0.35730  Biso   1.000  C
  C80      1.0000 0.39610  0.54830  0.64270  Biso   1.000  C
  C81      1.0000 0.22770  0.42280  0.30930  Biso   1.000  C
  C82      1.0000 0.77230  0.57720  0.69070  Biso   1.000  C
  C83      1.0000 0.26650  0.33560  0.25620  Biso   1.000  C
  C84      1.0000 0.73350  0.66440  0.74380  Biso   1.000  C
