data_image0
_cell_length_a       8.0499
_cell_length_b       9.2028
_cell_length_c       9.2204
_cell_angle_alpha    109.562
_cell_angle_beta     107.257
_cell_angle_gamma    105.077

_symmetry_space_group_name_H-M    "P 1"
_symmetry_int_tables_number       1

loop_
  _symmetry_equiv_pos_as_xyz
  'x, y, z'

loop_
  _atom_site_label
  _atom_site_occupancy
  _atom_site_fract_x
  _atom_site_fract_y
  _atom_site_fract_z
  _atom_site_thermal_displace_type
  _atom_site_B_iso_or_equiv
  _atom_site_type_symbol
  Cu1      1.0000 0.50000  0.00000  0.00000  Biso   1.000  Cu
  N1       1.0000 0.39380  0.17410  0.02440  Biso   1.000  N
  N2       1.0000 0.60620  0.82590  0.97560  Biso   1.000  N
  N3       1.0000 0.27700  0.87120  0.04080  Biso   1.000  N
  N4       1.0000 0.72300  0.12880  0.95920  Biso   1.000  N
  C1       1.0000 0.34250  0.28040  0.03080  Biso   1.000  C
  C2       1.0000 0.65750  0.71960  0.96920  Biso   1.000  C
  C3       1.0000 0.26890  0.71530  0.04120  Biso   1.000  C
  C4       1.0000 0.73110  0.28470  0.95880  Biso   1.000  C
  C5       1.0000 0.37740  0.71560  0.19160  Biso   1.000  C
  C6       1.0000 0.62260  0.28440  0.80840  Biso   1.000  C
  H1       1.0000 0.43990  0.81440  0.29260  Biso   1.000  H
  H2       1.0000 0.56010  0.18560  0.70740  Biso   1.000  H
  C7       1.0000 0.39100  0.56950  0.18910  Biso   1.000  C
  C8       1.0000 0.60900  0.43050  0.81090  Biso   1.000  C
  H3       1.0000 0.46230  0.56890  0.28860  Biso   1.000  H
  H4       1.0000 0.53770  0.43110  0.71140  Biso   1.000  H
  C9       1.0000 0.29800  0.42200  0.03720  Biso   1.000  C
  C10      1.0000 0.70200  0.57800  0.96280  Biso   1.000  C
  C11      1.0000 0.18130  0.41900  0.88860  Biso   1.000  C
  C12      1.0000 0.81870  0.58100  0.11140  Biso   1.000  C
  H5       1.0000 0.11480  0.31920  0.78850  Biso   1.000  H
  H6       1.0000 0.88520  0.68080  0.21150  Biso   1.000  H
  C13      1.0000 0.16640  0.56660  0.89280  Biso   1.000  C
  C14      1.0000 0.83360  0.43340  0.10720  Biso   1.000  C
  H7       1.0000 0.08720  0.56590  0.79560  Biso   1.000  H
  H8       1.0000 0.91280  0.43410  0.20440  Biso   1.000  H
  C15      1.0000 0.73240  0.27990  0.42770  Biso   1.000  C
  C16      1.0000 0.26760  0.72010  0.57230  Biso   1.000  C
  H9       1.0000 0.86570  0.34740  0.47490  Biso   1.000  H
  H10      1.0000 0.13430  0.65260  0.52510  Biso   1.000  H
  H11      1.0000 0.70150  0.25770  0.51310  Biso   1.000  H
  H12      1.0000 0.29850  0.74230  0.48690  Biso   1.000  H
  H13      1.0000 0.66140  0.33890  0.38870  Biso   1.000  H
  H14      1.0000 0.33860  0.66110  0.61130  Biso   1.000  H
  O1       1.0000 0.68690  0.12780  0.29140  Biso   1.000  O
  O2       1.0000 0.31310  0.87220  0.70860  Biso   1.000  O
  H15      1.0000 0.16600  0.84500  0.95200  Biso   1.000  H
  H16      1.0000 0.83400  0.15500  0.04800  Biso   1.000  H
  H17      1.0000 0.29400  0.93900  0.14300  Biso   1.000  H
  H18      1.0000 0.70600  0.06100  0.85700  Biso   1.000  H
  H19      1.0000 0.74900  0.09300  0.30900  Biso   1.000  H
  H20      1.0000 0.25100  0.90700  0.69100  Biso   1.000  H
  Cl1      1.0000 0.15986  0.16017  0.35866  Biso   1.000  Cl
  Cl2      1.0000 0.84014  0.83983  0.64134  Biso   1.000  Cl
  O3       1.0000 0.30200  0.09580  0.38260  Biso   1.000  O
  O4       1.0000 0.69800  0.90420  0.61740  Biso   1.000  O
  O5       1.0000 0.08890  0.16300  0.20820  Biso   1.000  O
  O6       1.0000 0.91110  0.83700  0.79180  Biso   1.000  O
  O7       1.0000 0.00410  0.03970  0.25200  Biso   1.000  O
  O8       1.0000 0.99590  0.96030  0.74800  Biso   1.000  O
  O9       1.0000 0.12520  0.21700  0.48940  Biso   1.000  O
  O10      1.0000 0.87480  0.78300  0.51060  Biso   1.000  O
  O11      1.0000 0.26500  0.32910  0.40000  Biso   1.000  O
  O12      1.0000 0.73500  0.67090  0.60000  Biso   1.000  O
