data_image0
_cell_length_a       11.096
_cell_length_b       10.255
_cell_length_c       15.695
_cell_angle_alpha    90
_cell_angle_beta     100.179
_cell_angle_gamma    90

_symmetry_space_group_name_H-M    "P 1"
_symmetry_int_tables_number       1

loop_
  _symmetry_equiv_pos_as_xyz
  'x, y, z'

loop_
  _atom_site_label
  _atom_site_occupancy
  _atom_site_fract_x
  _atom_site_fract_y
  _atom_site_fract_z
  _atom_site_thermal_displace_type
  _atom_site_B_iso_or_equiv
  _atom_site_type_symbol
  Cu1      1.0000 0.75537  0.76776  0.68903  Biso   1.000  Cu
  Cu2      1.0000 0.74463  0.26776  0.81097  Biso   1.000  Cu
  Cu3      1.0000 0.24463  0.23224  0.31097  Biso   1.000  Cu
  Cu4      1.0000 0.25537  0.73224  0.18903  Biso   1.000  Cu
  O1       1.0000 0.73550  0.90030  0.56470  Biso   1.000  O
  O2       1.0000 0.76450  0.40030  0.93530  Biso   1.000  O
  O3       1.0000 0.26450  0.09970  0.43530  Biso   1.000  O
  O4       1.0000 0.23550  0.59970  0.06470  Biso   1.000  O
  O5       1.0000 0.75900  0.87440  0.42660  Biso   1.000  O
  O6       1.0000 0.74100  0.37440  0.07340  Biso   1.000  O
  O7       1.0000 0.24100  0.12560  0.57340  Biso   1.000  O
  O8       1.0000 0.25900  0.62560  0.92660  Biso   1.000  O
  O9       1.0000 0.75220  0.54420  0.74390  Biso   1.000  O
  O10      1.0000 0.74780  0.04420  0.75610  Biso   1.000  O
  O11      1.0000 0.24780  0.45580  0.25610  Biso   1.000  O
  O12      1.0000 0.25220  0.95580  0.24390  Biso   1.000  O
  O13      1.0000 0.70480  0.34340  0.69330  Biso   1.000  O
  O14      1.0000 0.79520  0.84340  0.80670  Biso   1.000  O
  O15      1.0000 0.29520  0.65660  0.30670  Biso   1.000  O
  O16      1.0000 0.20480  0.15660  0.19330  Biso   1.000  O
  N1       1.0000 0.71900  0.64300  0.58380  Biso   1.000  N
  N2       1.0000 0.78100  0.14300  0.91620  Biso   1.000  N
  N3       1.0000 0.28100  0.35700  0.41620  Biso   1.000  N
  N4       1.0000 0.21900  0.85700  0.08380  Biso   1.000  N
  N5       1.0000 0.64620  0.48750  0.44020  Biso   1.000  N
  N6       1.0000 0.85380  0.98750  0.05980  Biso   1.000  N
  N7       1.0000 0.35380  0.51250  0.55980  Biso   1.000  N
  N8       1.0000 0.14620  0.01250  0.94020  Biso   1.000  N
  N9       1.0000 0.93770  0.76500  0.68950  Biso   1.000  N
  N10      1.0000 0.56230  0.26500  0.81050  Biso   1.000  N
  N11      1.0000 0.06230  0.23500  0.31050  Biso   1.000  N
  N12      1.0000 0.43770  0.73500  0.18950  Biso   1.000  N
  N13      1.0000 0.57570  0.77870  0.69460  Biso   1.000  N
  N14      1.0000 0.92430  0.27870  0.80540  Biso   1.000  N
  N15      1.0000 0.42430  0.22130  0.30540  Biso   1.000  N
  N16      1.0000 0.07570  0.72130  0.19460  Biso   1.000  N
  C1       1.0000 0.73650  0.83610  0.49700  Biso   1.000  C
  C2       1.0000 0.76350  0.33610  0.00300  Biso   1.000  C
  C3       1.0000 0.26350  0.16390  0.50300  Biso   1.000  C
  C4       1.0000 0.23650  0.66390  0.99700  Biso   1.000  C
  C5       1.0000 0.70730  0.69230  0.50350  Biso   1.000  C
  C6       1.0000 0.79270  0.19230  0.99650  Biso   1.000  C
  C7       1.0000 0.29270  0.30770  0.49650  Biso   1.000  C
  C8       1.0000 0.20730  0.80770  0.00350  Biso   1.000  C
  C9       1.0000 0.67100  0.61410  0.43310  Biso   1.000  C
  C10      1.0000 0.82900  0.11410  0.06690  Biso   1.000  C
  C11      1.0000 0.32900  0.38590  0.56690  Biso   1.000  C
  C12      1.0000 0.17100  0.88590  0.93310  Biso   1.000  C
  H1       1.0000 0.66330  0.65040  0.37810  Biso   1.000  H
  H2       1.0000 0.83670  0.15040  0.12190  Biso   1.000  H
  H3       1.0000 0.33670  0.34960  0.62190  Biso   1.000  H
  H4       1.0000 0.16330  0.84960  0.87810  Biso   1.000  H
  C13      1.0000 0.66230  0.43940  0.52010  Biso   1.000  C
  C14      1.0000 0.83770  0.93940  0.97990  Biso   1.000  C
  C15      1.0000 0.33770  0.56060  0.47990  Biso   1.000  C
  C16      1.0000 0.16230  0.06060  0.02010  Biso   1.000  C
  H5       1.0000 0.64850  0.35100  0.52730  Biso   1.000  H
  H6       1.0000 0.85150  0.85100  0.97270  Biso   1.000  H
  H7       1.0000 0.35150  0.64900  0.47270  Biso   1.000  H
  H8       1.0000 0.14850  0.14900  0.02730  Biso   1.000  H
  C17      1.0000 0.69900  0.51550  0.59350  Biso   1.000  C
  C18      1.0000 0.80100  0.01550  0.90650  Biso   1.000  C
  C19      1.0000 0.30100  0.48450  0.40650  Biso   1.000  C
  C20      1.0000 0.19900  0.98450  0.09350  Biso   1.000  C
  C21      1.0000 0.72010  0.46530  0.68510  Biso   1.000  C
  C22      1.0000 0.77990  0.96530  0.81490  Biso   1.000  C
  C23      1.0000 0.27990  0.53470  0.31490  Biso   1.000  C
  C24      1.0000 0.22010  0.03470  0.18510  Biso   1.000  C
  C25      1.0000 0.01010  0.66850  0.72480  Biso   1.000  C
  C26      1.0000 0.48990  0.16850  0.77520  Biso   1.000  C
  C27      1.0000 0.98990  0.33150  0.27520  Biso   1.000  C
  C28      1.0000 0.51010  0.83150  0.22480  Biso   1.000  C
  H9       1.0000 0.97470  0.59780  0.74800  Biso   1.000  H
  H10      1.0000 0.52530  0.09780  0.75200  Biso   1.000  H
  H11      1.0000 0.02530  0.40220  0.25200  Biso   1.000  H
  H12      1.0000 0.47470  0.90220  0.24800  Biso   1.000  H
  C29      1.0000 0.13460  0.66860  0.72830  Biso   1.000  C
  C30      1.0000 0.36540  0.16860  0.77170  Biso   1.000  C
  C31      1.0000 0.86540  0.33140  0.27170  Biso   1.000  C
  C32      1.0000 0.63460  0.83140  0.22830  Biso   1.000  C
  H13      1.0000 0.18140  0.59850  0.75300  Biso   1.000  H
  H14      1.0000 0.31860  0.09850  0.74700  Biso   1.000  H
  H15      1.0000 0.81860  0.40150  0.24700  Biso   1.000  H
  H16      1.0000 0.68140  0.90150  0.25300  Biso   1.000  H
  C33      1.0000 0.19060  0.77300  0.69510  Biso   1.000  C
  C34      1.0000 0.30940  0.27300  0.80490  Biso   1.000  C
  C35      1.0000 0.80940  0.22700  0.30490  Biso   1.000  C
  C36      1.0000 0.69060  0.72700  0.19510  Biso   1.000  C
  C37      1.0000 0.11610  0.87170  0.65820  Biso   1.000  C
  C38      1.0000 0.38390  0.37170  0.84180  Biso   1.000  C
  C39      1.0000 0.88390  0.12830  0.34180  Biso   1.000  C
  C40      1.0000 0.61610  0.62830  0.15820  Biso   1.000  C
  H17      1.0000 0.14930  0.94260  0.63350  Biso   1.000  H
  H18      1.0000 0.35070  0.44260  0.86650  Biso   1.000  H
  H19      1.0000 0.85070  0.05740  0.36650  Biso   1.000  H
  H20      1.0000 0.64930  0.55740  0.13350  Biso   1.000  H
  C41      1.0000 0.99190  0.86590  0.65760  Biso   1.000  C
  C42      1.0000 0.50810  0.36590  0.84240  Biso   1.000  C
  C43      1.0000 0.00810  0.13410  0.34240  Biso   1.000  C
  C44      1.0000 0.49190  0.63410  0.15760  Biso   1.000  C
  H21      1.0000 0.94340  0.93530  0.63380  Biso   1.000  H
  H22      1.0000 0.55660  0.43530  0.86620  Biso   1.000  H
  H23      1.0000 0.05660  0.06470  0.36620  Biso   1.000  H
  H24      1.0000 0.44340  0.56470  0.13380  Biso   1.000  H
  C45      1.0000 0.32460  0.77800  0.69670  Biso   1.000  C
  C46      1.0000 0.17540  0.27800  0.80330  Biso   1.000  C
  C47      1.0000 0.67540  0.22200  0.30330  Biso   1.000  C
  C48      1.0000 0.82460  0.72200  0.19670  Biso   1.000  C
  C49      1.0000 0.40830  0.72380  0.76430  Biso   1.000  C
  C50      1.0000 0.09170  0.22380  0.73570  Biso   1.000  C
  C51      1.0000 0.59170  0.27620  0.23570  Biso   1.000  C
  C52      1.0000 0.90830  0.77620  0.26430  Biso   1.000  C
  H25      1.0000 0.38140  0.68660  0.81160  Biso   1.000  H
  H26      1.0000 0.11860  0.18660  0.68840  Biso   1.000  H
  H27      1.0000 0.61860  0.31340  0.18840  Biso   1.000  H
  H28      1.0000 0.88140  0.81340  0.31160  Biso   1.000  H
  C53      1.0000 0.53160  0.72610  0.76000  Biso   1.000  C
  C54      1.0000 0.96840  0.22610  0.74000  Biso   1.000  C
  C55      1.0000 0.46840  0.27390  0.24000  Biso   1.000  C
  C56      1.0000 0.03160  0.77390  0.26000  Biso   1.000  C
  H29      1.0000 0.58640  0.68890  0.80520  Biso   1.000  H
  H30      1.0000 0.91360  0.18890  0.69480  Biso   1.000  H
  H31      1.0000 0.41360  0.31110  0.19480  Biso   1.000  H
  H32      1.0000 0.08640  0.81110  0.30520  Biso   1.000  H
  C57      1.0000 0.49500  0.83340  0.63060  Biso   1.000  C
  C58      1.0000 0.00500  0.33340  0.86940  Biso   1.000  C
  C59      1.0000 0.50500  0.16660  0.36940  Biso   1.000  C
  C60      1.0000 0.99500  0.66660  0.13060  Biso   1.000  C
  H33      1.0000 0.52460  0.87130  0.58450  Biso   1.000  H
  H34      1.0000 0.97540  0.37130  0.91550  Biso   1.000  H
  H35      1.0000 0.47540  0.12870  0.41550  Biso   1.000  H
  H36      1.0000 0.02460  0.62870  0.08450  Biso   1.000  H
  C61      1.0000 0.37120  0.83640  0.62990  Biso   1.000  C
  C62      1.0000 0.12880  0.33640  0.87010  Biso   1.000  C
  C63      1.0000 0.62880  0.16360  0.37010  Biso   1.000  C
  C64      1.0000 0.87120  0.66360  0.12990  Biso   1.000  C
  H37      1.0000 0.31900  0.87710  0.58490  Biso   1.000  H
  H38      1.0000 0.18100  0.37710  0.91510  Biso   1.000  H
  H39      1.0000 0.68100  0.12290  0.41510  Biso   1.000  H
  H40      1.0000 0.81900  0.62290  0.08490  Biso   1.000  H
  O17      1.0000 0.89730  0.63490  0.92560  Biso   1.000  O
  O18      1.0000 0.60270  0.13490  0.57440  Biso   1.000  O
  O19      1.0000 0.10270  0.36510  0.07440  Biso   1.000  O
  O20      1.0000 0.39730  0.86510  0.42560  Biso   1.000  O
  H41      1.0000 0.88560  0.70320  0.88600  Biso   1.000  H
  H42      1.0000 0.61440  0.20320  0.61400  Biso   1.000  H
  H43      1.0000 0.11440  0.29680  0.11400  Biso   1.000  H
  H44      1.0000 0.38560  0.79680  0.38600  Biso   1.000  H
  H45      1.0000 0.83860  0.58660  0.93010  Biso   1.000  H
  H46      1.0000 0.66140  0.08660  0.56990  Biso   1.000  H
  H47      1.0000 0.16140  0.41340  0.06990  Biso   1.000  H
  H48      1.0000 0.33860  0.91340  0.43010  Biso   1.000  H
