data_image0
_cell_length_a       9.1739
_cell_length_b       17.5921
_cell_length_c       14.3676
_cell_angle_alpha    90
_cell_angle_beta     99.593
_cell_angle_gamma    90

_symmetry_space_group_name_H-M    "P 1"
_symmetry_int_tables_number       1

loop_
  _symmetry_equiv_pos_as_xyz
  'x, y, z'

loop_
  _atom_site_label
  _atom_site_occupancy
  _atom_site_fract_x
  _atom_site_fract_y
  _atom_site_fract_z
  _atom_site_thermal_displace_type
  _atom_site_B_iso_or_equiv
  _atom_site_type_symbol
  Cu1      1.0000 0.55332  0.54525  0.58873  Biso   1.000  Cu
  Cu2      1.0000 0.94668  0.04525  0.91127  Biso   1.000  Cu
  Cu3      1.0000 0.44668  0.45475  0.41127  Biso   1.000  Cu
  Cu4      1.0000 0.05332  0.95475  0.08873  Biso   1.000  Cu
  Cu5      1.0000 0.50000  0.50000  0.00000  Biso   1.000  Cu
  Cu6      1.0000 0.00000  0.00000  0.50000  Biso   1.000  Cu
  F1       1.0000 0.01590  0.28480  0.73810  Biso   1.000  F
  F2       1.0000 0.48410  0.78480  0.76190  Biso   1.000  F
  F3       1.0000 0.98410  0.71520  0.26190  Biso   1.000  F
  F4       1.0000 0.51590  0.21520  0.23810  Biso   1.000  F
  F5       1.0000 0.50220  0.23662  0.70209  Biso   1.000  F
  F6       1.0000 0.99780  0.73662  0.79791  Biso   1.000  F
  F7       1.0000 0.49780  0.76338  0.29791  Biso   1.000  F
  F8       1.0000 0.00220  0.26338  0.20209  Biso   1.000  F
  O1       1.0000 0.50330  0.44217  0.54650  Biso   1.000  O
  O2       1.0000 0.99670  0.94217  0.95350  Biso   1.000  O
  O3       1.0000 0.49670  0.55783  0.45350  Biso   1.000  O
  O4       1.0000 0.00330  0.05783  0.04650  Biso   1.000  O
  O5       1.0000 0.40110  0.37263  0.99730  Biso   1.000  O
  O6       1.0000 0.09890  0.87263  0.50270  Biso   1.000  O
  O7       1.0000 0.59890  0.62737  0.00270  Biso   1.000  O
  O8       1.0000 0.90110  0.12737  0.49730  Biso   1.000  O
  H1       1.0000 0.30180  0.37540  0.98760  Biso   1.000  H
  H2       1.0000 0.19820  0.87540  0.51240  Biso   1.000  H
  H3       1.0000 0.69820  0.62460  0.01240  Biso   1.000  H
  H4       1.0000 0.80180  0.12460  0.48760  Biso   1.000  H
  N1       1.0000 0.62300  0.43958  0.74727  Biso   1.000  N
  N2       1.0000 0.87700  0.93958  0.75273  Biso   1.000  N
  N3       1.0000 0.37700  0.56042  0.25273  Biso   1.000  N
  N4       1.0000 0.12300  0.06042  0.24727  Biso   1.000  N
  N5       1.0000 0.57720  0.51154  0.72266  Biso   1.000  N
  N6       1.0000 0.92280  0.01154  0.77734  Biso   1.000  N
  N7       1.0000 0.42280  0.48846  0.27734  Biso   1.000  N
  N8       1.0000 0.07720  0.98846  0.22266  Biso   1.000  N
  N9       1.0000 0.55230  0.48841  0.87091  Biso   1.000  N
  N10      1.0000 0.94770  0.98841  0.62909  Biso   1.000  N
  N11      1.0000 0.44770  0.51159  0.12909  Biso   1.000  N
  N12      1.0000 0.05230  0.01159  0.37091  Biso   1.000  N
  N13      1.0000 0.46310  0.29276  0.45681  Biso   1.000  N
  N14      1.0000 0.03690  0.79276  0.04319  Biso   1.000  N
  N15      1.0000 0.53690  0.70724  0.54319  Biso   1.000  N
  N16      1.0000 0.96310  0.20724  0.95681  Biso   1.000  N
  N17      1.0000 0.39760  0.34555  0.39415  Biso   1.000  N
  N18      1.0000 0.10240  0.84555  0.10585  Biso   1.000  N
  N19      1.0000 0.60240  0.65445  0.60585  Biso   1.000  N
  N20      1.0000 0.89760  0.15445  0.89415  Biso   1.000  N
  N21      1.0000 0.28380  0.23376  0.36570  Biso   1.000  N
  N22      1.0000 0.21620  0.73376  0.13430  Biso   1.000  N
  N23      1.0000 0.71620  0.76624  0.63430  Biso   1.000  N
  N24      1.0000 0.78380  0.26624  0.86570  Biso   1.000  N
  N25      1.0000 0.82450  0.52620  0.59950  Biso   1.000  N
  N26      1.0000 0.67550  0.02620  0.90050  Biso   1.000  N
  N27      1.0000 0.17550  0.47380  0.40050  Biso   1.000  N
  N28      1.0000 0.32450  0.97380  0.09950  Biso   1.000  N
  N29      1.0000 0.03410  0.60940  0.59060  Biso   1.000  N
  N30      1.0000 0.46590  0.10940  0.90940  Biso   1.000  N
  N31      1.0000 0.96590  0.39060  0.40940  Biso   1.000  N
  N32      1.0000 0.53410  0.89060  0.09060  Biso   1.000  N
  N33      1.0000 0.29310  0.59350  0.63050  Biso   1.000  N
  N34      1.0000 0.20690  0.09350  0.86950  Biso   1.000  N
  N35      1.0000 0.70690  0.40650  0.36950  Biso   1.000  N
  N36      1.0000 0.79310  0.90650  0.13050  Biso   1.000  N
  N37      1.0000 0.69720  0.46280  0.05840  Biso   1.000  N
  N38      1.0000 0.80280  0.96280  0.44160  Biso   1.000  N
  N39      1.0000 0.30280  0.53720  0.94160  Biso   1.000  N
  N40      1.0000 0.19720  0.03720  0.55840  Biso   1.000  N
  N41      1.0000 0.95350  0.46440  0.13460  Biso   1.000  N
  N42      1.0000 0.54650  0.96440  0.36540  Biso   1.000  N
  N43      1.0000 0.04650  0.53560  0.86540  Biso   1.000  N
  N44      1.0000 0.45350  0.03560  0.63460  Biso   1.000  N
  N45      1.0000 0.15570  0.38900  0.09220  Biso   1.000  N
  N46      1.0000 0.34430  0.88900  0.40780  Biso   1.000  N
  N47      1.0000 0.84430  0.61100  0.90780  Biso   1.000  N
  N48      1.0000 0.65570  0.11100  0.59220  Biso   1.000  N
  C1       1.0000 0.39120  0.34960  0.63635  Biso   1.000  C
  C2       1.0000 0.10880  0.84960  0.86365  Biso   1.000  C
  C3       1.0000 0.60880  0.65040  0.36365  Biso   1.000  C
  C4       1.0000 0.89120  0.15040  0.13635  Biso   1.000  C
  C5       1.0000 0.38300  0.28282  0.68640  Biso   1.000  C
  C6       1.0000 0.11700  0.78282  0.81360  Biso   1.000  C
  C7       1.0000 0.61700  0.71718  0.31360  Biso   1.000  C
  C8       1.0000 0.88300  0.21718  0.18640  Biso   1.000  C
  C9       1.0000 0.25920  0.26020  0.72110  Biso   1.000  C
  C10      1.0000 0.24080  0.76020  0.77890  Biso   1.000  C
  C11      1.0000 0.74080  0.73980  0.27890  Biso   1.000  C
  C12      1.0000 0.75920  0.23980  0.22110  Biso   1.000  C
  H5       1.0000 0.25710  0.21480  0.75390  Biso   1.000  H
  H6       1.0000 0.24290  0.71480  0.74610  Biso   1.000  H
  H7       1.0000 0.74290  0.78520  0.24610  Biso   1.000  H
  H8       1.0000 0.75710  0.28520  0.25390  Biso   1.000  H
  C13      1.0000 0.14240  0.30600  0.70590  Biso   1.000  C
  C14      1.0000 0.35760  0.80600  0.79410  Biso   1.000  C
  C15      1.0000 0.85760  0.69400  0.29410  Biso   1.000  C
  C16      1.0000 0.64240  0.19400  0.20590  Biso   1.000  C
  C17      1.0000 0.14030  0.37330  0.65940  Biso   1.000  C
  C18      1.0000 0.35970  0.87330  0.84060  Biso   1.000  C
  C19      1.0000 0.85970  0.62670  0.34060  Biso   1.000  C
  C20      1.0000 0.64030  0.12670  0.15940  Biso   1.000  C
  H9       1.0000 0.05710  0.40440  0.65150  Biso   1.000  H
  H10      1.0000 0.44290  0.90440  0.84850  Biso   1.000  H
  H11      1.0000 0.94290  0.59560  0.34850  Biso   1.000  H
  H12      1.0000 0.55710  0.09560  0.15150  Biso   1.000  H
  C21      1.0000 0.26670  0.39420  0.62410  Biso   1.000  C
  C22      1.0000 0.23330  0.89420  0.87590  Biso   1.000  C
  C23      1.0000 0.73330  0.60580  0.37590  Biso   1.000  C
  C24      1.0000 0.76670  0.10580  0.12410  Biso   1.000  C
  H13      1.0000 0.26700  0.43980  0.59130  Biso   1.000  H
  H14      1.0000 0.23300  0.93980  0.90870  Biso   1.000  H
  H15      1.0000 0.73300  0.56020  0.40870  Biso   1.000  H
  H16      1.0000 0.76700  0.06020  0.09130  Biso   1.000  H
  C25      1.0000 0.52950  0.37395  0.59787  Biso   1.000  C
  C26      1.0000 0.97050  0.87395  0.90213  Biso   1.000  C
  C27      1.0000 0.47050  0.62605  0.40213  Biso   1.000  C
  C28      1.0000 0.02950  0.12605  0.09787  Biso   1.000  C
  C29      1.0000 0.60640  0.42731  0.83539  Biso   1.000  C
  C30      1.0000 0.89360  0.92731  0.66461  Biso   1.000  C
  C31      1.0000 0.39360  0.57269  0.16461  Biso   1.000  C
  C32      1.0000 0.10640  0.07269  0.33539  Biso   1.000  C
  H17      1.0000 0.62950  0.38210  0.86800  Biso   1.000  H
  H18      1.0000 0.87050  0.88210  0.63200  Biso   1.000  H
  H19      1.0000 0.37050  0.61790  0.13200  Biso   1.000  H
  H20      1.0000 0.12950  0.11790  0.36800  Biso   1.000  H
  C33      1.0000 0.53480  0.53819  0.79920  Biso   1.000  C
  C34      1.0000 0.96520  0.03819  0.70080  Biso   1.000  C
  C35      1.0000 0.46520  0.46181  0.20080  Biso   1.000  C
  C36      1.0000 0.03480  0.96181  0.29920  Biso   1.000  C
  H21      1.0000 0.49640  0.58680  0.80340  Biso   1.000  H
  H22      1.0000 0.00360  0.08680  0.69660  Biso   1.000  H
  H23      1.0000 0.50360  0.41320  0.19660  Biso   1.000  H
  H24      1.0000 0.99640  0.91320  0.30340  Biso   1.000  H
  C37      1.0000 0.66170  0.38641  0.67806  Biso   1.000  C
  C38      1.0000 0.83830  0.88641  0.82194  Biso   1.000  C
  C39      1.0000 0.33830  0.61359  0.32194  Biso   1.000  C
  C40      1.0000 0.16170  0.11359  0.17806  Biso   1.000  C
  H25      1.0000 0.69060  0.33820  0.70850  Biso   1.000  H
  H26      1.0000 0.80940  0.83820  0.79150  Biso   1.000  H
  H27      1.0000 0.30940  0.66180  0.29150  Biso   1.000  H
  H28      1.0000 0.19060  0.16180  0.20850  Biso   1.000  H
  H29      1.0000 0.74510  0.40600  0.65200  Biso   1.000  H
  H30      1.0000 0.75490  0.90600  0.84800  Biso   1.000  H
  H31      1.0000 0.25490  0.59400  0.34800  Biso   1.000  H
  H32      1.0000 0.24510  0.09400  0.15200  Biso   1.000  H
  C41      1.0000 0.58120  0.31317  0.53330  Biso   1.000  C
  C42      1.0000 0.91880  0.81317  0.96670  Biso   1.000  C
  C43      1.0000 0.41880  0.68683  0.46670  Biso   1.000  C
  C44      1.0000 0.08120  0.18683  0.03330  Biso   1.000  C
  H33      1.0000 0.66490  0.33250  0.50720  Biso   1.000  H
  H34      1.0000 0.83510  0.83250  0.99280  Biso   1.000  H
  H35      1.0000 0.33510  0.66750  0.49280  Biso   1.000  H
  H36      1.0000 0.16490  0.16750  0.00720  Biso   1.000  H
  H37      1.0000 0.61330  0.26820  0.57020  Biso   1.000  H
  H38      1.0000 0.88670  0.76820  0.92980  Biso   1.000  H
  H39      1.0000 0.38670  0.73180  0.42980  Biso   1.000  H
  H40      1.0000 0.11330  0.23180  0.07020  Biso   1.000  H
  C45      1.0000 0.39250  0.22754  0.43750  Biso   1.000  C
  C46      1.0000 0.10750  0.72754  0.06250  Biso   1.000  C
  C47      1.0000 0.60750  0.77246  0.56250  Biso   1.000  C
  C48      1.0000 0.89250  0.27246  0.93750  Biso   1.000  C
  H41      1.0000 0.41690  0.18270  0.47080  Biso   1.000  H
  H42      1.0000 0.08310  0.68270  0.02920  Biso   1.000  H
  H43      1.0000 0.58310  0.81730  0.52920  Biso   1.000  H
  H44      1.0000 0.91690  0.31730  0.97080  Biso   1.000  H
  C49      1.0000 0.29160  0.30729  0.34120  Biso   1.000  C
  C50      1.0000 0.20840  0.80729  0.15880  Biso   1.000  C
  C51      1.0000 0.70840  0.69271  0.65880  Biso   1.000  C
  C52      1.0000 0.79160  0.19271  0.84120  Biso   1.000  C
  H45      1.0000 0.22770  0.32910  0.29130  Biso   1.000  H
  H46      1.0000 0.27230  0.82910  0.20870  Biso   1.000  H
  H47      1.0000 0.77230  0.67090  0.70870  Biso   1.000  H
  H48      1.0000 0.72770  0.17090  0.79130  Biso   1.000  H
  C53      1.0000 0.92910  0.55980  0.59920  Biso   1.000  C
  C54      1.0000 0.57090  0.05980  0.90080  Biso   1.000  C
  C55      1.0000 0.07090  0.44020  0.40080  Biso   1.000  C
  C56      1.0000 0.42910  0.94020  0.09920  Biso   1.000  C
  C57      1.0000 0.17170  0.59510  0.61610  Biso   1.000  C
  C58      1.0000 0.32830  0.09510  0.88390  Biso   1.000  C
  C59      1.0000 0.82830  0.40490  0.38390  Biso   1.000  C
  C60      1.0000 0.67170  0.90490  0.11610  Biso   1.000  C
  C61      1.0000 0.81860  0.46190  0.09090  Biso   1.000  C
  C62      1.0000 0.68140  0.96190  0.40910  Biso   1.000  C
  C63      1.0000 0.18140  0.53810  0.90910  Biso   1.000  C
  C64      1.0000 0.31860  0.03810  0.59090  Biso   1.000  C
  C65      1.0000 0.05790  0.42400  0.10750  Biso   1.000  C
  C66      1.0000 0.44210  0.92400  0.39250  Biso   1.000  C
  C67      1.0000 0.94210  0.57600  0.89250  Biso   1.000  C
  C68      1.0000 0.55790  0.07600  0.60750  Biso   1.000  C
  C69      1.0000 0.44500  0.29940  0.99680  Biso   1.000  C
  C70      1.0000 0.05500  0.79940  0.50320  Biso   1.000  C
  C71      1.0000 0.55500  0.70060  0.00320  Biso   1.000  C
  C72      1.0000 0.94500  0.20060  0.49680  Biso   1.000  C
  H49      1.0000 0.54790  0.29740  0.99130  Biso   1.000  H
  H50      1.0000 0.95210  0.79740  0.50870  Biso   1.000  H
  H51      1.0000 0.45210  0.70260  0.00870  Biso   1.000  H
  H52      1.0000 0.04790  0.20260  0.49130  Biso   1.000  H
  H53      1.0000 0.38790  0.27340  0.94420  Biso   1.000  H
  H54      1.0000 0.11210  0.77340  0.55580  Biso   1.000  H
  H55      1.0000 0.61210  0.72660  0.05580  Biso   1.000  H
  H56      1.0000 0.88790  0.22660  0.44420  Biso   1.000  H
  H57      1.0000 0.43050  0.27520  0.05450  Biso   1.000  H
  H58      1.0000 0.06950  0.77520  0.44550  Biso   1.000  H
  H59      1.0000 0.56950  0.72480  0.94550  Biso   1.000  H
  H60      1.0000 0.93050  0.22480  0.55450  Biso   1.000  H
