data_image0
_cell_length_a       7.0862
_cell_length_b       9.8582
_cell_length_c       12.1267
_cell_angle_alpha    71.132
_cell_angle_beta     83.785
_cell_angle_gamma    86.867

_symmetry_space_group_name_H-M    "P 1"
_symmetry_int_tables_number       1

loop_
  _symmetry_equiv_pos_as_xyz
  'x, y, z'

loop_
  _atom_site_label
  _atom_site_occupancy
  _atom_site_fract_x
  _atom_site_fract_y
  _atom_site_fract_z
  _atom_site_thermal_displace_type
  _atom_site_B_iso_or_equiv
  _atom_site_type_symbol
  Cu1      1.0000 0.41371  0.65390  0.24169  Biso   1.000  Cu
  Cu2      1.0000 0.58629  0.34610  0.75831  Biso   1.000  Cu
  Bi1      1.0000 0.30085  0.17903  0.36272  Biso   1.000  Bi
  Bi2      1.0000 0.69915  0.82097  0.63728  Biso   1.000  Bi
  Bi3      1.0000 0.31709  0.09505  0.05737  Biso   1.000  Bi
  Bi4      1.0000 0.68291  0.90495  0.94263  Biso   1.000  Bi
  Bi5      1.0000 0.71226  0.00808  0.23213  Biso   1.000  Bi
  Bi6      1.0000 0.28774  0.99192  0.76787  Biso   1.000  Bi
  C1       1.0000 0.95170  0.26230  0.19170  Biso   1.000  C
  C2       1.0000 0.04830  0.73770  0.80830  Biso   1.000  C
  C3       1.0000 0.01860  0.40530  0.18040  Biso   1.000  C
  C4       1.0000 0.98140  0.59470  0.81960  Biso   1.000  C
  C5       1.0000 0.93820  0.54060  0.13990  Biso   1.000  C
  C6       1.0000 0.06180  0.45940  0.86010  Biso   1.000  C
  H1       1.0000 0.82600  0.56860  0.10460  Biso   1.000  H
  H2       1.0000 0.17400  0.43140  0.89540  Biso   1.000  H
  C7       1.0000 0.07140  0.62650  0.16600  Biso   1.000  C
  C8       1.0000 0.92860  0.37350  0.83400  Biso   1.000  C
  C9       1.0000 0.07930  0.77760  0.15270  Biso   1.000  C
  C10      1.0000 0.92070  0.22240  0.84730  Biso   1.000  C
  C11      1.0000 0.71760  0.13880  0.47570  Biso   1.000  C
  C12      1.0000 0.28240  0.86120  0.52430  Biso   1.000  C
  C13      1.0000 0.69230  0.29420  0.43450  Biso   1.000  C
  C14      1.0000 0.30770  0.70580  0.56550  Biso   1.000  C
  C15      1.0000 0.78190  0.40520  0.46040  Biso   1.000  C
  C16      1.0000 0.21810  0.59480  0.53960  Biso   1.000  C
  H3       1.0000 0.87820  0.39810  0.50850  Biso   1.000  H
  H4       1.0000 0.12180  0.60190  0.49150  Biso   1.000  H
  C17      1.0000 0.68660  0.52730  0.39430  Biso   1.000  C
  C18      1.0000 0.31340  0.47270  0.60570  Biso   1.000  C
  C19      1.0000 0.70230  0.68120  0.37780  Biso   1.000  C
  C20      1.0000 0.29770  0.31880  0.62220  Biso   1.000  C
  N1       1.0000 0.18460  0.40720  0.22940  Biso   1.000  N
  N2       1.0000 0.81540  0.59280  0.77060  Biso   1.000  N
  N3       1.0000 0.21120  0.54510  0.21520  Biso   1.000  N
  N4       1.0000 0.78880  0.45490  0.78480  Biso   1.000  N
  N5       1.0000 0.55900  0.35160  0.35820  Biso   1.000  N
  N6       1.0000 0.44100  0.64840  0.64180  Biso   1.000  N
  N7       1.0000 0.55700  0.49140  0.33770  Biso   1.000  N
  N8       1.0000 0.44300  0.50860  0.66230  Biso   1.000  N
  O1       1.0000 0.03720  0.15330  0.25640  Biso   1.000  O
  O2       1.0000 0.96280  0.84670  0.74360  Biso   1.000  O
  O3       1.0000 0.81640  0.24950  0.13590  Biso   1.000  O
  O4       1.0000 0.18360  0.75050  0.86410  Biso   1.000  O
  O5       1.0000 0.94690  0.86570  0.11350  Biso   1.000  O
  O6       1.0000 0.05310  0.13430  0.88650  Biso   1.000  O
  O7       1.0000 0.23010  0.81700  0.18350  Biso   1.000  O
  O8       1.0000 0.76990  0.18300  0.81650  Biso   1.000  O
  O9       1.0000 0.63130  0.07130  0.42220  Biso   1.000  O
  O10      1.0000 0.36870  0.92870  0.57780  Biso   1.000  O
  O11      1.0000 0.81550  0.07970  0.55700  Biso   1.000  O
  O12      1.0000 0.18450  0.92030  0.44300  Biso   1.000  O
  O13      1.0000 0.80530  0.73150  0.42790  Biso   1.000  O
  O14      1.0000 0.19470  0.26850  0.57210  Biso   1.000  O
  O15      1.0000 0.58090  0.76080  0.30510  Biso   1.000  O
  O16      1.0000 0.41910  0.23920  0.69490  Biso   1.000  O
  O17      1.0000 0.43960  0.11660  0.22750  Biso   1.000  O
  O18      1.0000 0.56040  0.88340  0.77250  Biso   1.000  O
  O19      1.0000 0.60010  0.00560  0.07790  Biso   1.000  O
  O20      1.0000 0.39990  0.99440  0.92210  Biso   1.000  O
  O21      1.0000 0.55680  0.70730  0.05320  Biso   1.000  O
  O22      1.0000 0.44320  0.29270  0.94680  Biso   1.000  O
  H5       1.0000 0.50600  0.75800  0.99600  Biso   1.000  H
  H6       1.0000 0.49400  0.24200  0.00400  Biso   1.000  H
