data_image0
_cell_length_a       17.793
_cell_length_b       39.817
_cell_length_c       10.563
_cell_angle_alpha    90
_cell_angle_beta     112.07
_cell_angle_gamma    90

_symmetry_space_group_name_H-M    "P 1"
_symmetry_int_tables_number       1

loop_
  _symmetry_equiv_pos_as_xyz
  'x, y, z'

loop_
  _atom_site_label
  _atom_site_occupancy
  _atom_site_fract_x
  _atom_site_fract_y
  _atom_site_fract_z
  _atom_site_thermal_displace_type
  _atom_site_B_iso_or_equiv
  _atom_site_type_symbol
  O1       1.0000 0.26830  0.31290  0.00100  Biso   1.000  O
  O2       1.0000 0.26830  0.68710  0.50100  Biso   1.000  O
  O3       1.0000 0.76830  0.81290  0.00100  Biso   1.000  O
  O4       1.0000 0.76830  0.18710  0.50100  Biso   1.000  O
  O5       1.0000 0.32860  0.26190  0.09790  Biso   1.000  O
  O6       1.0000 0.32860  0.73810  0.59790  Biso   1.000  O
  O7       1.0000 0.82860  0.76190  0.09790  Biso   1.000  O
  O8       1.0000 0.82860  0.23810  0.59790  Biso   1.000  O
  O9       1.0000 0.09280  0.32240  0.09860  Biso   1.000  O
  O10      1.0000 0.09280  0.67760  0.59860  Biso   1.000  O
  O11      1.0000 0.59280  0.82240  0.09860  Biso   1.000  O
  O12      1.0000 0.59280  0.17760  0.59860  Biso   1.000  O
  O13      1.0000 0.28040  0.32260  0.94850  Biso   1.000  O
  O14      1.0000 0.28040  0.67740  0.44850  Biso   1.000  O
  O15      1.0000 0.78040  0.82260  0.94850  Biso   1.000  O
  O16      1.0000 0.78040  0.17740  0.44850  Biso   1.000  O
  O17      1.0000 0.29550  0.27870  0.08300  Biso   1.000  O
  O18      1.0000 0.29550  0.72130  0.58300  Biso   1.000  O
  O19      1.0000 0.79550  0.77870  0.08300  Biso   1.000  O
  O20      1.0000 0.79550  0.22130  0.58300  Biso   1.000  O
  O21      1.0000 0.08020  0.33120  0.14560  Biso   1.000  O
  O22      1.0000 0.08020  0.66880  0.64560  Biso   1.000  O
  O23      1.0000 0.58020  0.83120  0.14560  Biso   1.000  O
  O24      1.0000 0.58020  0.16880  0.64560  Biso   1.000  O
  S1       1.0000 0.33915  0.29484  0.02428  Biso   1.000  S
  S2       1.0000 0.33915  0.70516  0.52428  Biso   1.000  S
  S3       1.0000 0.83915  0.79484  0.02428  Biso   1.000  S
  S4       1.0000 0.83915  0.20516  0.52428  Biso   1.000  S
  O25      1.0000 0.36630  0.28358  0.92220  Biso   1.000  O
  O26      1.0000 0.36630  0.71642  0.42220  Biso   1.000  O
  O27      1.0000 0.86630  0.78358  0.92220  Biso   1.000  O
  O28      1.0000 0.86630  0.21642  0.42220  Biso   1.000  O
  S5       1.0000 0.02189  0.30253  0.07527  Biso   1.000  S
  S6       1.0000 0.02189  0.69747  0.57527  Biso   1.000  S
  S7       1.0000 0.52189  0.80253  0.07527  Biso   1.000  S
  S8       1.0000 0.52189  0.19747  0.57527  Biso   1.000  S
  O29      1.0000 0.99350  0.29402  0.18670  Biso   1.000  O
  O30      1.0000 0.99350  0.70598  0.68670  Biso   1.000  O
  O31      1.0000 0.49350  0.79402  0.18670  Biso   1.000  O
  O32      1.0000 0.49350  0.20598  0.68670  Biso   1.000  O
  O33      1.0000 0.03570  0.27202  0.01070  Biso   1.000  O
  O34      1.0000 0.03570  0.72798  0.51070  Biso   1.000  O
  O35      1.0000 0.53570  0.77202  0.01070  Biso   1.000  O
  O36      1.0000 0.53570  0.22798  0.51070  Biso   1.000  O
  S9       1.0000 0.63720  0.57588  0.50640  Biso   1.000  S
  S10      1.0000 0.63720  0.42412  0.00640  Biso   1.000  S
  S11      1.0000 0.13720  0.07588  0.50640  Biso   1.000  S
  S12      1.0000 0.13720  0.92412  0.00640  Biso   1.000  S
  O37      1.0000 0.64200  0.58730  0.63840  Biso   1.000  O
  O38      1.0000 0.64200  0.41270  0.13840  Biso   1.000  O
  O39      1.0000 0.14200  0.08730  0.63840  Biso   1.000  O
  O40      1.0000 0.14200  0.91270  0.13840  Biso   1.000  O
  O41      1.0000 0.69970  0.58900  0.46810  Biso   1.000  O
  O42      1.0000 0.69970  0.41100  0.96810  Biso   1.000  O
  O43      1.0000 0.19970  0.08900  0.46810  Biso   1.000  O
  O44      1.0000 0.19970  0.91100  0.96810  Biso   1.000  O
  O45      1.0000 0.56450  0.58020  0.38110  Biso   1.000  O
  O46      1.0000 0.56450  0.41980  0.88110  Biso   1.000  O
  O47      1.0000 0.06450  0.08020  0.38110  Biso   1.000  O
  O48      1.0000 0.06450  0.91980  0.88110  Biso   1.000  O
  H1       1.0000 0.52370  0.57300  0.39420  Biso   1.000  H
  H2       1.0000 0.52370  0.42700  0.89420  Biso   1.000  H
  H3       1.0000 0.02370  0.07300  0.39420  Biso   1.000  H
  H4       1.0000 0.02370  0.92700  0.89420  Biso   1.000  H
  Cu1      1.0000 0.41869  0.24741  0.79725  Biso   1.000  Cu
  Cu2      1.0000 0.41869  0.75259  0.29725  Biso   1.000  Cu
  Cu3      1.0000 0.91869  0.74741  0.79725  Biso   1.000  Cu
  Cu4      1.0000 0.91869  0.25259  0.29725  Biso   1.000  Cu
  N1       1.0000 0.50030  0.28358  0.80320  Biso   1.000  N
  N2       1.0000 0.50030  0.71642  0.30320  Biso   1.000  N
  N3       1.0000 0.00030  0.78358  0.80320  Biso   1.000  N
  N4       1.0000 0.00030  0.21642  0.30320  Biso   1.000  N
  C1       1.0000 0.73510  0.37306  0.65130  Biso   1.000  C
  C2       1.0000 0.73510  0.62694  0.15130  Biso   1.000  C
  C3       1.0000 0.23510  0.87306  0.65130  Biso   1.000  C
  C4       1.0000 0.23510  0.12694  0.15130  Biso   1.000  C
  N5       1.0000 0.49450  0.22699  0.97430  Biso   1.000  N
  N6       1.0000 0.49450  0.77301  0.47430  Biso   1.000  N
  N7       1.0000 0.99450  0.72699  0.97430  Biso   1.000  N
  N8       1.0000 0.99450  0.27301  0.47430  Biso   1.000  N
  C5       1.0000 0.67520  0.35452  0.55110  Biso   1.000  C
  C6       1.0000 0.67520  0.64548  0.05110  Biso   1.000  C
  C7       1.0000 0.17520  0.85452  0.55110  Biso   1.000  C
  C8       1.0000 0.17520  0.14548  0.05110  Biso   1.000  C
  H5       1.0000 0.67830  0.33070  0.55130  Biso   1.000  H
  H6       1.0000 0.67830  0.66930  0.05130  Biso   1.000  H
  H7       1.0000 0.17830  0.83070  0.55130  Biso   1.000  H
  H8       1.0000 0.17830  0.16930  0.05130  Biso   1.000  H
  N9       1.0000 0.34060  0.26727  0.61800  Biso   1.000  N
  N10      1.0000 0.34060  0.73273  0.11800  Biso   1.000  N
  N11      1.0000 0.84060  0.76727  0.61800  Biso   1.000  N
  N12      1.0000 0.84060  0.23273  0.11800  Biso   1.000  N
  C9       1.0000 0.61120  0.37078  0.45150  Biso   1.000  C
  C10      1.0000 0.61120  0.62922  0.95150  Biso   1.000  C
  C11      1.0000 0.11120  0.87078  0.45150  Biso   1.000  C
  C12      1.0000 0.11120  0.12922  0.95150  Biso   1.000  C
  N13      1.0000 0.33460  0.21152  0.77110  Biso   1.000  N
  N14      1.0000 0.33460  0.78848  0.27110  Biso   1.000  N
  N15      1.0000 0.83460  0.71152  0.77110  Biso   1.000  N
  N16      1.0000 0.83460  0.28848  0.27110  Biso   1.000  N
  C13      1.0000 0.60990  0.40538  0.44710  Biso   1.000  C
  C14      1.0000 0.60990  0.59462  0.94710  Biso   1.000  C
  C15      1.0000 0.10990  0.90538  0.44710  Biso   1.000  C
  C16      1.0000 0.10990  0.09462  0.94710  Biso   1.000  C
  H9       1.0000 0.56670  0.41650  0.37750  Biso   1.000  H
  H10      1.0000 0.56670  0.58350  0.87750  Biso   1.000  H
  H11      1.0000 0.06670  0.91650  0.37750  Biso   1.000  H
  H12      1.0000 0.06670  0.08350  0.87750  Biso   1.000  H
  C17      1.0000 0.67280  0.42504  0.54620  Biso   1.000  C
  C18      1.0000 0.67280  0.57496  0.04620  Biso   1.000  C
  C19      1.0000 0.17280  0.92504  0.54620  Biso   1.000  C
  C20      1.0000 0.17280  0.07496  0.04620  Biso   1.000  C
  C21      1.0000 0.73240  0.40786  0.64700  Biso   1.000  C
  C22      1.0000 0.73240  0.59214  0.14700  Biso   1.000  C
  C23      1.0000 0.23240  0.90786  0.64700  Biso   1.000  C
  C24      1.0000 0.23240  0.09214  0.14700  Biso   1.000  C
  H13      1.0000 0.77310  0.42020  0.71610  Biso   1.000  H
  H14      1.0000 0.77310  0.57980  0.21610  Biso   1.000  H
  H15      1.0000 0.27310  0.92020  0.71610  Biso   1.000  H
  H16      1.0000 0.27310  0.07980  0.21610  Biso   1.000  H
  C25      1.0000 0.48180  0.31605  0.80870  Biso   1.000  C
  C26      1.0000 0.48180  0.68395  0.30870  Biso   1.000  C
  C27      1.0000 0.98180  0.81605  0.80870  Biso   1.000  C
  C28      1.0000 0.98180  0.18395  0.30870  Biso   1.000  C
  H17      1.0000 0.42970  0.32150  0.80840  Biso   1.000  H
  H18      1.0000 0.42970  0.67850  0.30840  Biso   1.000  H
  H19      1.0000 0.92970  0.82150  0.80840  Biso   1.000  H
  H20      1.0000 0.92970  0.17850  0.30840  Biso   1.000  H
  C29      1.0000 0.53460  0.34182  0.81470  Biso   1.000  C
  C30      1.0000 0.53460  0.65818  0.31470  Biso   1.000  C
  C31      1.0000 0.03460  0.84182  0.81470  Biso   1.000  C
  C32      1.0000 0.03460  0.15818  0.31470  Biso   1.000  C
  H21      1.0000 0.51880  0.36460  0.81520  Biso   1.000  H
  H22      1.0000 0.51880  0.63540  0.31520  Biso   1.000  H
  H23      1.0000 0.01880  0.86460  0.81520  Biso   1.000  H
  H24      1.0000 0.01880  0.13540  0.31520  Biso   1.000  H
  C33      1.0000 0.57400  0.27621  0.80280  Biso   1.000  C
  C34      1.0000 0.57400  0.72379  0.30280  Biso   1.000  C
  C35      1.0000 0.07400  0.77621  0.80280  Biso   1.000  C
  C36      1.0000 0.07400  0.22379  0.30280  Biso   1.000  C
  H25      1.0000 0.58790  0.25330  0.79840  Biso   1.000  H
  H26      1.0000 0.58790  0.74670  0.29840  Biso   1.000  H
  H27      1.0000 0.08790  0.75330  0.79840  Biso   1.000  H
  H28      1.0000 0.08790  0.24670  0.29840  Biso   1.000  H
  C37      1.0000 0.61120  0.33374  0.82000  Biso   1.000  C
  C38      1.0000 0.61120  0.66626  0.32000  Biso   1.000  C
  C39      1.0000 0.11120  0.83374  0.82000  Biso   1.000  C
  C40      1.0000 0.11120  0.16626  0.32000  Biso   1.000  C
  H29      1.0000 0.65040  0.35090  0.83140  Biso   1.000  H
  H30      1.0000 0.65040  0.64910  0.33140  Biso   1.000  H
  H31      1.0000 0.15040  0.85090  0.83140  Biso   1.000  H
  H32      1.0000 0.15040  0.14910  0.33140  Biso   1.000  H
  C41      1.0000 0.63020  0.30060  0.80860  Biso   1.000  C
  C42      1.0000 0.63020  0.69940  0.30860  Biso   1.000  C
  C43      1.0000 0.13020  0.80060  0.80860  Biso   1.000  C
  C44      1.0000 0.13020  0.19940  0.30860  Biso   1.000  C
  H33      1.0000 0.68100  0.29470  0.80480  Biso   1.000  H
  H34      1.0000 0.68100  0.70530  0.30480  Biso   1.000  H
  H35      1.0000 0.18100  0.79470  0.80480  Biso   1.000  H
  H36      1.0000 0.18100  0.20530  0.30480  Biso   1.000  H
  C45      1.0000 0.53310  0.24667  0.08130  Biso   1.000  C
  C46      1.0000 0.53310  0.75333  0.58130  Biso   1.000  C
  C47      1.0000 0.03310  0.74667  0.08130  Biso   1.000  C
  C48      1.0000 0.03310  0.25333  0.58130  Biso   1.000  C
  H37      1.0000 0.52850  0.27030  0.06840  Biso   1.000  H
  H38      1.0000 0.52850  0.72970  0.56840  Biso   1.000  H
  H39      1.0000 0.02850  0.77030  0.06840  Biso   1.000  H
  H40      1.0000 0.02850  0.22970  0.56840  Biso   1.000  H
  C49      1.0000 0.57930  0.23470  0.20940  Biso   1.000  C
  C50      1.0000 0.57930  0.76530  0.70940  Biso   1.000  C
  C51      1.0000 0.07930  0.73470  0.20940  Biso   1.000  C
  C52      1.0000 0.07930  0.26530  0.70940  Biso   1.000  C
  H41      1.0000 0.60390  0.24950  0.28410  Biso   1.000  H
  H42      1.0000 0.60390  0.75050  0.78410  Biso   1.000  H
  H43      1.0000 0.10390  0.74950  0.28410  Biso   1.000  H
  H44      1.0000 0.10390  0.25050  0.78410  Biso   1.000  H
  C53      1.0000 0.58860  0.20010  0.22510  Biso   1.000  C
  C54      1.0000 0.58860  0.79990  0.72510  Biso   1.000  C
  C55      1.0000 0.08860  0.70010  0.22510  Biso   1.000  C
  C56      1.0000 0.08860  0.29990  0.72510  Biso   1.000  C
  H45      1.0000 0.62020  0.19080  0.31160  Biso   1.000  H
  H46      1.0000 0.62020  0.80920  0.81160  Biso   1.000  H
  H47      1.0000 0.12020  0.69080  0.31160  Biso   1.000  H
  H48      1.0000 0.12020  0.30920  0.81160  Biso   1.000  H
  C57      1.0000 0.55380  0.18046  0.12050  Biso   1.000  C
  C58      1.0000 0.55380  0.81954  0.62050  Biso   1.000  C
  C59      1.0000 0.05380  0.68046  0.12050  Biso   1.000  C
  C60      1.0000 0.05380  0.31954  0.62050  Biso   1.000  C
  H49      1.0000 0.56180  0.15690  0.13020  Biso   1.000  H
  H50      1.0000 0.56180  0.84310  0.63020  Biso   1.000  H
  H51      1.0000 0.06180  0.65690  0.13020  Biso   1.000  H
  H52      1.0000 0.06180  0.34310  0.63020  Biso   1.000  H
  C61      1.0000 0.50500  0.19396  0.99440  Biso   1.000  C
  C62      1.0000 0.50500  0.80604  0.49440  Biso   1.000  C
  C63      1.0000 0.00500  0.69396  0.99440  Biso   1.000  C
  C64      1.0000 0.00500  0.30604  0.49440  Biso   1.000  C
  H53      1.0000 0.47830  0.17920  0.92060  Biso   1.000  H
  H54      1.0000 0.47830  0.82080  0.42060  Biso   1.000  H
  H55      1.0000 0.97830  0.67920  0.92060  Biso   1.000  H
  H56      1.0000 0.97830  0.32080  0.42060  Biso   1.000  H
  C65      1.0000 0.35640  0.26450  0.50760  Biso   1.000  C
  C66      1.0000 0.35640  0.73550  0.00760  Biso   1.000  C
  C67      1.0000 0.85640  0.76450  0.50760  Biso   1.000  C
  C68      1.0000 0.85640  0.23550  0.00760  Biso   1.000  C
  H57      1.0000 0.40760  0.25590  0.51420  Biso   1.000  H
  H58      1.0000 0.40760  0.74410  0.01420  Biso   1.000  H
  H59      1.0000 0.90760  0.75590  0.51420  Biso   1.000  H
  H60      1.0000 0.90760  0.24410  0.01420  Biso   1.000  H
  C69      1.0000 0.29980  0.27380  0.37970  Biso   1.000  C
  C70      1.0000 0.29980  0.72620  0.87970  Biso   1.000  C
  C71      1.0000 0.79980  0.77380  0.37970  Biso   1.000  C
  C72      1.0000 0.79980  0.22620  0.87970  Biso   1.000  C
  H61      1.0000 0.31020  0.26920  0.29940  Biso   1.000  H
  H62      1.0000 0.31020  0.73080  0.79940  Biso   1.000  H
  H63      1.0000 0.81020  0.76920  0.29940  Biso   1.000  H
  H64      1.0000 0.81020  0.23080  0.79940  Biso   1.000  H
  C73      1.0000 0.23160  0.28890  0.37050  Biso   1.000  C
  C74      1.0000 0.23160  0.71110  0.87050  Biso   1.000  C
  C75      1.0000 0.73160  0.78890  0.37050  Biso   1.000  C
  C76      1.0000 0.73160  0.21110  0.87050  Biso   1.000  C
  H65      1.0000 0.19570  0.29760  0.28550  Biso   1.000  H
  H66      1.0000 0.19570  0.70240  0.78550  Biso   1.000  H
  H67      1.0000 0.69570  0.79760  0.28550  Biso   1.000  H
  H68      1.0000 0.69570  0.20240  0.78550  Biso   1.000  H
  C77      1.0000 0.21400  0.29190  0.48330  Biso   1.000  C
  C78      1.0000 0.21400  0.70810  0.98330  Biso   1.000  C
  C79      1.0000 0.71400  0.79190  0.48330  Biso   1.000  C
  C80      1.0000 0.71400  0.20810  0.98330  Biso   1.000  C
  H69      1.0000 0.16380  0.30130  0.47790  Biso   1.000  H
  H70      1.0000 0.16380  0.69870  0.97790  Biso   1.000  H
  H71      1.0000 0.66380  0.80130  0.47790  Biso   1.000  H
  H72      1.0000 0.66380  0.19870  0.97790  Biso   1.000  H
  C81      1.0000 0.27180  0.28070  0.61090  Biso   1.000  C
  C82      1.0000 0.27180  0.71930  0.11090  Biso   1.000  C
  C83      1.0000 0.77180  0.78070  0.61090  Biso   1.000  C
  C84      1.0000 0.77180  0.21930  0.11090  Biso   1.000  C
  H73      1.0000 0.26040  0.28300  0.69140  Biso   1.000  H
  H74      1.0000 0.26040  0.71700  0.19140  Biso   1.000  H
  H75      1.0000 0.76040  0.78300  0.69140  Biso   1.000  H
  H76      1.0000 0.76040  0.21700  0.19140  Biso   1.000  H
  C85      1.0000 0.32250  0.18782  0.67300  Biso   1.000  C
  C86      1.0000 0.32250  0.81218  0.17300  Biso   1.000  C
  C87      1.0000 0.82250  0.68782  0.67300  Biso   1.000  C
  C88      1.0000 0.82250  0.31218  0.17300  Biso   1.000  C
  H77      1.0000 0.35720  0.18790  0.62300  Biso   1.000  H
  H78      1.0000 0.35720  0.81210  0.12300  Biso   1.000  H
  H79      1.0000 0.85720  0.68790  0.62300  Biso   1.000  H
  H80      1.0000 0.85720  0.31210  0.12300  Biso   1.000  H
  C89      1.0000 0.26110  0.16301  0.64110  Biso   1.000  C
  C90      1.0000 0.26110  0.83699  0.14110  Biso   1.000  C
  C91      1.0000 0.76110  0.66301  0.64110  Biso   1.000  C
  C92      1.0000 0.76110  0.33699  0.14110  Biso   1.000  C
  H81      1.0000 0.25610  0.14590  0.57590  Biso   1.000  H
  H82      1.0000 0.25610  0.85410  0.07590  Biso   1.000  H
  H83      1.0000 0.75610  0.64590  0.57590  Biso   1.000  H
  H84      1.0000 0.75610  0.35410  0.07590  Biso   1.000  H
  C93      1.0000 0.20840  0.16517  0.71090  Biso   1.000  C
  C94      1.0000 0.20840  0.83483  0.21090  Biso   1.000  C
  C95      1.0000 0.70840  0.66517  0.71090  Biso   1.000  C
  C96      1.0000 0.70840  0.33483  0.21090  Biso   1.000  C
  H85      1.0000 0.16520  0.14960  0.69230  Biso   1.000  H
  H86      1.0000 0.16520  0.85040  0.19230  Biso   1.000  H
  H87      1.0000 0.66520  0.64960  0.69230  Biso   1.000  H
  H88      1.0000 0.66520  0.35040  0.19230  Biso   1.000  H
  C97      1.0000 0.21900  0.18944  0.80460  Biso   1.000  C
  C98      1.0000 0.21900  0.81056  0.30460  Biso   1.000  C
  C99      1.0000 0.71900  0.68944  0.80460  Biso   1.000  C
  C100     1.0000 0.71900  0.31056  0.30460  Biso   1.000  C
  H89      1.0000 0.18240  0.19110  0.85060  Biso   1.000  H
  H90      1.0000 0.18240  0.80890  0.35060  Biso   1.000  H
  H91      1.0000 0.68240  0.69110  0.85060  Biso   1.000  H
  H92      1.0000 0.68240  0.30890  0.35060  Biso   1.000  H
  C101     1.0000 0.28280  0.21219  0.83520  Biso   1.000  C
  C102     1.0000 0.28280  0.78781  0.33520  Biso   1.000  C
  C103     1.0000 0.78280  0.71219  0.83520  Biso   1.000  C
  C104     1.0000 0.78280  0.28781  0.33520  Biso   1.000  C
  H93      1.0000 0.28960  0.22870  0.90370  Biso   1.000  H
  H94      1.0000 0.28960  0.77130  0.40370  Biso   1.000  H
  H95      1.0000 0.78960  0.72870  0.90370  Biso   1.000  H
  H96      1.0000 0.78960  0.27130  0.40370  Biso   1.000  H
  C105     1.0000 0.54710  0.35109  0.34390  Biso   1.000  C
  C106     1.0000 0.54710  0.64891  0.84390  Biso   1.000  C
  C107     1.0000 0.04710  0.85109  0.34390  Biso   1.000  C
  C108     1.0000 0.04710  0.14891  0.84390  Biso   1.000  C
  C109     1.0000 0.52200  0.32044  0.37530  Biso   1.000  C
  C110     1.0000 0.52200  0.67956  0.87530  Biso   1.000  C
  C111     1.0000 0.02200  0.82044  0.37530  Biso   1.000  C
  C112     1.0000 0.02200  0.17956  0.87530  Biso   1.000  C
  H97      1.0000 0.54810  0.31160  0.46470  Biso   1.000  H
  H98      1.0000 0.54810  0.68840  0.96470  Biso   1.000  H
  H99      1.0000 0.04810  0.81160  0.46470  Biso   1.000  H
  H100     1.0000 0.04810  0.18840  0.96470  Biso   1.000  H
  C113     1.0000 0.45950  0.30212  0.27950  Biso   1.000  C
  C114     1.0000 0.45950  0.69788  0.77950  Biso   1.000  C
  C115     1.0000 0.95950  0.80212  0.27950  Biso   1.000  C
  C116     1.0000 0.95950  0.19788  0.77950  Biso   1.000  C
  H101     1.0000 0.44320  0.28110  0.30310  Biso   1.000  H
  H102     1.0000 0.44320  0.71890  0.80310  Biso   1.000  H
  H103     1.0000 0.94320  0.78110  0.30310  Biso   1.000  H
  H104     1.0000 0.94320  0.21890  0.80310  Biso   1.000  H
  C117     1.0000 0.42200  0.31501  0.15040  Biso   1.000  C
  C118     1.0000 0.42200  0.68499  0.65040  Biso   1.000  C
  C119     1.0000 0.92200  0.81501  0.15040  Biso   1.000  C
  C120     1.0000 0.92200  0.18499  0.65040  Biso   1.000  C
  C121     1.0000 0.44610  0.34616  0.11290  Biso   1.000  C
  C122     1.0000 0.44610  0.65384  0.61290  Biso   1.000  C
  C123     1.0000 0.94610  0.84616  0.11290  Biso   1.000  C
  C124     1.0000 0.94610  0.15384  0.61290  Biso   1.000  C
  H105     1.0000 0.42070  0.35480  0.02290  Biso   1.000  H
  H106     1.0000 0.42070  0.64520  0.52290  Biso   1.000  H
  H107     1.0000 0.92070  0.85480  0.02290  Biso   1.000  H
  H108     1.0000 0.92070  0.14520  0.52290  Biso   1.000  H
  C125     1.0000 0.50930  0.36410  0.21370  Biso   1.000  C
  C126     1.0000 0.50930  0.63590  0.71370  Biso   1.000  C
  C127     1.0000 0.00930  0.86410  0.21370  Biso   1.000  C
  C128     1.0000 0.00930  0.13590  0.71370  Biso   1.000  C
  H109     1.0000 0.52590  0.38530  0.19170  Biso   1.000  H
  H110     1.0000 0.52590  0.61470  0.69170  Biso   1.000  H
  H111     1.0000 0.02590  0.88530  0.19170  Biso   1.000  H
  H112     1.0000 0.02590  0.11470  0.69170  Biso   1.000  H
  C129     1.0000 0.80590  0.35536  0.75520  Biso   1.000  C
  C130     1.0000 0.80590  0.64464  0.25520  Biso   1.000  C
  C131     1.0000 0.30590  0.85536  0.75520  Biso   1.000  C
  C132     1.0000 0.30590  0.14464  0.25520  Biso   1.000  C
  C133     1.0000 0.84410  0.36919  0.88610  Biso   1.000  C
  C134     1.0000 0.84410  0.63081  0.38610  Biso   1.000  C
  C135     1.0000 0.34410  0.86919  0.88610  Biso   1.000  C
  C136     1.0000 0.34410  0.13081  0.38610  Biso   1.000  C
  H113     1.0000 0.82430  0.38930  0.91040  Biso   1.000  H
  H114     1.0000 0.82430  0.61070  0.41040  Biso   1.000  H
  H115     1.0000 0.32430  0.88930  0.91040  Biso   1.000  H
  H116     1.0000 0.32430  0.11070  0.41040  Biso   1.000  H
  C137     1.0000 0.91140  0.35312  0.97980  Biso   1.000  C
  C138     1.0000 0.91140  0.64688  0.47980  Biso   1.000  C
  C139     1.0000 0.41140  0.85312  0.97980  Biso   1.000  C
  C140     1.0000 0.41140  0.14688  0.47980  Biso   1.000  C
  H117     1.0000 0.93870  0.36300  0.06700  Biso   1.000  H
  H118     1.0000 0.93870  0.63700  0.56700  Biso   1.000  H
  H119     1.0000 0.43870  0.86300  0.06700  Biso   1.000  H
  H120     1.0000 0.43870  0.13700  0.56700  Biso   1.000  H
  C141     1.0000 0.93930  0.32318  0.94840  Biso   1.000  C
  C142     1.0000 0.93930  0.67682  0.44840  Biso   1.000  C
  C143     1.0000 0.43930  0.82318  0.94840  Biso   1.000  C
  C144     1.0000 0.43930  0.17682  0.44840  Biso   1.000  C
  C145     1.0000 0.90030  0.30893  0.82170  Biso   1.000  C
  C146     1.0000 0.90030  0.69107  0.32170  Biso   1.000  C
  C147     1.0000 0.40030  0.80893  0.82170  Biso   1.000  C
  C148     1.0000 0.40030  0.19107  0.32170  Biso   1.000  C
  H121     1.0000 0.91890  0.28800  0.80120  Biso   1.000  H
  H122     1.0000 0.91890  0.71200  0.30120  Biso   1.000  H
  H123     1.0000 0.41890  0.78800  0.80120  Biso   1.000  H
  H124     1.0000 0.41890  0.21200  0.30120  Biso   1.000  H
  C149     1.0000 0.83560  0.32420  0.72540  Biso   1.000  C
  C150     1.0000 0.83560  0.67580  0.22540  Biso   1.000  C
  C151     1.0000 0.33560  0.82420  0.72540  Biso   1.000  C
  C152     1.0000 0.33560  0.17580  0.22540  Biso   1.000  C
  H125     1.0000 0.81020  0.31410  0.63810  Biso   1.000  H
  H126     1.0000 0.81020  0.68590  0.13810  Biso   1.000  H
  H127     1.0000 0.31020  0.81410  0.63810  Biso   1.000  H
  H128     1.0000 0.31020  0.18590  0.13810  Biso   1.000  H
  O49      1.0000 0.67540  0.26591  0.54640  Biso   1.000  O
  O50      1.0000 0.67540  0.73409  0.04640  Biso   1.000  O
  O51      1.0000 0.17540  0.76591  0.54640  Biso   1.000  O
  O52      1.0000 0.17540  0.23409  0.04640  Biso   1.000  O
  C153     1.0000 0.66800  0.46187  0.54030  Biso   1.000  C
  C154     1.0000 0.66800  0.53813  0.04030  Biso   1.000  C
  C155     1.0000 0.16800  0.96187  0.54030  Biso   1.000  C
  C156     1.0000 0.16800  0.03813  0.04030  Biso   1.000  C
  C157     1.0000 0.63890  0.47736  0.41300  Biso   1.000  C
  C158     1.0000 0.63890  0.52264  0.91300  Biso   1.000  C
  C159     1.0000 0.13890  0.97736  0.41300  Biso   1.000  C
  C160     1.0000 0.13890  0.02264  0.91300  Biso   1.000  C
  H129     1.0000 0.62420  0.46420  0.33230  Biso   1.000  H
  H130     1.0000 0.62420  0.53580  0.83230  Biso   1.000  H
  H131     1.0000 0.12420  0.96420  0.33230  Biso   1.000  H
  H132     1.0000 0.12420  0.03580  0.83230  Biso   1.000  H
  C161     1.0000 0.63120  0.51210  0.40380  Biso   1.000  C
  C162     1.0000 0.63120  0.48790  0.90380  Biso   1.000  C
  C163     1.0000 0.13120  0.01210  0.40380  Biso   1.000  C
  C164     1.0000 0.13120  0.98790  0.90380  Biso   1.000  C
  H133     1.0000 0.61130  0.52270  0.31690  Biso   1.000  H
  H134     1.0000 0.61130  0.47730  0.81690  Biso   1.000  H
  H135     1.0000 0.11130  0.02270  0.31690  Biso   1.000  H
  H136     1.0000 0.11130  0.97730  0.81690  Biso   1.000  H
  C165     1.0000 0.65260  0.53137  0.52190  Biso   1.000  C
  C166     1.0000 0.65260  0.46863  0.02190  Biso   1.000  C
  C167     1.0000 0.15260  0.03137  0.52190  Biso   1.000  C
  C168     1.0000 0.15260  0.96863  0.02190  Biso   1.000  C
  C169     1.0000 0.68170  0.51588  0.64920  Biso   1.000  C
  C170     1.0000 0.68170  0.48412  0.14920  Biso   1.000  C
  C171     1.0000 0.18170  0.01588  0.64920  Biso   1.000  C
  C172     1.0000 0.18170  0.98412  0.14920  Biso   1.000  C
  H137     1.0000 0.69640  0.52900  0.72990  Biso   1.000  H
  H138     1.0000 0.69640  0.47100  0.22990  Biso   1.000  H
  H139     1.0000 0.19640  0.02900  0.72990  Biso   1.000  H
  H140     1.0000 0.19640  0.97100  0.22990  Biso   1.000  H
  C173     1.0000 0.68940  0.48114  0.65840  Biso   1.000  C
  C174     1.0000 0.68940  0.51886  0.15840  Biso   1.000  C
  C175     1.0000 0.18940  0.98114  0.65840  Biso   1.000  C
  C176     1.0000 0.18940  0.01886  0.15840  Biso   1.000  C
  H141     1.0000 0.70930  0.47060  0.74530  Biso   1.000  H
  H142     1.0000 0.70930  0.52940  0.24530  Biso   1.000  H
  H143     1.0000 0.20930  0.97060  0.74530  Biso   1.000  H
  H144     1.0000 0.20930  0.02940  0.24530  Biso   1.000  H
  N17      1.0000 0.34150  0.37360  0.36000  Biso   1.000  N
  N18      1.0000 0.34150  0.62640  0.86000  Biso   1.000  N
  N19      1.0000 0.84150  0.87360  0.36000  Biso   1.000  N
  N20      1.0000 0.84150  0.12640  0.86000  Biso   1.000  N
  C177     1.0000 0.38270  0.37630  0.50100  Biso   1.000  C
  C178     1.0000 0.38270  0.62370  0.00100  Biso   1.000  C
  C179     1.0000 0.88270  0.87630  0.50100  Biso   1.000  C
  C180     1.0000 0.88270  0.12370  0.00100  Biso   1.000  C
  H145     1.0000 0.44020  0.37480  0.53900  Biso   1.000  H
  H146     1.0000 0.44020  0.62520  0.03900  Biso   1.000  H
  H147     1.0000 0.94020  0.87480  0.53900  Biso   1.000  H
  H148     1.0000 0.94020  0.12520  0.03900  Biso   1.000  H
  C181     1.0000 0.33980  0.38120  0.58500  Biso   1.000  C
  C182     1.0000 0.33980  0.61880  0.08500  Biso   1.000  C
  C183     1.0000 0.83980  0.88120  0.58500  Biso   1.000  C
  C184     1.0000 0.83980  0.11880  0.08500  Biso   1.000  C
  H149     1.0000 0.36790  0.38300  0.68130  Biso   1.000  H
  H150     1.0000 0.36790  0.61700  0.18130  Biso   1.000  H
  H151     1.0000 0.86790  0.88300  0.68130  Biso   1.000  H
  H152     1.0000 0.86790  0.11700  0.18130  Biso   1.000  H
  C185     1.0000 0.25570  0.38340  0.52900  Biso   1.000  C
  C186     1.0000 0.25570  0.61660  0.02900  Biso   1.000  C
  C187     1.0000 0.75570  0.88340  0.52900  Biso   1.000  C
  C188     1.0000 0.75570  0.11660  0.02900  Biso   1.000  C
  H153     1.0000 0.22630  0.38670  0.58730  Biso   1.000  H
  H154     1.0000 0.22630  0.61330  0.08730  Biso   1.000  H
  H155     1.0000 0.72630  0.88670  0.58730  Biso   1.000  H
  H156     1.0000 0.72630  0.11330  0.08730  Biso   1.000  H
  C189     1.0000 0.21450  0.38070  0.38900  Biso   1.000  C
  C190     1.0000 0.21450  0.61930  0.88900  Biso   1.000  C
  C191     1.0000 0.71450  0.88070  0.38900  Biso   1.000  C
  C192     1.0000 0.71450  0.11930  0.88900  Biso   1.000  C
  H157     1.0000 0.15700  0.38220  0.35080  Biso   1.000  H
  H158     1.0000 0.15700  0.61780  0.85080  Biso   1.000  H
  H159     1.0000 0.65700  0.88220  0.35080  Biso   1.000  H
  H160     1.0000 0.65700  0.11780  0.85080  Biso   1.000  H
  C193     1.0000 0.25740  0.37580  0.30400  Biso   1.000  C
  C194     1.0000 0.25740  0.62420  0.80400  Biso   1.000  C
  C195     1.0000 0.75740  0.87580  0.30400  Biso   1.000  C
  C196     1.0000 0.75740  0.12420  0.80400  Biso   1.000  C
  H161     1.0000 0.22930  0.37400  0.20850  Biso   1.000  H
  H162     1.0000 0.22930  0.62600  0.70850  Biso   1.000  H
  H163     1.0000 0.72930  0.87400  0.20850  Biso   1.000  H
  H164     1.0000 0.72930  0.12600  0.70850  Biso   1.000  H
  N21      1.0000 0.40230  0.10040  0.05190  Biso   1.000  N
  N22      1.0000 0.40230  0.89960  0.55190  Biso   1.000  N
  N23      1.0000 0.90230  0.60040  0.05190  Biso   1.000  N
  N24      1.0000 0.90230  0.39960  0.55190  Biso   1.000  N
  C197     1.0000 0.48320  0.09740  0.06770  Biso   1.000  C
  C198     1.0000 0.48320  0.90260  0.56770  Biso   1.000  C
  C199     1.0000 0.98320  0.59740  0.06770  Biso   1.000  C
  C200     1.0000 0.98320  0.40260  0.56770  Biso   1.000  C
  H165     1.0000 0.52470  0.09910  0.15600  Biso   1.000  H
  H166     1.0000 0.52470  0.90090  0.65600  Biso   1.000  H
  H167     1.0000 0.02470  0.59910  0.15600  Biso   1.000  H
  H168     1.0000 0.02470  0.40090  0.65600  Biso   1.000  H
  C201     1.0000 0.50330  0.09200  0.95430  Biso   1.000  C
  C202     1.0000 0.50330  0.90800  0.45430  Biso   1.000  C
  C203     1.0000 0.00330  0.59200  0.95430  Biso   1.000  C
  C204     1.0000 0.00330  0.40800  0.45430  Biso   1.000  C
  H169     1.0000 0.55860  0.08990  0.96510  Biso   1.000  H
  H170     1.0000 0.55860  0.91010  0.46510  Biso   1.000  H
  H171     1.0000 0.05860  0.58990  0.96510  Biso   1.000  H
  H172     1.0000 0.05860  0.41010  0.46510  Biso   1.000  H
  C205     1.0000 0.44250  0.08950  0.82510  Biso   1.000  C
  C206     1.0000 0.44250  0.91050  0.32510  Biso   1.000  C
  C207     1.0000 0.94250  0.58950  0.82510  Biso   1.000  C
  C208     1.0000 0.94250  0.41050  0.32510  Biso   1.000  C
  H173     1.0000 0.45630  0.08570  0.74760  Biso   1.000  H
  H174     1.0000 0.45630  0.91430  0.24760  Biso   1.000  H
  H175     1.0000 0.95630  0.58570  0.74760  Biso   1.000  H
  H176     1.0000 0.95630  0.41430  0.24760  Biso   1.000  H
  C209     1.0000 0.36170  0.09240  0.80930  Biso   1.000  C
  C210     1.0000 0.36170  0.90760  0.30930  Biso   1.000  C
  C211     1.0000 0.86170  0.59240  0.80930  Biso   1.000  C
  C212     1.0000 0.86170  0.40760  0.30930  Biso   1.000  C
  H177     1.0000 0.32010  0.09070  0.72100  Biso   1.000  H
  H178     1.0000 0.32010  0.90930  0.22100  Biso   1.000  H
  H179     1.0000 0.82010  0.59070  0.72100  Biso   1.000  H
  H180     1.0000 0.82010  0.40930  0.22100  Biso   1.000  H
  C213     1.0000 0.34150  0.09790  0.92270  Biso   1.000  C
  C214     1.0000 0.34150  0.90210  0.42270  Biso   1.000  C
  C215     1.0000 0.84150  0.59790  0.92270  Biso   1.000  C
  C216     1.0000 0.84150  0.40210  0.42270  Biso   1.000  C
  H181     1.0000 0.28630  0.09990  0.91190  Biso   1.000  H
  H182     1.0000 0.28630  0.90010  0.41190  Biso   1.000  H
  H183     1.0000 0.78630  0.59990  0.91190  Biso   1.000  H
  H184     1.0000 0.78630  0.40010  0.41190  Biso   1.000  H
