data_image0
_cell_length_a       17.118
_cell_length_b       21.266
_cell_length_c       21.872
_cell_angle_alpha    99.079
_cell_angle_beta     109.795
_cell_angle_gamma    102.655

_symmetry_space_group_name_H-M    "P 1"
_symmetry_int_tables_number       1

loop_
  _symmetry_equiv_pos_as_xyz
  'x, y, z'

loop_
  _atom_site_label
  _atom_site_occupancy
  _atom_site_fract_x
  _atom_site_fract_y
  _atom_site_fract_z
  _atom_site_thermal_displace_type
  _atom_site_B_iso_or_equiv
  _atom_site_type_symbol
  O1       1.0000 0.83390  0.33670  0.34070  Biso   1.000  O
  O2       1.0000 0.16610  0.66330  0.65930  Biso   1.000  O
  O3       1.0000 0.92060  0.27600  0.33060  Biso   1.000  O
  O4       1.0000 0.07940  0.72400  0.66940  Biso   1.000  O
  O5       1.0000 0.95510  0.39100  0.32100  Biso   1.000  O
  O6       1.0000 0.04490  0.60900  0.67900  Biso   1.000  O
  O7       1.0000 0.87800  0.39360  0.33550  Biso   1.000  O
  O8       1.0000 0.12200  0.60640  0.66450  Biso   1.000  O
  O9       1.0000 0.87210  0.27920  0.32800  Biso   1.000  O
  O10      1.0000 0.12790  0.72080  0.67200  Biso   1.000  O
  O11      1.0000 0.99630  0.35680  0.33180  Biso   1.000  O
  O12      1.0000 0.00370  0.64320  0.66820  Biso   1.000  O
  C1       1.0000 0.19050  0.41970  0.75770  Biso   1.000  C
  C2       1.0000 0.80950  0.58030  0.24230  Biso   1.000  C
  C3       1.0000 0.93300  0.04210  0.24140  Biso   1.000  C
  C4       1.0000 0.06700  0.95790  0.75860  Biso   1.000  C
  C5       1.0000 0.14690  0.44840  0.79360  Biso   1.000  C
  C6       1.0000 0.85310  0.55160  0.20640  Biso   1.000  C
  H1       1.0000 0.17030  0.45950  0.84130  Biso   1.000  H
  H2       1.0000 0.82970  0.54050  0.15870  Biso   1.000  H
  C7       1.0000 0.85330  0.05200  0.20600  Biso   1.000  C
  C8       1.0000 0.14670  0.94800  0.79400  Biso   1.000  C
  H3       1.0000 0.82940  0.03960  0.15830  Biso   1.000  H
  H4       1.0000 0.17060  0.96040  0.84170  Biso   1.000  H
  C9       1.0000 0.06800  0.46040  0.75770  Biso   1.000  C
  C10      1.0000 0.93200  0.53960  0.24230  Biso   1.000  C
  C11      1.0000 0.80850  0.08020  0.24090  Biso   1.000  C
  C12      1.0000 0.19150  0.91980  0.75910  Biso   1.000  C
  C13      1.0000 0.03520  0.44420  0.68970  Biso   1.000  C
  C14      1.0000 0.96480  0.55580  0.31030  Biso   1.000  C
  H5       1.0000 0.98210  0.45240  0.66650  Biso   1.000  H
  H6       1.0000 0.01790  0.54760  0.33350  Biso   1.000  H
  C15      1.0000 0.84550  0.09920  0.31000  Biso   1.000  C
  C16      1.0000 0.15450  0.90080  0.69000  Biso   1.000  C
  H7       1.0000 0.81650  0.11980  0.33360  Biso   1.000  H
  H8       1.0000 0.18350  0.88020  0.66640  Biso   1.000  H
  C17      1.0000 0.07640  0.41590  0.65250  Biso   1.000  C
  C18      1.0000 0.92360  0.58410  0.34750  Biso   1.000  C
  C19      1.0000 0.92410  0.08900  0.34660  Biso   1.000  C
  C20      1.0000 0.07590  0.91100  0.65340  Biso   1.000  C
  C21      1.0000 0.15510  0.40450  0.68810  Biso   1.000  C
  C22      1.0000 0.84490  0.59550  0.31190  Biso   1.000  C
  H9       1.0000 0.18490  0.38580  0.66390  Biso   1.000  H
  H10      1.0000 0.81510  0.61420  0.33610  Biso   1.000  H
  C23      1.0000 0.96650  0.05980  0.31080  Biso   1.000  C
  C24      1.0000 0.03350  0.94020  0.68920  Biso   1.000  C
  H11      1.0000 0.01960  0.05180  0.33480  Biso   1.000  H
  H12      1.0000 0.98040  0.94820  0.66520  Biso   1.000  H
  C25      1.0000 0.05080  0.71120  0.88340  Biso   1.000  C
  C26      1.0000 0.94920  0.28880  0.11660  Biso   1.000  C
  H13      1.0000 0.01790  0.66920  0.88390  Biso   1.000  H
  H14      1.0000 0.98210  0.33080  0.11610  Biso   1.000  H
  C27      1.0000 0.27510  0.41000  0.79540  Biso   1.000  C
  C28      1.0000 0.72490  0.59000  0.20460  Biso   1.000  C
  C29      1.0000 0.98130  0.01350  0.20410  Biso   1.000  C
  C30      1.0000 0.01870  0.98650  0.79590  Biso   1.000  C
  C31      1.0000 0.08680  0.71200  0.83720  Biso   1.000  C
  C32      1.0000 0.91320  0.28800  0.16280  Biso   1.000  C
  H15      1.0000 0.07990  0.67210  0.80670  Biso   1.000  H
  H16      1.0000 0.92010  0.32790  0.19330  Biso   1.000  H
  C33      1.0000 0.30040  0.35730  0.76680  Biso   1.000  C
  C34      1.0000 0.69960  0.64270  0.23320  Biso   1.000  C
  H17      1.0000 0.26170  0.32720  0.72510  Biso   1.000  H
  H18      1.0000 0.73830  0.67280  0.27490  Biso   1.000  H
  C35      1.0000 0.98020  0.02920  0.14440  Biso   1.000  C
  C36      1.0000 0.01980  0.97080  0.85560  Biso   1.000  C
  H19      1.0000 0.94670  0.05720  0.12690  Biso   1.000  H
  H20      1.0000 0.05330  0.94280  0.87310  Biso   1.000  H
  C37      1.0000 0.13450  0.77350  0.83570  Biso   1.000  C
  C38      1.0000 0.86550  0.22650  0.16430  Biso   1.000  C
  H21      1.0000 0.15500  0.77770  0.80090  Biso   1.000  H
  H22      1.0000 0.84500  0.22230  0.19910  Biso   1.000  H
  C39      1.0000 0.37970  0.34970  0.79870  Biso   1.000  C
  C40      1.0000 0.62030  0.65030  0.20130  Biso   1.000  C
  H23      1.0000 0.39680  0.31530  0.77810  Biso   1.000  H
  H24      1.0000 0.60320  0.68470  0.22190  Biso   1.000  H
  C41      1.0000 0.02680  0.00510  0.10960  Biso   1.000  C
  C42      1.0000 0.97320  0.99490  0.89040  Biso   1.000  C
  H25      1.0000 0.02440  0.01520  0.06830  Biso   1.000  H
  H26      1.0000 0.97560  0.98480  0.93170  Biso   1.000  H
  C43      1.0000 0.15060  0.82700  0.88560  Biso   1.000  C
  C44      1.0000 0.84940  0.17300  0.11440  Biso   1.000  C
  H27      1.0000 0.18800  0.86870  0.88880  Biso   1.000  H
  H28      1.0000 0.81200  0.13130  0.11120  Biso   1.000  H
  C45      1.0000 0.43660  0.39200  0.86140  Biso   1.000  C
  C46      1.0000 0.56340  0.60800  0.13860  Biso   1.000  C
  C47      1.0000 0.07770  0.96520  0.13810  Biso   1.000  C
  C48      1.0000 0.92230  0.03480  0.86190  Biso   1.000  C
  C49      1.0000 0.11340  0.82130  0.93100  Biso   1.000  C
  C50      1.0000 0.88660  0.17870  0.06900  Biso   1.000  C
  H29      1.0000 0.12760  0.85940  0.96650  Biso   1.000  H
  H30      1.0000 0.87240  0.14060  0.03350  Biso   1.000  H
  C51      1.0000 0.41150  0.44160  0.89130  Biso   1.000  C
  C52      1.0000 0.58850  0.55840  0.10870  Biso   1.000  C
  H31      1.0000 0.44850  0.46950  0.93460  Biso   1.000  H
  H32      1.0000 0.55150  0.53050  0.06540  Biso   1.000  H
  C53      1.0000 0.07880  0.94890  0.19680  Biso   1.000  C
  C54      1.0000 0.92120  0.05110  0.80320  Biso   1.000  C
  H33      1.0000 0.11310  0.92170  0.21500  Biso   1.000  H
  H34      1.0000 0.88690  0.07830  0.78500  Biso   1.000  H
  C55      1.0000 0.33000  0.45060  0.85700  Biso   1.000  C
  C56      1.0000 0.67000  0.54940  0.14300  Biso   1.000  C
  H35      1.0000 0.31320  0.48550  0.87710  Biso   1.000  H
  H36      1.0000 0.68680  0.51450  0.12290  Biso   1.000  H
  C57      1.0000 0.02980  0.97210  0.22960  Biso   1.000  C
  C58      1.0000 0.97020  0.02790  0.77040  Biso   1.000  C
  H37      1.0000 0.02940  0.95970  0.26940  Biso   1.000  H
  H38      1.0000 0.97060  0.04030  0.73060  Biso   1.000  H
  C59      1.0000 0.87310  0.77950  0.89170  Biso   1.000  C
  C60      1.0000 0.12690  0.22050  0.10830  Biso   1.000  C
  H39      1.0000 0.88720  0.74800  0.86450  Biso   1.000  H
  H40      1.0000 0.11280  0.25200  0.13550  Biso   1.000  H
  C61      1.0000 0.02120  0.48900  0.79600  Biso   1.000  C
  C62      1.0000 0.97880  0.51100  0.20400  Biso   1.000  C
  C63      1.0000 0.96020  0.10840  0.41980  Biso   1.000  C
  C64      1.0000 0.03980  0.89160  0.58020  Biso   1.000  C
  C65      1.0000 0.81000  0.80830  0.86090  Biso   1.000  C
  C66      1.0000 0.19000  0.19170  0.13910  Biso   1.000  C
  H41      1.0000 0.77980  0.79620  0.81350  Biso   1.000  H
  H42      1.0000 0.22020  0.20380  0.18650  Biso   1.000  H
  C67      1.0000 0.02790  0.47840  0.85860  Biso   1.000  C
  C68      1.0000 0.97210  0.52160  0.14140  Biso   1.000  C
  H43      1.0000 0.06510  0.45370  0.87860  Biso   1.000  H
  H44      1.0000 0.93490  0.54630  0.12140  Biso   1.000  H
  C69      1.0000 0.00640  0.07180  0.45830  Biso   1.000  C
  C70      1.0000 0.99360  0.92820  0.54170  Biso   1.000  C
  H45      1.0000 0.01440  0.03310  0.43600  Biso   1.000  H
  H46      1.0000 0.98560  0.96690  0.56400  Biso   1.000  H
  C71      1.0000 0.79180  0.85690  0.90340  Biso   1.000  C
  C72      1.0000 0.20820  0.14310  0.09660  Biso   1.000  C
  H47      1.0000 0.74690  0.87630  0.88520  Biso   1.000  H
  H48      1.0000 0.25310  0.12370  0.11480  Biso   1.000  H
  C73      1.0000 0.98060  0.50360  0.89260  Biso   1.000  C
  C74      1.0000 0.01940  0.49640  0.10740  Biso   1.000  C
  H49      1.0000 0.98610  0.49660  0.93550  Biso   1.000  H
  H50      1.0000 0.01390  0.50340  0.06450  Biso   1.000  H
  C75      1.0000 0.04060  0.09060  0.52740  Biso   1.000  C
  C76      1.0000 0.95940  0.90940  0.47260  Biso   1.000  C
  H51      1.0000 0.07220  0.06480  0.55180  Biso   1.000  H
  H52      1.0000 0.92780  0.93520  0.44820  Biso   1.000  H
  C77      1.0000 0.83850  0.87380  0.96740  Biso   1.000  C
  C78      1.0000 0.16150  0.12620  0.03260  Biso   1.000  C
  H53      1.0000 0.83050  0.90880  0.99530  Biso   1.000  H
  H54      1.0000 0.16950  0.09120  0.00470  Biso   1.000  H
  C79      1.0000 0.92580  0.53880  0.86280  Biso   1.000  C
  C80      1.0000 0.07420  0.46120  0.13720  Biso   1.000  C
  C81      1.0000 0.02990  0.14650  0.56230  Biso   1.000  C
  C82      1.0000 0.97010  0.85350  0.43770  Biso   1.000  C
  C83      1.0000 0.89960  0.84260  0.99660  Biso   1.000  C
  C84      1.0000 0.10040  0.15740  0.00340  Biso   1.000  C
  H55      1.0000 0.93070  0.85550  0.04390  Biso   1.000  H
  H56      1.0000 0.06930  0.14450  0.95610  Biso   1.000  H
  C85      1.0000 0.91950  0.55060  0.80170  Biso   1.000  C
  C86      1.0000 0.08050  0.44940  0.19830  Biso   1.000  C
  H57      1.0000 0.88130  0.57470  0.78190  Biso   1.000  H
  H58      1.0000 0.11870  0.42530  0.21810  Biso   1.000  H
  C87      1.0000 0.97930  0.17970  0.52440  Biso   1.000  C
  C88      1.0000 0.02070  0.82030  0.47560  Biso   1.000  C
  H59      1.0000 0.96530  0.21500  0.54690  Biso   1.000  H
  H60      1.0000 0.03470  0.78500  0.45310  Biso   1.000  H
  C89      1.0000 0.96830  0.52780  0.76810  Biso   1.000  C
  C90      1.0000 0.03170  0.47220  0.23190  Biso   1.000  C
  H61      1.0000 0.96580  0.53840  0.72700  Biso   1.000  H
  H62      1.0000 0.03420  0.46160  0.27300  Biso   1.000  H
  C91      1.0000 0.94810  0.16390  0.45510  Biso   1.000  C
  C92      1.0000 0.05190  0.83610  0.54490  Biso   1.000  C
  H63      1.0000 0.91820  0.19080  0.43130  Biso   1.000  H
  H64      1.0000 0.08180  0.80920  0.56870  Biso   1.000  H
  C93      1.0000 0.88780  0.69480  0.05960  Biso   1.000  C
  C94      1.0000 0.11220  0.30520  0.94040  Biso   1.000  C
  H65      1.0000 0.85230  0.67320  0.01380  Biso   1.000  H
  H66      1.0000 0.14770  0.32680  0.98620  Biso   1.000  H
  C95      1.0000 0.72310  0.08830  0.20230  Biso   1.000  C
  C96      1.0000 0.27690  0.91170  0.79770  Biso   1.000  C
  C97      1.0000 0.85590  0.67920  0.10790  Biso   1.000  C
  C98      1.0000 0.14410  0.32080  0.89210  Biso   1.000  C
  H67      1.0000 0.80110  0.64770  0.09610  Biso   1.000  H
  H68      1.0000 0.19890  0.35230  0.90390  Biso   1.000  H
  C99      1.0000 0.66480  0.04320  0.14340  Biso   1.000  C
  C100     1.0000 0.33520  0.95680  0.85660  Biso   1.000  C
  H69      1.0000 0.68080  0.00680  0.12520  Biso   1.000  H
  H70      1.0000 0.31920  0.99320  0.87480  Biso   1.000  H
  C101     1.0000 0.90700  0.71122  0.17200  Biso   1.000  C
  C102     1.0000 0.09300  0.28878  0.82800  Biso   1.000  C
  H71      1.0000 0.88590  0.70560  0.20640  Biso   1.000  H
  H72      1.0000 0.11410  0.29440  0.79360  Biso   1.000  H
  C103     1.0000 0.58270  0.04982  0.10950  Biso   1.000  C
  C104     1.0000 0.41730  0.95018  0.89050  Biso   1.000  C
  H73      1.0000 0.54320  0.01820  0.06890  Biso   1.000  H
  H74      1.0000 0.45680  0.98180  0.93110  Biso   1.000  H
  C105     1.0000 0.99260  0.75370  0.18930  Biso   1.000  C
  C106     1.0000 0.00740  0.24630  0.81070  Biso   1.000  C
  H75      1.0000 0.03120  0.77260  0.23490  Biso   1.000  H
  H76      1.0000 0.96880  0.22740  0.76510  Biso   1.000  H
  C107     1.0000 0.56090  0.10350  0.13650  Biso   1.000  C
  C108     1.0000 0.43910  0.89650  0.86350  Biso   1.000  C
  C109     1.0000 0.01620  0.76580  0.13920  Biso   1.000  C
  C110     1.0000 0.98380  0.23420  0.86080  Biso   1.000  C
  H77      1.0000 0.07180  0.79560  0.14970  Biso   1.000  H
  H78      1.0000 0.92820  0.20440  0.85030  Biso   1.000  H
  C111     1.0000 0.61850  0.15040  0.19490  Biso   1.000  C
  C112     1.0000 0.38150  0.84960  0.80510  Biso   1.000  C
  H79      1.0000 0.60210  0.18710  0.21200  Biso   1.000  H
  H80      1.0000 0.39790  0.81290  0.78800  Biso   1.000  H
  C113     1.0000 0.69970  0.14440  0.22850  Biso   1.000  C
  C114     1.0000 0.30030  0.85560  0.77150  Biso   1.000  C
  H81      1.0000 0.73950  0.17690  0.26830  Biso   1.000  H
  H82      1.0000 0.26050  0.82310  0.73170  Biso   1.000  H
  C115     1.0000 0.03960  0.39930  0.57800  Biso   1.000  C
  C116     1.0000 0.96040  0.60070  0.42200  Biso   1.000  C
  C117     1.0000 0.99510  0.43940  0.54490  Biso   1.000  C
  C118     1.0000 0.00490  0.56060  0.45510  Biso   1.000  C
  H83      1.0000 0.98930  0.47750  0.57000  Biso   1.000  H
  H84      1.0000 0.01070  0.52250  0.43000  Biso   1.000  H
  C119     1.0000 0.95920  0.42350  0.47510  Biso   1.000  C
  C120     1.0000 0.04080  0.57650  0.52490  Biso   1.000  C
  H85      1.0000 0.92880  0.45090  0.45260  Biso   1.000  H
  H86      1.0000 0.07120  0.54910  0.54740  Biso   1.000  H
  C121     1.0000 0.96770  0.36770  0.43840  Biso   1.000  C
  C122     1.0000 0.03230  0.63230  0.56160  Biso   1.000  C
  C123     1.0000 0.01220  0.32760  0.47150  Biso   1.000  C
  C124     1.0000 0.98780  0.67240  0.52850  Biso   1.000  C
  H87      1.0000 0.01800  0.28950  0.44640  Biso   1.000  H
  H88      1.0000 0.98200  0.71050  0.55360  Biso   1.000  H
  C125     1.0000 0.04810  0.34350  0.54120  Biso   1.000  C
  C126     1.0000 0.95190  0.65650  0.45880  Biso   1.000  C
  H89      1.0000 0.07850  0.31610  0.56380  Biso   1.000  H
  H90      1.0000 0.92150  0.68390  0.43620  Biso   1.000  H
  C127     1.0000 0.09250  0.65190  0.03980  Biso   1.000  C
  C128     1.0000 0.90750  0.34810  0.96020  Biso   1.000  C
  H91      1.0000 0.03390  0.62470  0.02200  Biso   1.000  H
  H92      1.0000 0.96610  0.37530  0.97800  Biso   1.000  H
  C129     1.0000 0.15670  0.62200  0.06080  Biso   1.000  C
  C130     1.0000 0.84330  0.37800  0.93920  Biso   1.000  C
  H93      1.0000 0.14140  0.57530  0.05670  Biso   1.000  H
  H94      1.0000 0.85860  0.42470  0.94330  Biso   1.000  H
  C131     1.0000 0.23900  0.65660  0.08640  Biso   1.000  C
  C132     1.0000 0.76100  0.34340  0.91360  Biso   1.000  C
  H95      1.0000 0.28320  0.63640  0.10400  Biso   1.000  H
  H96      1.0000 0.71680  0.36360  0.89600  Biso   1.000  H
  C133     1.0000 0.25980  0.72390  0.08720  Biso   1.000  C
  C134     1.0000 0.74020  0.27610  0.91280  Biso   1.000  C
  H97      1.0000 0.31850  0.74970  0.10130  Biso   1.000  H
  H98      1.0000 0.68150  0.25030  0.89870  Biso   1.000  H
  C135     1.0000 0.19300  0.75210  0.06710  Biso   1.000  C
  C136     1.0000 0.80700  0.24790  0.93290  Biso   1.000  C
  H99      1.0000 0.20670  0.79850  0.07000  Biso   1.000  H
  H100     1.0000 0.79330  0.20150  0.93000  Biso   1.000  H
  C137     1.0000 0.59550  0.15450  0.99450  Biso   1.000  C
  C138     1.0000 0.40450  0.84550  0.00550  Biso   1.000  C
  H101     1.0000 0.61160  0.16580  0.04180  Biso   1.000  H
  H102     1.0000 0.38840  0.83420  0.95820  Biso   1.000  H
  C139     1.0000 0.62810  0.10940  0.96790  Biso   1.000  C
  C140     1.0000 0.37190  0.89060  0.03210  Biso   1.000  C
  H103     1.0000 0.66430  0.08880  0.99610  Biso   1.000  H
  H104     1.0000 0.33570  0.91120  0.00390  Biso   1.000  H
  C141     1.0000 0.60850  0.09400  0.90100  Biso   1.000  C
  C142     1.0000 0.39150  0.90600  0.09900  Biso   1.000  C
  H105     1.0000 0.63500  0.06580  0.88210  Biso   1.000  H
  H106     1.0000 0.36500  0.93420  0.11790  Biso   1.000  H
  C143     1.0000 0.54840  0.12050  0.86010  Biso   1.000  C
  C144     1.0000 0.45160  0.87950  0.13990  Biso   1.000  C
  H107     1.0000 0.52960  0.10800  0.81260  Biso   1.000  H
  H108     1.0000 0.47040  0.89200  0.18740  Biso   1.000  H
  C145     1.0000 0.51730  0.16490  0.89050  Biso   1.000  C
  C146     1.0000 0.48270  0.83510  0.10950  Biso   1.000  C
  H109     1.0000 0.47670  0.18320  0.86330  Biso   1.000  H
  H110     1.0000 0.52330  0.81680  0.13670  Biso   1.000  H
  C147     1.0000 0.31770  0.14320  0.92950  Biso   1.000  C
  C148     1.0000 0.68230  0.85680  0.07050  Biso   1.000  C
  H111     1.0000 0.34050  0.12110  0.96290  Biso   1.000  H
  H112     1.0000 0.65950  0.87890  0.03710  Biso   1.000  H
  C149     1.0000 0.23230  0.11590  0.88500  Biso   1.000  C
  C150     1.0000 0.76770  0.88410  0.11500  Biso   1.000  C
  H113     1.0000 0.19720  0.07680  0.88920  Biso   1.000  H
  H114     1.0000 0.80280  0.92320  0.11080  Biso   1.000  H
  C151     1.0000 0.19890  0.14460  0.83590  Biso   1.000  C
  C152     1.0000 0.80110  0.85540  0.16410  Biso   1.000  C
  H115     1.0000 0.14250  0.12360  0.80200  Biso   1.000  H
  H116     1.0000 0.85750  0.87640  0.19800  Biso   1.000  H
  C153     1.0000 0.24770  0.20520  0.83540  Biso   1.000  C
  C154     1.0000 0.75230  0.79480  0.16460  Biso   1.000  C
  H117     1.0000 0.22410  0.22870  0.80370  Biso   1.000  H
  H118     1.0000 0.77590  0.77130  0.19630  Biso   1.000  H
  C155     1.0000 0.33120  0.23060  0.88190  Biso   1.000  C
  C156     1.0000 0.66880  0.76940  0.11810  Biso   1.000  C
  H119     1.0000 0.36430  0.27280  0.88190  Biso   1.000  H
  H120     1.0000 0.63570  0.72720  0.11810  Biso   1.000  H
  C157     1.0000 0.37390  0.28150  0.06560  Biso   1.000  C
  C158     1.0000 0.62610  0.71850  0.93440  Biso   1.000  C
  H121     1.0000 0.36190  0.23600  0.06680  Biso   1.000  H
  H122     1.0000 0.63810  0.76400  0.93320  Biso   1.000  H
  C159     1.0000 0.32790  0.32040  0.08770  Biso   1.000  C
  C160     1.0000 0.67210  0.67960  0.91230  Biso   1.000  C
  H123     1.0000 0.28470  0.30210  0.10330  Biso   1.000  H
  H124     1.0000 0.71530  0.69790  0.89670  Biso   1.000  H
  C161     1.0000 0.34820  0.38710  0.08570  Biso   1.000  C
  C162     1.0000 0.65180  0.61290  0.91430  Biso   1.000  C
  H125     1.0000 0.32170  0.41620  0.10330  Biso   1.000  H
  H126     1.0000 0.67830  0.58380  0.89670  Biso   1.000  H
  C163     1.0000 0.40450  0.40950  0.05940  Biso   1.000  C
  C164     1.0000 0.59550  0.59050  0.94060  Biso   1.000  C
  H127     1.0000 0.41480  0.45360  0.05410  Biso   1.000  H
  H128     1.0000 0.58520  0.54640  0.94590  Biso   1.000  H
  C165     1.0000 0.44820  0.36840  0.03970  Biso   1.000  C
  C166     1.0000 0.55180  0.63160  0.96030  Biso   1.000  C
  H129     1.0000 0.49030  0.38680  0.02310  Biso   1.000  H
  H130     1.0000 0.50970  0.61320  0.97690  Biso   1.000  H
  C167     1.0000 0.61950  0.30280  0.13700  Biso   1.000  C
  C168     1.0000 0.38050  0.69720  0.86300  Biso   1.000  C
  H131     1.0000 0.57350  0.27940  0.14730  Biso   1.000  H
  H132     1.0000 0.42650  0.72060  0.85270  Biso   1.000  H
  C169     1.0000 0.69700  0.34070  0.18780  Biso   1.000  C
  C170     1.0000 0.30300  0.65930  0.81220  Biso   1.000  C
  H133     1.0000 0.70400  0.34560  0.23340  Biso   1.000  H
  H134     1.0000 0.29600  0.65440  0.76660  Biso   1.000  H
  C171     1.0000 0.76810  0.37310  0.17070  Biso   1.000  C
  C172     1.0000 0.23190  0.62690  0.82930  Biso   1.000  C
  H135     1.0000 0.82490  0.39290  0.20430  Biso   1.000  H
  H136     1.0000 0.17510  0.60710  0.79570  Biso   1.000  H
  C173     1.0000 0.75180  0.37450  0.10720  Biso   1.000  C
  C174     1.0000 0.24820  0.62550  0.89280  Biso   1.000  C
  H137     1.0000 0.79320  0.40140  0.09500  Biso   1.000  H
  H138     1.0000 0.20680  0.59860  0.90500  Biso   1.000  H
  C175     1.0000 0.67130  0.33470  0.05920  Biso   1.000  C
  C176     1.0000 0.32870  0.66530  0.94080  Biso   1.000  C
  H139     1.0000 0.66110  0.33340  0.01340  Biso   1.000  H
  H140     1.0000 0.33890  0.66660  0.98660  Biso   1.000  H
  N1       1.0000 0.05750  0.76468  0.92849  Biso   1.000  N
  N2       1.0000 0.94250  0.23532  0.07151  Biso   1.000  N
  N3       1.0000 0.91530  0.79492  0.95910  Biso   1.000  N
  N4       1.0000 0.08470  0.20508  0.04090  Biso   1.000  N
  N5       1.0000 0.96320  0.73705  0.07280  Biso   1.000  N
  N6       1.0000 0.03680  0.26295  0.92720  Biso   1.000  N
  N7       1.0000 0.10650  0.71460  0.04258  Biso   1.000  N
  N8       1.0000 0.89350  0.28540  0.95742  Biso   1.000  N
  N9       1.0000 0.54230  0.18354  0.95780  Biso   1.000  N
  N10      1.0000 0.45770  0.81646  0.04220  Biso   1.000  N
  N11      1.0000 0.37000  0.19950  0.92790  Biso   1.000  N
  N12      1.0000 0.63000  0.80050  0.07210  Biso   1.000  N
  N13      1.0000 0.43670  0.30715  0.04199  Biso   1.000  N
  N14      1.0000 0.56330  0.69285  0.95801  Biso   1.000  N
  N15      1.0000 0.60920  0.29921  0.07181  Biso   1.000  N
  N16      1.0000 0.39080  0.70079  0.92819  Biso   1.000  N
  O13      1.0000 0.76450  0.50776  0.02974  Biso   1.000  O
  O14      1.0000 0.23550  0.49224  0.97026  Biso   1.000  O
  O15      1.0000 0.23371  0.99212  0.96798  Biso   1.000  O
  O16      1.0000 0.76629  0.00788  0.03202  Biso   1.000  O
  O17      1.0000 0.49870  0.20580  0.62280  Biso   1.000  O
  O18      1.0000 0.50130  0.79420  0.37720  Biso   1.000  O
  O19      1.0000 0.37680  0.39560  0.37550  Biso   1.000  O
  O20      1.0000 0.62320  0.60440  0.62450  Biso   1.000  O
  O21      1.0000 0.39600  0.01790  0.41100  Biso   1.000  O
  O22      1.0000 0.60400  0.98210  0.58900  Biso   1.000  O
  O23      1.0000 0.51950  0.19200  0.41410  Biso   1.000  O
  O24      1.0000 0.48050  0.80800  0.58590  Biso   1.000  O
  O25      1.0000 0.35550  0.06190  0.22490  Biso   1.000  O
  O26      1.0000 0.64450  0.93810  0.77510  Biso   1.000  O
  O27      1.0000 0.48290  0.21900  0.73820  Biso   1.000  O
  O28      1.0000 0.51710  0.78100  0.26180  Biso   1.000  O
  O29      1.0000 0.24240  0.34940  0.25010  Biso   1.000  O
  O30      1.0000 0.75760  0.65060  0.74990  Biso   1.000  O
  O31      1.0000 0.51980  0.31814  0.92297  Biso   1.000  O
  O32      1.0000 0.48020  0.68186  0.07703  Biso   1.000  O
  O33      1.0000 0.58590  0.43619  0.96170  Biso   1.000  O
  O34      1.0000 0.41410  0.56381  0.03830  Biso   1.000  O
  O35      1.0000 0.57710  0.37510  0.85480  Biso   1.000  O
  O36      1.0000 0.42290  0.62490  0.14520  Biso   1.000  O
  O37      1.0000 0.77760  0.55000  0.85770  Biso   1.000  O
  O38      1.0000 0.22240  0.45000  0.14230  Biso   1.000  O
  O39      1.0000 0.90340  0.64359  0.92451  Biso   1.000  O
  O40      1.0000 0.09660  0.35641  0.07549  Biso   1.000  O
  O41      1.0000 0.87820  0.54527  0.96380  Biso   1.000  O
  O42      1.0000 0.12180  0.45473  0.03620  Biso   1.000  O
  O43      1.0000 0.10100  0.86197  0.07427  Biso   1.000  O
  O44      1.0000 0.89900  0.13803  0.92573  Biso   1.000  O
  O45      1.0000 0.12580  0.96190  0.03660  Biso   1.000  O
  O46      1.0000 0.87420  0.03810  0.96340  Biso   1.000  O
  O47      1.0000 0.22600  0.95360  0.14190  Biso   1.000  O
  O48      1.0000 0.77400  0.04640  0.85810  Biso   1.000  O
  O49      1.0000 0.47260  0.17470  0.07326  Biso   1.000  O
  O50      1.0000 0.52740  0.82530  0.92674  Biso   1.000  O
  O51      1.0000 0.41100  0.05670  0.03490  Biso   1.000  O
  O52      1.0000 0.58900  0.94330  0.96510  Biso   1.000  O
  O53      1.0000 0.41710  0.11810  0.14120  Biso   1.000  O
  O54      1.0000 0.58290  0.88190  0.85880  Biso   1.000  O
  O55      1.0000 0.16510  0.17670  0.66050  Biso   1.000  O
  O56      1.0000 0.83490  0.82330  0.33950  Biso   1.000  O
  O57      1.0000 0.06750  0.23370  0.67100  Biso   1.000  O
  O58      1.0000 0.93250  0.76630  0.32900  Biso   1.000  O
  O59      1.0000 0.04870  0.11510  0.67210  Biso   1.000  O
  O60      1.0000 0.95130  0.88490  0.32790  Biso   1.000  O
  S1       1.0000 0.53827  0.37927  0.90242  Biso   1.000  S
  S2       1.0000 0.46173  0.62073  0.09758  Biso   1.000  S
  S3       1.0000 0.86536  0.57145  0.90453  Biso   1.000  S
  S4       1.0000 0.13464  0.42855  0.09547  Biso   1.000  S
  S5       1.0000 0.92220  0.34446  0.34937  Biso   1.000  S
  S6       1.0000 0.07780  0.65554  0.65063  Biso   1.000  S
  S7       1.0000 0.13821  0.93370  0.09523  Biso   1.000  S
  S8       1.0000 0.86179  0.06630  0.90477  Biso   1.000  S
  S9       1.0000 0.45657  0.11353  0.09389  Biso   1.000  S
  S10      1.0000 0.54343  0.88647  0.90611  Biso   1.000  S
  S11      1.0000 0.07370  0.17105  0.65043  Biso   1.000  S
  S12      1.0000 0.92630  0.82895  0.34957  Biso   1.000  S
  Cu1      1.0000 0.00978  0.75427  0.00116  Biso   1.000  Cu
  Cu2      1.0000 0.99022  0.24573  0.99884  Biso   1.000  Cu
  Cu3      1.0000 0.49058  0.24615  0.99995  Biso   1.000  Cu
  Cu4      1.0000 0.50942  0.75385  0.00005  Biso   1.000  Cu
