data_image0
_cell_length_a       10.51
_cell_length_b       14.158
_cell_length_c       21.748
_cell_angle_alpha    108.91
_cell_angle_beta     93.16
_cell_angle_gamma    90.43

_symmetry_space_group_name_H-M    "P 1"
_symmetry_int_tables_number       1

loop_
  _symmetry_equiv_pos_as_xyz
  'x, y, z'

loop_
  _atom_site_label
  _atom_site_occupancy
  _atom_site_fract_x
  _atom_site_fract_y
  _atom_site_fract_z
  _atom_site_thermal_displace_type
  _atom_site_B_iso_or_equiv
  _atom_site_type_symbol
  N1       1.0000 0.10750  0.23860  0.33350  Biso   1.000  N
  N2       1.0000 0.89250  0.76140  0.66650  Biso   1.000  N
  C1       1.0000 0.13330  0.32030  0.31360  Biso   1.000  C
  C2       1.0000 0.86670  0.67970  0.68640  Biso   1.000  C
  H1       1.0000 0.21180  0.35670  0.32720  Biso   1.000  H
  H2       1.0000 0.78820  0.64330  0.67280  Biso   1.000  H
  C3       1.0000 0.04420  0.34870  0.27370  Biso   1.000  C
  C4       1.0000 0.95580  0.65130  0.72630  Biso   1.000  C
  H3       1.0000 0.06180  0.40450  0.26010  Biso   1.000  H
  H4       1.0000 0.93820  0.59550  0.73990  Biso   1.000  H
  C5       1.0000 0.92930  0.29530  0.25370  Biso   1.000  C
  C6       1.0000 0.07070  0.70470  0.74630  Biso   1.000  C
  H5       1.0000 0.86850  0.31470  0.22650  Biso   1.000  H
  H6       1.0000 0.13150  0.68530  0.77350  Biso   1.000  H
  C7       1.0000 0.90360  0.21360  0.27370  Biso   1.000  C
  C8       1.0000 0.09640  0.78640  0.72630  Biso   1.000  C
  H7       1.0000 0.82510  0.17720  0.26000  Biso   1.000  H
  H8       1.0000 0.17490  0.82280  0.74000  Biso   1.000  H
  C9       1.0000 0.99260  0.18530  0.31350  Biso   1.000  C
  C10      1.0000 0.00740  0.81470  0.68650  Biso   1.000  C
  H9       1.0000 0.97500  0.12940  0.32710  Biso   1.000  H
  H10      1.0000 0.02500  0.87060  0.67290  Biso   1.000  H
  N3       1.0000 0.20070  0.35200  0.46520  Biso   1.000  N
  N4       1.0000 0.79930  0.64800  0.53480  Biso   1.000  N
  C11      1.0000 0.17800  0.36710  0.53000  Biso   1.000  C
  C12      1.0000 0.82200  0.63290  0.47000  Biso   1.000  C
  H11      1.0000 0.16340  0.31160  0.54430  Biso   1.000  H
  H12      1.0000 0.83660  0.68840  0.45570  Biso   1.000  H
  C13      1.0000 0.17650  0.46360  0.57380  Biso   1.000  C
  C14      1.0000 0.82350  0.53640  0.42620  Biso   1.000  C
  H13      1.0000 0.16100  0.47390  0.61810  Biso   1.000  H
  H14      1.0000 0.83900  0.52610  0.38190  Biso   1.000  H
  C15      1.0000 0.19780  0.54490  0.55280  Biso   1.000  C
  C16      1.0000 0.80220  0.45510  0.44720  Biso   1.000  C
  H15      1.0000 0.19680  0.61080  0.58270  Biso   1.000  H
  H16      1.0000 0.80320  0.38920  0.41730  Biso   1.000  H
  C17      1.0000 0.22050  0.52980  0.48800  Biso   1.000  C
  C18      1.0000 0.77950  0.47020  0.51200  Biso   1.000  C
  H17      1.0000 0.23510  0.58530  0.47360  Biso   1.000  H
  H18      1.0000 0.76490  0.41470  0.52640  Biso   1.000  H
  C19      1.0000 0.22200  0.43330  0.44420  Biso   1.000  C
  C20      1.0000 0.77800  0.56670  0.55580  Biso   1.000  C
  H19      1.0000 0.23750  0.42290  0.39990  Biso   1.000  H
  H20      1.0000 0.76250  0.57710  0.60010  Biso   1.000  H
  N5       1.0000 0.95110  0.94250  0.07670  Biso   1.000  N
  N6       1.0000 0.04890  0.05750  0.92330  Biso   1.000  N
  C21      1.0000 0.93340  0.84130  0.06740  Biso   1.000  C
  C22      1.0000 0.06660  0.15870  0.93260  Biso   1.000  C
  H21      1.0000 0.93340  0.79420  0.02480  Biso   1.000  H
  H22      1.0000 0.06660  0.20580  0.97520  Biso   1.000  H
  C23      1.0000 0.91560  0.80910  0.12040  Biso   1.000  C
  C24      1.0000 0.08440  0.19090  0.87960  Biso   1.000  C
  H23      1.0000 0.90350  0.74000  0.11400  Biso   1.000  H
  H24      1.0000 0.09650  0.26000  0.88600  Biso   1.000  H
  C25      1.0000 0.91560  0.87810  0.18260  Biso   1.000  C
  C26      1.0000 0.08440  0.12190  0.81740  Biso   1.000  C
  H25      1.0000 0.90340  0.85610  0.21880  Biso   1.000  H
  H26      1.0000 0.09660  0.14390  0.78120  Biso   1.000  H
  C27      1.0000 0.93330  0.97930  0.19200  Biso   1.000  C
  C28      1.0000 0.06670  0.02070  0.80800  Biso   1.000  C
  H27      1.0000 0.93330  0.02650  0.23460  Biso   1.000  H
  H28      1.0000 0.06670  0.97350  0.76540  Biso   1.000  H
  C29      1.0000 0.95110  0.01150  0.13900  Biso   1.000  C
  C30      1.0000 0.04890  0.98850  0.86100  Biso   1.000  C
  H29      1.0000 0.96320  0.08070  0.14540  Biso   1.000  H
  H30      1.0000 0.03680  0.91930  0.85460  Biso   1.000  H
  N7       1.0000 0.14740  0.05990  0.05320  Biso   1.000  N
  N8       1.0000 0.85260  0.94010  0.94680  Biso   1.000  N
  C31      1.0000 0.17000  0.15980  0.06020  Biso   1.000  C
  C32      1.0000 0.83000  0.84020  0.93980  Biso   1.000  C
  H31      1.0000 0.10870  0.19510  0.04310  Biso   1.000  H
  H32      1.0000 0.89130  0.80490  0.95690  Biso   1.000  H
  C33      1.0000 0.28220  0.20800  0.09230  Biso   1.000  C
  C34      1.0000 0.71780  0.79200  0.90770  Biso   1.000  C
  H33      1.0000 0.29760  0.27630  0.09710  Biso   1.000  H
  H34      1.0000 0.70240  0.72370  0.90290  Biso   1.000  H
  C35      1.0000 0.37190  0.15630  0.11730  Biso   1.000  C
  C36      1.0000 0.62810  0.84370  0.88270  Biso   1.000  C
  H35      1.0000 0.44860  0.18930  0.13930  Biso   1.000  H
  H36      1.0000 0.55140  0.81070  0.86070  Biso   1.000  H
  C37      1.0000 0.34930  0.05640  0.11030  Biso   1.000  C
  C38      1.0000 0.65070  0.94360  0.88970  Biso   1.000  C
  H37      1.0000 0.41060  0.02100  0.12740  Biso   1.000  H
  H38      1.0000 0.58940  0.97900  0.87260  Biso   1.000  H
  C39      1.0000 0.23710  0.00820  0.07820  Biso   1.000  C
  C40      1.0000 0.76290  0.99180  0.92180  Biso   1.000  C
  H39      1.0000 0.22170  0.93980  0.07340  Biso   1.000  H
  H40      1.0000 0.77830  0.06020  0.92660  Biso   1.000  H
  N9       1.0000 0.90300  0.76030  0.66380  Biso   1.000  N
  N10      1.0000 0.09700  0.23970  0.33620  Biso   1.000  N
  C41      1.0000 0.86800  0.75940  0.72430  Biso   1.000  C
  C42      1.0000 0.13200  0.24060  0.27570  Biso   1.000  C
  H41      1.0000 0.78320  0.77410  0.73660  Biso   1.000  H
  H42      1.0000 0.21680  0.22590  0.26340  Biso   1.000  H
  C43      1.0000 0.95710  0.73680  0.76680  Biso   1.000  C
  C44      1.0000 0.04290  0.26320  0.23320  Biso   1.000  C
  H43      1.0000 0.93310  0.73620  0.80810  Biso   1.000  H
  H44      1.0000 0.06690  0.26380  0.19190  Biso   1.000  H
  C45      1.0000 0.08110  0.71520  0.74870  Biso   1.000  C
  C46      1.0000 0.91890  0.28480  0.25130  Biso   1.000  C
  H45      1.0000 0.14200  0.69990  0.77780  Biso   1.000  H
  H46      1.0000 0.85800  0.30010  0.22220  Biso   1.000  H
  C47      1.0000 0.11610  0.71620  0.68820  Biso   1.000  C
  C48      1.0000 0.88390  0.28380  0.31180  Biso   1.000  C
  H47      1.0000 0.20090  0.70140  0.67590  Biso   1.000  H
  H48      1.0000 0.79910  0.29860  0.32410  Biso   1.000  H
  C49      1.0000 0.02710  0.73870  0.64570  Biso   1.000  C
  C50      1.0000 0.97290  0.26130  0.35430  Biso   1.000  C
  H49      1.0000 0.05100  0.73930  0.60440  Biso   1.000  H
  H50      1.0000 0.94900  0.26070  0.39560  Biso   1.000  H
  N11      1.0000 0.76190  0.65610  0.54540  Biso   1.000  N
  N12      1.0000 0.23810  0.34390  0.45460  Biso   1.000  N
  C51      1.0000 0.87380  0.60820  0.52370  Biso   1.000  C
  C52      1.0000 0.12620  0.39180  0.47630  Biso   1.000  C
  H51      1.0000 0.95250  0.64480  0.53270  Biso   1.000  H
  H52      1.0000 0.04750  0.35520  0.46730  Biso   1.000  H
  C53      1.0000 0.87040  0.50670  0.48890  Biso   1.000  C
  C54      1.0000 0.12960  0.49330  0.51110  Biso   1.000  C
  H53      1.0000 0.94690  0.47390  0.47410  Biso   1.000  H
  H54      1.0000 0.05310  0.52610  0.52590  Biso   1.000  H
  C55      1.0000 0.75520  0.45310  0.47580  Biso   1.000  C
  C56      1.0000 0.24480  0.54690  0.52420  Biso   1.000  C
  H55      1.0000 0.75290  0.38370  0.45200  Biso   1.000  H
  H56      1.0000 0.24710  0.61630  0.54800  Biso   1.000  H
  C57      1.0000 0.64330  0.50100  0.49750  Biso   1.000  C
  C58      1.0000 0.35670  0.49900  0.50250  Biso   1.000  C
  H57      1.0000 0.56450  0.46430  0.48850  Biso   1.000  H
  H58      1.0000 0.43550  0.53570  0.51150  Biso   1.000  H
  C59      1.0000 0.64660  0.60250  0.53230  Biso   1.000  C
  C60      1.0000 0.35340  0.39750  0.46770  Biso   1.000  C
  H59      1.0000 0.57010  0.63530  0.54710  Biso   1.000  H
  H60      1.0000 0.42990  0.36470  0.45290  Biso   1.000  H
  N13      1.0000 0.96280  0.96840  0.07320  Biso   1.000  N
  N14      1.0000 0.03720  0.03160  0.92680  Biso   1.000  N
  C61      1.0000 0.04020  0.90130  0.09100  Biso   1.000  C
  C62      1.0000 0.95980  0.09870  0.90900  Biso   1.000  C
  H61      1.0000 0.11430  0.87770  0.06820  Biso   1.000  H
  H62      1.0000 0.88570  0.12230  0.93180  Biso   1.000  H
  C63      1.0000 0.00920  0.86850  0.14220  Biso   1.000  C
  C64      1.0000 0.99080  0.13150  0.85780  Biso   1.000  C
  H63      1.0000 0.06220  0.82260  0.15440  Biso   1.000  H
  H64      1.0000 0.93780  0.17740  0.84560  Biso   1.000  H
  C65      1.0000 0.90090  0.90290  0.17560  Biso   1.000  C
  C66      1.0000 0.09910  0.09710  0.82440  Biso   1.000  C
  H65      1.0000 0.87970  0.88050  0.21050  Biso   1.000  H
  H66      1.0000 0.12030  0.11950  0.78950  Biso   1.000  H
  C67      1.0000 0.82350  0.97010  0.15780  Biso   1.000  C
  C68      1.0000 0.17650  0.02990  0.84220  Biso   1.000  C
  H67      1.0000 0.74940  0.99360  0.18060  Biso   1.000  H
  H68      1.0000 0.25060  0.00640  0.81940  Biso   1.000  H
  C69      1.0000 0.85440  0.00290  0.10660  Biso   1.000  C
  C70      1.0000 0.14560  0.99710  0.89340  Biso   1.000  C
  H69      1.0000 0.80150  0.04880  0.09440  Biso   1.000  H
  H70      1.0000 0.19850  0.95120  0.90560  Biso   1.000  H
  N15      1.0000 0.16970  0.07430  0.04740  Biso   1.000  N
  N16      1.0000 0.83030  0.92570  0.95260  Biso   1.000  N
  C71      1.0000 0.28460  0.03790  0.02180  Biso   1.000  C
  C72      1.0000 0.71540  0.96210  0.97820  Biso   1.000  C
  H71      1.0000 0.28600  0.99530  0.97790  Biso   1.000  H
  H72      1.0000 0.71400  0.00470  0.02210  Biso   1.000  H
  C73      1.0000 0.39760  0.06380  0.06040  Biso   1.000  C
  C74      1.0000 0.60240  0.93620  0.93960  Biso   1.000  C
  H73      1.0000 0.47610  0.03890  0.04290  Biso   1.000  H
  H74      1.0000 0.52390  0.96110  0.95710  Biso   1.000  H
  C75      1.0000 0.39550  0.12610  0.12460  Biso   1.000  C
  C76      1.0000 0.60450  0.87390  0.87540  Biso   1.000  C
  H75      1.0000 0.47270  0.14380  0.15090  Biso   1.000  H
  H76      1.0000 0.52730  0.85620  0.84910  Biso   1.000  H
  C77      1.0000 0.28060  0.16250  0.15010  Biso   1.000  C
  C78      1.0000 0.71940  0.83750  0.84990  Biso   1.000  C
  H77      1.0000 0.27920  0.20510  0.19400  Biso   1.000  H
  H78      1.0000 0.72080  0.79490  0.80600  Biso   1.000  H
  C79      1.0000 0.16770  0.13660  0.11150  Biso   1.000  C
  C80      1.0000 0.83230  0.86340  0.88850  Biso   1.000  C
  H79      1.0000 0.08910  0.16140  0.12900  Biso   1.000  H
  H80      1.0000 0.91090  0.83860  0.87100  Biso   1.000  H
  Cu1      1.0000 0.22539  0.20657  0.40036  Biso   1.000  Cu
  Cu2      1.0000 0.77461  0.79343  0.59964  Biso   1.000  Cu
  Cu3      1.0000 0.00000  0.00000  0.00000  Biso   1.000  Cu
  S1       1.0000 0.91642  0.15537  0.47441  Biso   1.000  S
  S2       1.0000 0.08358  0.84463  0.52559  Biso   1.000  S
  O1       1.0000 0.85670  0.24700  0.47410  Biso   1.000  O
  O2       1.0000 0.14330  0.75300  0.52590  Biso   1.000  O
  O3       1.0000 0.05030  0.15330  0.46040  Biso   1.000  O
  O4       1.0000 0.94970  0.84670  0.53960  Biso   1.000  O
  O5       1.0000 0.89440  0.13020  0.53310  Biso   1.000  O
  O6       1.0000 0.10560  0.86980  0.46690  Biso   1.000  O
  S3       1.0000 0.20927  0.76952  0.92797  Biso   1.000  S
  S4       1.0000 0.79073  0.23048  0.07203  Biso   1.000  S
  O7       1.0000 0.29790  0.80480  0.89240  Biso   1.000  O
  O8       1.0000 0.70210  0.19520  0.10760  Biso   1.000  O
  O9       1.0000 0.11340  0.84050  0.95460  Biso   1.000  O
  O10      1.0000 0.88660  0.15950  0.04540  Biso   1.000  O
  O11      1.0000 0.15550  0.67050  0.89270  Biso   1.000  O
  O12      1.0000 0.84450  0.32950  0.10730  Biso   1.000  O
  S5       1.0000 0.51517  0.26947  0.31710  Biso   1.000  S
  S6       1.0000 0.48483  0.73053  0.68290  Biso   1.000  S
  O13      1.0000 0.61220  0.28350  0.36820  Biso   1.000  O
  O14      1.0000 0.38780  0.71650  0.63180  Biso   1.000  O
  O15      1.0000 0.53700  0.18470  0.26090  Biso   1.000  O
  O16      1.0000 0.46300  0.81530  0.73910  Biso   1.000  O
  O17      1.0000 0.38920  0.26890  0.34070  Biso   1.000  O
  O18      1.0000 0.61080  0.73110  0.65930  Biso   1.000  O
  C81      1.0000 0.64400  0.81040  0.26510  Biso   1.000  C
  C82      1.0000 0.35600  0.18960  0.73490  Biso   1.000  C
  C83      1.0000 0.58290  0.81490  0.20720  Biso   1.000  C
  C84      1.0000 0.41710  0.18510  0.79280  Biso   1.000  C
  H81      1.0000 0.59160  0.87400  0.19600  Biso   1.000  H
  H82      1.0000 0.40840  0.12600  0.80400  Biso   1.000  H
  C85      1.0000 0.50950  0.73440  0.16580  Biso   1.000  C
  C86      1.0000 0.49050  0.26560  0.83420  Biso   1.000  C
  C87      1.0000 0.50100  0.64770  0.18230  Biso   1.000  C
  C88      1.0000 0.49900  0.35230  0.81770  Biso   1.000  C
  H83      1.0000 0.45340  0.59180  0.15390  Biso   1.000  H
  H84      1.0000 0.54660  0.40820  0.84610  Biso   1.000  H
  C89      1.0000 0.56020  0.64080  0.23940  Biso   1.000  C
  C90      1.0000 0.43980  0.35920  0.76060  Biso   1.000  C
  C91      1.0000 0.62980  0.72290  0.28020  Biso   1.000  C
  C92      1.0000 0.37020  0.27710  0.71980  Biso   1.000  C
  H85      1.0000 0.66920  0.71920  0.31970  Biso   1.000  H
  H86      1.0000 0.33080  0.28080  0.68030  Biso   1.000  H
  C93      1.0000 0.71780  0.89730  0.31160  Biso   1.000  C
  C94      1.0000 0.28220  0.10270  0.68840  Biso   1.000  C
  C95      1.0000 0.68080  0.99500  0.32100  Biso   1.000  C
  C96      1.0000 0.31920  0.00500  0.67900  Biso   1.000  C
  H87      1.0000 0.61280  0.00730  0.29420  Biso   1.000  H
  H88      1.0000 0.38720  0.99270  0.70580  Biso   1.000  H
  C97      1.0000 0.74210  0.07540  0.36940  Biso   1.000  C
  C98      1.0000 0.25790  0.92460  0.63060  Biso   1.000  C
  H89      1.0000 0.71650  0.14180  0.37530  Biso   1.000  H
  H90      1.0000 0.28350  0.85820  0.62470  Biso   1.000  H
  C99      1.0000 0.84140  0.05680  0.40870  Biso   1.000  C
  C100     1.0000 0.15860  0.94320  0.59130  Biso   1.000  C
  C101     1.0000 0.88020  0.95940  0.39880  Biso   1.000  C
  C102     1.0000 0.11980  0.04060  0.60120  Biso   1.000  C
  H91      1.0000 0.94770  0.94710  0.42580  Biso   1.000  H
  H92      1.0000 0.05230  0.05290  0.57420  Biso   1.000  H
  C103     1.0000 0.82120  0.88060  0.34990  Biso   1.000  C
  C104     1.0000 0.17880  0.11940  0.65010  Biso   1.000  C
  H93      1.0000 0.85090  0.81480  0.34220  Biso   1.000  H
  H94      1.0000 0.14910  0.18520  0.65780  Biso   1.000  H
  C105     1.0000 0.43900  0.74180  0.10700  Biso   1.000  C
  C106     1.0000 0.56100  0.25820  0.89300  Biso   1.000  C
  C107     1.0000 0.48820  0.79450  0.06910  Biso   1.000  C
  C108     1.0000 0.51180  0.20550  0.93090  Biso   1.000  C
  H95      1.0000 0.57050  0.82540  0.08050  Biso   1.000  H
  H96      1.0000 0.42950  0.17460  0.91950  Biso   1.000  H
  C109     1.0000 0.41910  0.80270  0.01490  Biso   1.000  C
  C110     1.0000 0.58090  0.19730  0.98510  Biso   1.000  C
  H97      1.0000 0.45390  0.83980  0.99010  Biso   1.000  H
  H98      1.0000 0.54610  0.16020  0.00990  Biso   1.000  H
  C111     1.0000 0.29950  0.75700  0.99670  Biso   1.000  C
  C112     1.0000 0.70050  0.24300  0.00330  Biso   1.000  C
  C113     1.0000 0.25010  0.70270  0.03310  Biso   1.000  C
  C114     1.0000 0.74990  0.29730  0.96690  Biso   1.000  C
  H99      1.0000 0.16930  0.66940  0.02030  Biso   1.000  H
  H100     1.0000 0.83070  0.33060  0.97970  Biso   1.000  H
  C115     1.0000 0.31740  0.69690  0.08730  Biso   1.000  C
  C116     1.0000 0.68260  0.30310  0.91270  Biso   1.000  C
  H101     1.0000 0.28070  0.66130  0.11260  Biso   1.000  H
  H102     1.0000 0.71930  0.33870  0.88740  Biso   1.000  H
  C117     1.0000 0.54840  0.54860  0.25700  Biso   1.000  C
  C118     1.0000 0.45160  0.45140  0.74300  Biso   1.000  C
  C119     1.0000 0.57690  0.45510  0.21390  Biso   1.000  C
  C120     1.0000 0.42310  0.54490  0.78610  Biso   1.000  C
  H103     1.0000 0.60430  0.44980  0.17200  Biso   1.000  H
  H104     1.0000 0.39570  0.55020  0.82800  Biso   1.000  H
  C121     1.0000 0.56550  0.37010  0.23170  Biso   1.000  C
  C122     1.0000 0.43450  0.62990  0.76830  Biso   1.000  C
  H105     1.0000 0.58490  0.30680  0.20200  Biso   1.000  H
  H106     1.0000 0.41510  0.69320  0.79800  Biso   1.000  H
  C123     1.0000 0.52650  0.37670  0.29180  Biso   1.000  C
  C124     1.0000 0.47350  0.62330  0.70820  Biso   1.000  C
  C125     1.0000 0.50400  0.46840  0.33630  Biso   1.000  C
  C126     1.0000 0.49600  0.53160  0.66370  Biso   1.000  C
  H107     1.0000 0.48030  0.47300  0.37860  Biso   1.000  H
  H108     1.0000 0.51970  0.52700  0.62140  Biso   1.000  H
  C127     1.0000 0.51610  0.55470  0.31900  Biso   1.000  C
  C128     1.0000 0.48390  0.44530  0.68100  Biso   1.000  C
  H109     1.0000 0.50200  0.61810  0.35000  Biso   1.000  H
  H110     1.0000 0.49800  0.38190  0.65000  Biso   1.000  H
  N17      1.0000 0.35370  0.17830  0.46520  Biso   1.000  N
  N18      1.0000 0.64630  0.82170  0.53480  Biso   1.000  N
  C129     1.0000 0.47150  0.21710  0.47290  Biso   1.000  C
  C130     1.0000 0.52850  0.78290  0.52710  Biso   1.000  C
  H111     1.0000 0.49230  0.25840  0.44780  Biso   1.000  H
  H112     1.0000 0.50770  0.74160  0.55220  Biso   1.000  H
  C131     1.0000 0.56540  0.20100  0.51500  Biso   1.000  C
  C132     1.0000 0.43460  0.79900  0.48500  Biso   1.000  C
  H113     1.0000 0.64860  0.22950  0.51780  Biso   1.000  H
  H114     1.0000 0.35140  0.77050  0.48220  Biso   1.000  H
  C133     1.0000 0.53800  0.14400  0.55250  Biso   1.000  C
  C134     1.0000 0.46200  0.85600  0.44750  Biso   1.000  C
  H115     1.0000 0.60070  0.13180  0.58210  Biso   1.000  H
  H116     1.0000 0.39930  0.86820  0.41790  Biso   1.000  H
  C135     1.0000 0.41600  0.10460  0.54610  Biso   1.000  C
  C136     1.0000 0.58400  0.89540  0.45390  Biso   1.000  C
  H117     1.0000 0.39350  0.06380  0.57110  Biso   1.000  H
  H118     1.0000 0.60650  0.93620  0.42890  Biso   1.000  H
  C137     1.0000 0.32510  0.12440  0.50300  Biso   1.000  C
  C138     1.0000 0.67490  0.87560  0.49700  Biso   1.000  C
  H119     1.0000 0.24050  0.09870  0.50040  Biso   1.000  H
  H120     1.0000 0.75950  0.90130  0.49960  Biso   1.000  H
  N19      1.0000 0.23350  0.06390  0.34170  Biso   1.000  N
  N20      1.0000 0.76650  0.93610  0.65830  Biso   1.000  N
  C139     1.0000 0.18460  0.98830  0.35780  Biso   1.000  C
  C140     1.0000 0.81540  0.01170  0.64220  Biso   1.000  C
  H121     1.0000 0.14170  0.00370  0.39700  Biso   1.000  H
  H122     1.0000 0.85830  0.99630  0.60300  Biso   1.000  H
  C141     1.0000 0.19300  0.88910  0.32050  Biso   1.000  C
  C142     1.0000 0.80700  0.11090  0.67950  Biso   1.000  C
  H123     1.0000 0.15800  0.83790  0.33450  Biso   1.000  H
  H124     1.0000 0.84200  0.16210  0.66550  Biso   1.000  H
  C143     1.0000 0.25250  0.86550  0.26320  Biso   1.000  C
  C144     1.0000 0.74750  0.13450  0.73680  Biso   1.000  C
  H125     1.0000 0.25950  0.79790  0.23670  Biso   1.000  H
  H126     1.0000 0.74050  0.20210  0.76330  Biso   1.000  H
  C145     1.0000 0.30160  0.94130  0.24490  Biso   1.000  C
  C146     1.0000 0.69840  0.05870  0.75510  Biso   1.000  C
  H127     1.0000 0.34260  0.92710  0.20520  Biso   1.000  H
  H128     1.0000 0.65740  0.07290  0.79480  Biso   1.000  H
  C147     1.0000 0.29090  0.03900  0.28490  Biso   1.000  C
  C148     1.0000 0.70910  0.96100  0.71510  Biso   1.000  C
  H129     1.0000 0.32560  0.09100  0.27170  Biso   1.000  H
  H130     1.0000 0.67440  0.90900  0.72830  Biso   1.000  H
  N21      1.0000 0.07020  0.64010  0.35360  Biso   1.000  N
  N22      1.0000 0.92980  0.35990  0.64640  Biso   1.000  N
  C149     1.0000 0.18220  0.62000  0.32120  Biso   1.000  C
  C150     1.0000 0.81780  0.38000  0.67880  Biso   1.000  C
  H131     1.0000 0.26200  0.62750  0.34530  Biso   1.000  H
  H132     1.0000 0.73800  0.37250  0.65470  Biso   1.000  H
  C151     1.0000 0.17750  0.58880  0.25360  Biso   1.000  C
  C152     1.0000 0.82250  0.41120  0.74640  Biso   1.000  C
  H133     1.0000 0.25410  0.57510  0.23140  Biso   1.000  H
  H134     1.0000 0.74590  0.42490  0.76860  Biso   1.000  H
  C153     1.0000 0.06080  0.57770  0.21830  Biso   1.000  C
  C154     1.0000 0.93920  0.42230  0.78170  Biso   1.000  C
  H135     1.0000 0.05750  0.55640  0.17210  Biso   1.000  H
  H136     1.0000 0.94250  0.44360  0.82790  Biso   1.000  H
  C155     1.0000 0.94870  0.59780  0.25080  Biso   1.000  C
  C156     1.0000 0.05130  0.40220  0.74920  Biso   1.000  C
  H137     1.0000 0.86890  0.59030  0.22670  Biso   1.000  H
  H138     1.0000 0.13110  0.40970  0.77330  Biso   1.000  H
  C157     1.0000 0.95340  0.62900  0.31840  Biso   1.000  C
  C158     1.0000 0.04660  0.37100  0.68160  Biso   1.000  C
  H139     1.0000 0.87680  0.64270  0.34060  Biso   1.000  H
  H140     1.0000 0.12320  0.35730  0.65940  Biso   1.000  H
  N23      1.0000 0.33800  0.42040  0.00490  Biso   1.000  N
  N24      1.0000 0.66200  0.57960  0.99510  Biso   1.000  N
  C159     1.0000 0.20880  0.43510  0.99530  Biso   1.000  C
  C160     1.0000 0.79120  0.56490  0.00470  Biso   1.000  C
  H141     1.0000 0.17890  0.45470  0.95930  Biso   1.000  H
  H142     1.0000 0.82110  0.54530  0.04070  Biso   1.000  H
  C161     1.0000 0.12320  0.42120  0.03830  Biso   1.000  C
  C162     1.0000 0.87680  0.57880  0.96170  Biso   1.000  C
  H143     1.0000 0.03490  0.43130  0.03170  Biso   1.000  H
  H144     1.0000 0.96510  0.56870  0.96830  Biso   1.000  H
  C163     1.0000 0.16700  0.39300  0.09100  Biso   1.000  C
  C164     1.0000 0.83300  0.60700  0.90900  Biso   1.000  C
  H145     1.0000 0.10850  0.38310  0.12040  Biso   1.000  H
  H146     1.0000 0.89150  0.61690  0.87960  Biso   1.000  H
  C165     1.0000 0.29600  0.37800  0.10060  Biso   1.000  C
  C166     1.0000 0.70400  0.62200  0.89940  Biso   1.000  C
  H147     1.0000 0.32600  0.35840  0.13660  Biso   1.000  H
  H148     1.0000 0.67400  0.64160  0.86340  Biso   1.000  H
  C167     1.0000 0.38160  0.39200  0.05760  Biso   1.000  C
  C168     1.0000 0.61840  0.60800  0.94240  Biso   1.000  C
  H149     1.0000 0.46990  0.38180  0.06420  Biso   1.000  H
  H150     1.0000 0.53010  0.61820  0.93580  Biso   1.000  H
  O19      1.0000 0.63770  0.04430  0.17140  Biso   1.000  O
  O20      1.0000 0.36230  0.95570  0.82860  Biso   1.000  O
