data_image0
_cell_length_a       7.881
_cell_length_b       9.658
_cell_length_c       10.368
_cell_angle_alpha    97.32
_cell_angle_beta     110.38
_cell_angle_gamma    109.53

_symmetry_space_group_name_H-M    "P 1"
_symmetry_int_tables_number       1

loop_
  _symmetry_equiv_pos_as_xyz
  'x, y, z'

loop_
  _atom_site_label
  _atom_site_occupancy
  _atom_site_fract_x
  _atom_site_fract_y
  _atom_site_fract_z
  _atom_site_thermal_displace_type
  _atom_site_B_iso_or_equiv
  _atom_site_type_symbol
  Cu1      1.0000 0.00000  0.00000  0.00000  Biso   1.000  Cu
  Cu2      1.0000 0.05250  0.26157  0.22723  Biso   1.000  Cu
  Cu3      1.0000 0.94750  0.73843  0.77277  Biso   1.000  Cu
  O1       1.0000 0.59400  0.59230  0.36340  Biso   1.000  O
  O2       1.0000 0.40600  0.40770  0.63660  Biso   1.000  O
  O3       1.0000 0.87940  0.82080  0.05780  Biso   1.000  O
  O4       1.0000 0.12060  0.17920  0.94220  Biso   1.000  O
  O5       1.0000 0.14450  0.37250  0.10010  Biso   1.000  O
  O6       1.0000 0.85550  0.62750  0.89990  Biso   1.000  O
  O7       1.0000 0.72080  0.86370  0.73270  Biso   1.000  O
  O8       1.0000 0.27920  0.13630  0.26730  Biso   1.000  O
  O9       1.0000 0.74530  0.97260  0.27470  Biso   1.000  O
  O10      1.0000 0.25470  0.02740  0.72530  Biso   1.000  O
  O11      1.0000 0.94020  0.21810  0.36480  Biso   1.000  O
  O12      1.0000 0.05980  0.78190  0.63520  Biso   1.000  O
  O13      1.0000 0.24800  0.44320  0.37750  Biso   1.000  O
  O14      1.0000 0.75200  0.55680  0.62250  Biso   1.000  O
  O15      1.0000 0.85980  0.09250  0.07270  Biso   1.000  O
  O16      1.0000 0.14020  0.90750  0.92730  Biso   1.000  O
  N1       1.0000 0.63960  0.53680  0.26240  Biso   1.000  N
  N2       1.0000 0.36040  0.46320  0.73760  Biso   1.000  N
  N3       1.0000 0.72990  0.97810  0.67390  Biso   1.000  N
  N4       1.0000 0.27010  0.02190  0.32610  Biso   1.000  N
  C1       1.0000 0.71830  0.63160  0.19390  Biso   1.000  C
  C2       1.0000 0.28170  0.36840  0.80610  Biso   1.000  C
  C3       1.0000 0.76080  0.57640  0.08610  Biso   1.000  C
  C4       1.0000 0.23920  0.42360  0.91390  Biso   1.000  C
  C5       1.0000 0.72520  0.42550  0.04880  Biso   1.000  C
  C6       1.0000 0.27480  0.57450  0.95120  Biso   1.000  C
  C7       1.0000 0.64440  0.33030  0.12140  Biso   1.000  C
  C8       1.0000 0.35560  0.66970  0.87860  Biso   1.000  C
  C9       1.0000 0.60210  0.38850  0.22690  Biso   1.000  C
  C10      1.0000 0.39790  0.61150  0.77310  Biso   1.000  C
  C11      1.0000 0.83910  0.68440  0.00780  Biso   1.000  C
  C12      1.0000 0.16090  0.31560  0.99220  Biso   1.000  C
  C13      1.0000 0.75870  0.97350  0.55310  Biso   1.000  C
  C14      1.0000 0.24130  0.02650  0.44690  Biso   1.000  C
  C15      1.0000 0.78540  0.09870  0.49920  Biso   1.000  C
  C16      1.0000 0.21460  0.90130  0.50080  Biso   1.000  C
  C17      1.0000 0.77500  0.22450  0.56590  Biso   1.000  C
  C18      1.0000 0.22500  0.77550  0.43410  Biso   1.000  C
  C19      1.0000 0.72980  0.22180  0.68330  Biso   1.000  C
  C20      1.0000 0.27020  0.77820  0.31670  Biso   1.000  C
  C21      1.0000 0.70880  0.09760  0.73570  Biso   1.000  C
  C22      1.0000 0.29120  0.90240  0.26430  Biso   1.000  C
  C23      1.0000 0.82520  0.09200  0.36730  Biso   1.000  C
  C24      1.0000 0.17480  0.90800  0.63270  Biso   1.000  C
  H1       1.0000 0.73200  0.72200  0.22100  Biso   1.000  H
  H2       1.0000 0.26800  0.27800  0.77900  Biso   1.000  H
  H3       1.0000 0.76700  0.39100  0.98400  Biso   1.000  H
  H4       1.0000 0.23300  0.60900  0.01600  Biso   1.000  H
  H5       1.0000 0.60900  0.22200  0.08800  Biso   1.000  H
  H6       1.0000 0.39100  0.77800  0.91200  Biso   1.000  H
  H7       1.0000 0.56300  0.34700  0.28600  Biso   1.000  H
  H8       1.0000 0.43700  0.65300  0.71400  Biso   1.000  H
  H9       1.0000 0.77400  0.88900  0.51700  Biso   1.000  H
  H10      1.0000 0.22600  0.11100  0.48300  Biso   1.000  H
  H11      1.0000 0.78800  0.31400  0.53100  Biso   1.000  H
  H12      1.0000 0.21200  0.68600  0.46900  Biso   1.000  H
  H13      1.0000 0.70400  0.29900  0.72400  Biso   1.000  H
  H14      1.0000 0.29600  0.70100  0.27600  Biso   1.000  H
  H15      1.0000 0.68000  0.08300  0.81800  Biso   1.000  H
  H16      1.0000 0.32000  0.91700  0.18200  Biso   1.000  H
  H17      1.0000 0.27700  0.42800  0.45100  Biso   1.000  H
  H18      1.0000 0.72300  0.57200  0.54900  Biso   1.000  H
  H19      1.0000 0.31200  0.47100  0.36700  Biso   1.000  H
  H20      1.0000 0.68800  0.52900  0.63300  Biso   1.000  H
