data_image0
_cell_length_a       13.999
_cell_length_b       9.293
_cell_length_c       15.579
_cell_angle_alpha    90
_cell_angle_beta     90
_cell_angle_gamma    90

_symmetry_space_group_name_H-M    "P 1"
_symmetry_int_tables_number       1

loop_
  _symmetry_equiv_pos_as_xyz
  'x, y, z'

loop_
  _atom_site_label
  _atom_site_occupancy
  _atom_site_fract_x
  _atom_site_fract_y
  _atom_site_fract_z
  _atom_site_thermal_displace_type
  _atom_site_B_iso_or_equiv
  _atom_site_type_symbol
  N1       1.0000 0.42440  0.65140  0.91880  Biso   1.000  N
  N2       1.0000 0.57560  0.34860  0.41880  Biso   1.000  N
  N3       1.0000 0.07560  0.15140  0.41880  Biso   1.000  N
  N4       1.0000 0.92440  0.84860  0.91880  Biso   1.000  N
  O1       1.0000 0.74130  0.60300  0.73710  Biso   1.000  O
  O2       1.0000 0.25870  0.39700  0.23710  Biso   1.000  O
  O3       1.0000 0.75870  0.10300  0.23710  Biso   1.000  O
  O4       1.0000 0.24130  0.89700  0.73710  Biso   1.000  O
  O5       1.0000 0.75180  0.52360  0.19480  Biso   1.000  O
  O6       1.0000 0.24820  0.47640  0.69480  Biso   1.000  O
  O7       1.0000 0.74820  0.02360  0.69480  Biso   1.000  O
  O8       1.0000 0.25180  0.97640  0.19480  Biso   1.000  O
  C1       1.0000 0.41280  0.77950  0.95170  Biso   1.000  C
  C2       1.0000 0.58720  0.22050  0.45170  Biso   1.000  C
  C3       1.0000 0.08720  0.27950  0.45170  Biso   1.000  C
  C4       1.0000 0.91280  0.72050  0.95170  Biso   1.000  C
  H1       1.0000 0.41020  0.85730  0.91420  Biso   1.000  H
  H2       1.0000 0.58980  0.14270  0.41420  Biso   1.000  H
  H3       1.0000 0.08980  0.35730  0.41420  Biso   1.000  H
  H4       1.0000 0.91020  0.64270  0.91420  Biso   1.000  H
  C5       1.0000 0.40740  0.68900  0.09170  Biso   1.000  C
  C6       1.0000 0.59260  0.31100  0.59170  Biso   1.000  C
  C7       1.0000 0.09260  0.18900  0.59170  Biso   1.000  C
  C8       1.0000 0.90740  0.81100  0.09170  Biso   1.000  C
  H5       1.0000 0.40020  0.70410  0.15030  Biso   1.000  H
  H6       1.0000 0.59980  0.29590  0.65030  Biso   1.000  H
  H7       1.0000 0.09980  0.20410  0.65030  Biso   1.000  H
  H8       1.0000 0.90020  0.79590  0.15030  Biso   1.000  H
  C9       1.0000 0.67040  0.59660  0.78070  Biso   1.000  C
  C10      1.0000 0.32960  0.40340  0.28070  Biso   1.000  C
  C11      1.0000 0.82960  0.09660  0.28070  Biso   1.000  C
  C12      1.0000 0.17040  0.90340  0.78070  Biso   1.000  C
  C13      1.0000 0.40430  0.80650  0.03640  Biso   1.000  C
  C14      1.0000 0.59570  0.19350  0.53640  Biso   1.000  C
  C15      1.0000 0.09570  0.30650  0.53640  Biso   1.000  C
  C16      1.0000 0.90430  0.69350  0.03640  Biso   1.000  C
  H9       1.0000 0.39670  0.89970  0.05700  Biso   1.000  H
  H10      1.0000 0.60330  0.10030  0.55700  Biso   1.000  H
  H11      1.0000 0.10330  0.39970  0.55700  Biso   1.000  H
  H12      1.0000 0.89670  0.60030  0.05700  Biso   1.000  H
  C17      1.0000 0.68010  0.50950  0.15330  Biso   1.000  C
  C18      1.0000 0.31990  0.49050  0.65330  Biso   1.000  C
  C19      1.0000 0.81990  0.00950  0.65330  Biso   1.000  C
  C20      1.0000 0.18010  0.99050  0.15330  Biso   1.000  C
  O9       1.0000 0.58490  0.60420  0.75410  Biso   1.000  O
  O10      1.0000 0.41510  0.39580  0.25410  Biso   1.000  O
  O11      1.0000 0.91510  0.10420  0.25410  Biso   1.000  O
  O12      1.0000 0.08490  0.89580  0.75410  Biso   1.000  O
  C21      1.0000 0.44610  0.40000  0.93200  Biso   1.000  C
  C22      1.0000 0.55390  0.60000  0.43200  Biso   1.000  C
  C23      1.0000 0.05390  0.90000  0.43200  Biso   1.000  C
  C24      1.0000 0.94610  0.10000  0.93200  Biso   1.000  C
  O13      1.0000 0.59610  0.47250  0.17970  Biso   1.000  O
  O14      1.0000 0.40390  0.52750  0.67970  Biso   1.000  O
  O15      1.0000 0.90390  0.97250  0.67970  Biso   1.000  O
  O16      1.0000 0.09610  0.02750  0.17970  Biso   1.000  O
  N5       1.0000 0.44210  0.40000  0.84660  Biso   1.000  N
  N6       1.0000 0.55790  0.60000  0.34660  Biso   1.000  N
  N7       1.0000 0.05790  0.90000  0.34660  Biso   1.000  N
  N8       1.0000 0.94210  0.10000  0.84660  Biso   1.000  N
  O17      1.0000 0.41280  0.79550  0.76220  Biso   1.000  O
  O18      1.0000 0.58720  0.20450  0.26220  Biso   1.000  O
  O19      1.0000 0.08720  0.29550  0.26220  Biso   1.000  O
  O20      1.0000 0.91280  0.70450  0.76220  Biso   1.000  O
  H13      1.0000 0.45380  0.81920  0.72260  Biso   1.000  H
  H14      1.0000 0.54620  0.18080  0.22260  Biso   1.000  H
  H15      1.0000 0.04620  0.31920  0.22260  Biso   1.000  H
  H16      1.0000 0.95380  0.68080  0.72260  Biso   1.000  H
  H17      1.0000 0.35560  0.81080  0.74200  Biso   1.000  H
  H18      1.0000 0.64440  0.18920  0.24200  Biso   1.000  H
  H19      1.0000 0.14440  0.31080  0.24200  Biso   1.000  H
  H20      1.0000 0.85560  0.68920  0.74200  Biso   1.000  H
  C25      1.0000 0.42950  0.53790  0.97570  Biso   1.000  C
  C26      1.0000 0.57050  0.46210  0.47570  Biso   1.000  C
  C27      1.0000 0.07050  0.03790  0.47570  Biso   1.000  C
  C28      1.0000 0.92950  0.96210  0.97570  Biso   1.000  C
  C29      1.0000 0.45480  0.27980  0.80050  Biso   1.000  C
  C30      1.0000 0.54520  0.72020  0.30050  Biso   1.000  C
  C31      1.0000 0.04520  0.77980  0.30050  Biso   1.000  C
  C32      1.0000 0.95480  0.22020  0.80050  Biso   1.000  C
  H21      1.0000 0.45080  0.28300  0.74100  Biso   1.000  H
  H22      1.0000 0.54920  0.71700  0.24100  Biso   1.000  H
  H23      1.0000 0.04920  0.78300  0.24100  Biso   1.000  H
  H24      1.0000 0.95080  0.21700  0.74100  Biso   1.000  H
  C33      1.0000 0.42100  0.55080  0.06110  Biso   1.000  C
  C34      1.0000 0.57900  0.44920  0.56110  Biso   1.000  C
  C35      1.0000 0.07900  0.05080  0.56110  Biso   1.000  C
  C36      1.0000 0.92100  0.94920  0.06110  Biso   1.000  C
  H25      1.0000 0.42410  0.47160  0.09750  Biso   1.000  H
  H26      1.0000 0.57590  0.52840  0.59750  Biso   1.000  H
  H27      1.0000 0.07590  0.97160  0.59750  Biso   1.000  H
  H28      1.0000 0.92410  0.02840  0.09750  Biso   1.000  H
  C37      1.0000 0.47350  0.15150  0.84130  Biso   1.000  C
  C38      1.0000 0.52650  0.84850  0.34130  Biso   1.000  C
  C39      1.0000 0.02650  0.65150  0.34130  Biso   1.000  C
  C40      1.0000 0.97350  0.34850  0.84130  Biso   1.000  C
  H29      1.0000 0.48340  0.06820  0.80940  Biso   1.000  H
  H30      1.0000 0.51660  0.93180  0.30940  Biso   1.000  H
  H31      1.0000 0.01660  0.56820  0.30940  Biso   1.000  H
  H32      1.0000 0.98340  0.43180  0.80940  Biso   1.000  H
  C41      1.0000 0.47750  0.14690  0.92640  Biso   1.000  C
  C42      1.0000 0.52250  0.85310  0.42640  Biso   1.000  C
  C43      1.0000 0.02250  0.64690  0.42640  Biso   1.000  C
  C44      1.0000 0.97750  0.35310  0.92640  Biso   1.000  C
  H33      1.0000 0.48890  0.05950  0.95360  Biso   1.000  H
  H34      1.0000 0.51110  0.94050  0.45360  Biso   1.000  H
  H35      1.0000 0.01110  0.55950  0.45360  Biso   1.000  H
  H36      1.0000 0.98890  0.44050  0.95360  Biso   1.000  H
  C45      1.0000 0.46460  0.27450  0.97720  Biso   1.000  C
  C46      1.0000 0.53540  0.72550  0.47720  Biso   1.000  C
  C47      1.0000 0.03540  0.77450  0.47720  Biso   1.000  C
  C48      1.0000 0.96460  0.22550  0.97720  Biso   1.000  C
  H37      1.0000 0.46840  0.27300  0.03680  Biso   1.000  H
  H38      1.0000 0.53160  0.72700  0.53680  Biso   1.000  H
  H39      1.0000 0.03160  0.77300  0.53680  Biso   1.000  H
  H40      1.0000 0.96840  0.22700  0.03680  Biso   1.000  H
  Br1      1.0000 0.71149  0.28134  0.83554  Biso   1.000  Br
  Br2      1.0000 0.28851  0.71866  0.33554  Biso   1.000  Br
  Br3      1.0000 0.78851  0.78134  0.33554  Biso   1.000  Br
  Br4      1.0000 0.21149  0.21866  0.83554  Biso   1.000  Br
  Br5      1.0000 0.71309  0.23256  0.04796  Biso   1.000  Br
  Br6      1.0000 0.28691  0.76744  0.54796  Biso   1.000  Br
  Br7      1.0000 0.78691  0.73256  0.54796  Biso   1.000  Br
  Br8      1.0000 0.21309  0.26744  0.04796  Biso   1.000  Br
  Br9      1.0000 0.66237  0.82685  0.09696  Biso   1.000  Br
  Br10     1.0000 0.33763  0.17315  0.59696  Biso   1.000  Br
  Br11     1.0000 0.83763  0.32685  0.59696  Biso   1.000  Br
  Br12     1.0000 0.16237  0.67315  0.09696  Biso   1.000  Br
  Br13     1.0000 0.66704  0.87480  0.88532  Biso   1.000  Br
  Br14     1.0000 0.33296  0.12520  0.38532  Biso   1.000  Br
  Br15     1.0000 0.83296  0.37480  0.38532  Biso   1.000  Br
  Br16     1.0000 0.16704  0.62520  0.88532  Biso   1.000  Br
  Cu1      1.0000 0.42938  0.59395  0.79469  Biso   1.000  Cu
  Cu2      1.0000 0.57062  0.40605  0.29469  Biso   1.000  Cu
  Cu3      1.0000 0.07062  0.09395  0.29469  Biso   1.000  Cu
  Cu4      1.0000 0.92938  0.90605  0.79469  Biso   1.000  Cu
  C49      1.0000 0.67170  0.66960  0.02020  Biso   1.000  C
  C50      1.0000 0.32830  0.33040  0.52020  Biso   1.000  C
  C51      1.0000 0.82830  0.16960  0.52020  Biso   1.000  C
  C52      1.0000 0.17170  0.83040  0.02020  Biso   1.000  C
  C53      1.0000 0.67820  0.57350  0.87790  Biso   1.000  C
  C54      1.0000 0.32180  0.42650  0.37790  Biso   1.000  C
  C55      1.0000 0.82180  0.07350  0.37790  Biso   1.000  C
  C56      1.0000 0.17820  0.92650  0.87790  Biso   1.000  C
  C57      1.0000 0.69330  0.43490  0.91320  Biso   1.000  C
  C58      1.0000 0.30670  0.56510  0.41320  Biso   1.000  C
  C59      1.0000 0.80670  0.93490  0.41320  Biso   1.000  C
  C60      1.0000 0.19330  0.06510  0.91320  Biso   1.000  C
  C61      1.0000 0.69470  0.41820  0.00130  Biso   1.000  C
  C62      1.0000 0.30530  0.58180  0.50130  Biso   1.000  C
  C63      1.0000 0.80530  0.91820  0.50130  Biso   1.000  C
  C64      1.0000 0.19470  0.08180  0.00130  Biso   1.000  C
  C65      1.0000 0.67050  0.68540  0.93520  Biso   1.000  C
  C66      1.0000 0.32950  0.31460  0.43520  Biso   1.000  C
  C67      1.0000 0.82950  0.18540  0.43520  Biso   1.000  C
  C68      1.0000 0.17050  0.81460  0.93520  Biso   1.000  C
  C69      1.0000 0.68140  0.53050  0.05790  Biso   1.000  C
  C70      1.0000 0.31860  0.46950  0.55790  Biso   1.000  C
  C71      1.0000 0.81860  0.03050  0.55790  Biso   1.000  C
  C72      1.0000 0.18140  0.96950  0.05790  Biso   1.000  C
  O21      1.0000 0.42790  0.13060  0.16610  Biso   1.000  O
  O22      1.0000 0.57210  0.86940  0.66610  Biso   1.000  O
  O23      1.0000 0.07210  0.63060  0.66610  Biso   1.000  O
  O24      1.0000 0.92790  0.36940  0.16610  Biso   1.000  O
  H41      1.0000 0.40190  0.05520  0.18630  Biso   1.000  H
  H42      1.0000 0.59810  0.94480  0.68630  Biso   1.000  H
  H43      1.0000 0.09810  0.55520  0.68630  Biso   1.000  H
  H44      1.0000 0.90190  0.44480  0.18630  Biso   1.000  H
  H45      1.0000 0.39470  0.20300  0.18100  Biso   1.000  H
  H46      1.0000 0.60530  0.79700  0.68100  Biso   1.000  H
  H47      1.0000 0.10530  0.70300  0.68100  Biso   1.000  H
  H48      1.0000 0.89470  0.29700  0.18100  Biso   1.000  H
