data_image0
_cell_length_a       8.7716
_cell_length_b       16.9903
_cell_length_c       20.5716
_cell_angle_alpha    104.794
_cell_angle_beta     102.209
_cell_angle_gamma    92.243

_symmetry_space_group_name_H-M    "P 1"
_symmetry_int_tables_number       1

loop_
  _symmetry_equiv_pos_as_xyz
  'x, y, z'

loop_
  _atom_site_label
  _atom_site_occupancy
  _atom_site_fract_x
  _atom_site_fract_y
  _atom_site_fract_z
  _atom_site_thermal_displace_type
  _atom_site_B_iso_or_equiv
  _atom_site_type_symbol
  Cu1      1.0000 0.58200  0.34909  0.00677  Biso   1.000  Cu
  Cu2      1.0000 0.41800  0.65091  0.99323  Biso   1.000  Cu
  Cu3      1.0000 0.07060  0.16152  0.01270  Biso   1.000  Cu
  Cu4      1.0000 0.92940  0.83848  0.98730  Biso   1.000  Cu
  O1       1.0000 0.50570  0.26970  0.07760  Biso   1.000  O
  O2       1.0000 0.49430  0.73030  0.92240  Biso   1.000  O
  O3       1.0000 0.35280  0.30350  0.95690  Biso   1.000  O
  O4       1.0000 0.64720  0.69650  0.04310  Biso   1.000  O
  O5       1.0000 0.29470  0.19060  0.06510  Biso   1.000  O
  O6       1.0000 0.70530  0.80940  0.93490  Biso   1.000  O
  O7       1.0000 0.14430  0.22690  0.95560  Biso   1.000  O
  O8       1.0000 0.85570  0.77310  0.04440  Biso   1.000  O
  O9       1.0000 0.80820  0.36250  0.06400  Biso   1.000  O
  O10      1.0000 0.19180  0.63750  0.93600  Biso   1.000  O
  O11      1.0000 0.65950  0.24970  0.95270  Biso   1.000  O
  O12      1.0000 0.34050  0.75030  0.04730  Biso   1.000  O
  O13      1.0000 0.00150  0.28380  0.08060  Biso   1.000  O
  O14      1.0000 0.99850  0.71620  0.91940  Biso   1.000  O
  O15      1.0000 0.85010  0.17080  0.96670  Biso   1.000  O
  O16      1.0000 0.14990  0.82920  0.03330  Biso   1.000  O
  O17      1.0000 0.51060  0.44640  0.06140  Biso   1.000  O
  O18      1.0000 0.48940  0.55360  0.93860  Biso   1.000  O
  O19      1.0000 0.42770  0.56900  0.06240  Biso   1.000  O
  O20      1.0000 0.57230  0.43100  0.93760  Biso   1.000  O
  O21      1.0000 0.01060  0.08890  0.06590  Biso   1.000  O
  O22      1.0000 0.98940  0.91110  0.93410  Biso   1.000  O
  O23      1.0000 0.94200  0.96090  0.06440  Biso   1.000  O
  O24      1.0000 0.05800  0.03910  0.93560  Biso   1.000  O
  C1       1.0000 0.37600  0.24060  0.04530  Biso   1.000  C
  C2       1.0000 0.62400  0.75940  0.95470  Biso   1.000  C
  C3       1.0000 0.28100  0.25370  0.98120  Biso   1.000  C
  C4       1.0000 0.71900  0.74630  0.01880  Biso   1.000  C
  C5       1.0000 0.87600  0.29390  0.04800  Biso   1.000  C
  C6       1.0000 0.12400  0.70610  0.95200  Biso   1.000  C
  C7       1.0000 0.79160  0.23720  0.98350  Biso   1.000  C
  C8       1.0000 0.20840  0.76280  0.01650  Biso   1.000  C
  C9       1.0000 0.47960  0.50750  0.03600  Biso   1.000  C
  C10      1.0000 0.52040  0.49250  0.96400  Biso   1.000  C
  C11      1.0000 0.98850  0.01040  0.03710  Biso   1.000  C
  C12      1.0000 0.01150  0.98960  0.96290  Biso   1.000  C
  C13      1.0000 0.07870  0.34710  0.00610  Biso   1.000  C
  C14      1.0000 0.92130  0.65290  0.99390  Biso   1.000  C
  O25      1.0000 0.04500  0.43400  0.95410  Biso   1.000  O
  O26      1.0000 0.95500  0.56600  0.04590  Biso   1.000  O
  Se1      1.0000 0.29141  0.87205  0.43722  Biso   1.000  Se
  Se2      1.0000 0.70859  0.12795  0.56278  Biso   1.000  Se
  Se3      1.0000 0.11170  0.01786  0.39773  Biso   1.000  Se
  Se4      1.0000 0.88830  0.98214  0.60227  Biso   1.000  Se
  Se5      1.0000 0.38415  0.98196  0.60592  Biso   1.000  Se
  Se6      1.0000 0.61585  0.01804  0.39408  Biso   1.000  Se
  Se7      1.0000 0.20605  0.12748  0.56514  Biso   1.000  Se
  Se8      1.0000 0.79395  0.87252  0.43486  Biso   1.000  Se
  S1       1.0000 0.21390  0.76530  0.29086  Biso   1.000  S
  S2       1.0000 0.78610  0.23470  0.70914  Biso   1.000  S
  S3       1.0000 0.03020  0.92850  0.24369  Biso   1.000  S
  S4       1.0000 0.96980  0.07150  0.75631  Biso   1.000  S
  S5       1.0000 0.46170  0.07080  0.75956  Biso   1.000  S
  S6       1.0000 0.53830  0.92920  0.24044  Biso   1.000  S
  S7       1.0000 0.28260  0.23480  0.71224  Biso   1.000  S
  S8       1.0000 0.71740  0.76520  0.28776  Biso   1.000  S
  C15      1.0000 0.23020  0.97790  0.46940  Biso   1.000  C
  C16      1.0000 0.76980  0.02210  0.53060  Biso   1.000  C
  C17      1.0000 0.26570  0.02220  0.53620  Biso   1.000  C
  C18      1.0000 0.73430  0.97780  0.46380  Biso   1.000  C
  C19      1.0000 0.19060  0.85990  0.34360  Biso   1.000  C
  C20      1.0000 0.80940  0.14010  0.65640  Biso   1.000  C
  C21      1.0000 0.11850  0.92480  0.32630  Biso   1.000  C
  C22      1.0000 0.88150  0.07520  0.67370  Biso   1.000  C
  C23      1.0000 0.37270  0.07630  0.67630  Biso   1.000  C
  C24      1.0000 0.62730  0.92370  0.32370  Biso   1.000  C
  C25      1.0000 0.30270  0.13960  0.65960  Biso   1.000  C
  C26      1.0000 0.69730  0.86040  0.34040  Biso   1.000  C
  C27      1.0000 0.09510  0.76890  0.20500  Biso   1.000  C
  C28      1.0000 0.90490  0.23110  0.79500  Biso   1.000  C
  H1       1.0000 0.12890  0.72910  0.16930  Biso   1.000  H
  H2       1.0000 0.87110  0.27090  0.83070  Biso   1.000  H
  H3       1.0000 0.98620  0.75250  0.20230  Biso   1.000  H
  H4       1.0000 0.01380  0.24750  0.79770  Biso   1.000  H
  C29      1.0000 0.10430  0.84620  0.19090  Biso   1.000  C
  C30      1.0000 0.89570  0.15380  0.80910  Biso   1.000  C
  H5       1.0000 0.04880  0.83930  0.14340  Biso   1.000  H
  H6       1.0000 0.95120  0.16070  0.85660  Biso   1.000  H
  H7       1.0000 0.21350  0.86220  0.19400  Biso   1.000  H
  H8       1.0000 0.78650  0.13780  0.80600  Biso   1.000  H
  C31      1.0000 0.40060  0.15970  0.81340  Biso   1.000  C
  C32      1.0000 0.59940  0.84030  0.18660  Biso   1.000  C
  H9       1.0000 0.29250  0.14760  0.81470  Biso   1.000  H
  H10      1.0000 0.70750  0.85240  0.18530  Biso   1.000  H
  H11      1.0000 0.46340  0.16940  0.86010  Biso   1.000  H
  H12      1.0000 0.53660  0.83060  0.13990  Biso   1.000  H
  C33      1.0000 0.41220  0.23390  0.79260  Biso   1.000  C
  C34      1.0000 0.58780  0.76610  0.20740  Biso   1.000  C
  H13      1.0000 0.51920  0.24460  0.78900  Biso   1.000  H
  H14      1.0000 0.48080  0.75540  0.21100  Biso   1.000  H
  H15      1.0000 0.39190  0.27860  0.82880  Biso   1.000  H
  H16      1.0000 0.60810  0.72140  0.17120  Biso   1.000  H
  Se9      1.0000 0.05700  0.35276  0.39422  Biso   1.000  Se
  Se10     1.0000 0.94300  0.64724  0.60578  Biso   1.000  Se
  Se11     1.0000 0.89557  0.20737  0.43385  Biso   1.000  Se
  Se12     1.0000 0.10443  0.79263  0.56615  Biso   1.000  Se
  Se13     1.0000 0.15082  0.46179  0.56034  Biso   1.000  Se
  Se14     1.0000 0.84918  0.53821  0.43966  Biso   1.000  Se
  Se15     1.0000 0.98747  0.31932  0.60320  Biso   1.000  Se
  Se16     1.0000 0.01253  0.68068  0.39680  Biso   1.000  Se
  S9       1.0000 0.00190  0.25740  0.24203  Biso   1.000  S
  S10      1.0000 0.99810  0.74260  0.75797  Biso   1.000  S
  S11      1.0000 0.82910  0.09748  0.28836  Biso   1.000  S
  S12      1.0000 0.17090  0.90252  0.71164  Biso   1.000  S
  S13      1.0000 0.26930  0.56345  0.70715  Biso   1.000  S
  S14      1.0000 0.73070  0.43655  0.29285  Biso   1.000  S
  S15      1.0000 0.09050  0.40759  0.75642  Biso   1.000  S
  S16      1.0000 0.90950  0.59241  0.24358  Biso   1.000  S
  C35      1.0000 0.00580  0.31280  0.46560  Biso   1.000  C
  C36      1.0000 0.99420  0.68720  0.53440  Biso   1.000  C
  C37      1.0000 0.04490  0.35700  0.53090  Biso   1.000  C
  C38      1.0000 0.95510  0.64300  0.46910  Biso   1.000  C
  C39      1.0000 0.97840  0.25510  0.32400  Biso   1.000  C
  C40      1.0000 0.02160  0.74490  0.67600  Biso   1.000  C
  C41      1.0000 0.90980  0.19220  0.34150  Biso   1.000  C
  C42      1.0000 0.09020  0.80780  0.65850  Biso   1.000  C
  C43      1.0000 0.16860  0.47150  0.65550  Biso   1.000  C
  C44      1.0000 0.83140  0.52850  0.34450  Biso   1.000  C
  C45      1.0000 0.09700  0.41110  0.67430  Biso   1.000  C
  C46      1.0000 0.90300  0.58890  0.32570  Biso   1.000  C
  C47      1.0000 0.85320  0.18030  0.19000  Biso   1.000  C
  C48      1.0000 0.14680  0.81970  0.81000  Biso   1.000  C
  H17      1.0000 0.75250  0.19970  0.19460  Biso   1.000  H
  H18      1.0000 0.24750  0.80030  0.80540  Biso   1.000  H
  H19      1.0000 0.85830  0.17260  0.14210  Biso   1.000  H
  H20      1.0000 0.14170  0.82740  0.85790  Biso   1.000  H
  C49      1.0000 0.85890  0.10130  0.20480  Biso   1.000  C
  C50      1.0000 0.14110  0.89870  0.79520  Biso   1.000  C
  H21      1.0000 0.96020  0.08230  0.20070  Biso   1.000  H
  H22      1.0000 0.03980  0.91770  0.79930  Biso   1.000  H
  H23      1.0000 0.78000  0.06290  0.16960  Biso   1.000  H
  H24      1.0000 0.22000  0.93710  0.83040  Biso   1.000  H
  C51      1.0000 0.23280  0.56830  0.78950  Biso   1.000  C
  C52      1.0000 0.76720  0.43170  0.21050  Biso   1.000  C
  H25      1.0000 0.31530  0.60520  0.82400  Biso   1.000  H
  H26      1.0000 0.68470  0.39480  0.17600  Biso   1.000  H
  H27      1.0000 0.13510  0.59250  0.79190  Biso   1.000  H
  H28      1.0000 0.86490  0.40750  0.20810  Biso   1.000  H
  C53      1.0000 0.22280  0.49320  0.80810  Biso   1.000  C
  C54      1.0000 0.77720  0.50680  0.19190  Biso   1.000  C
  H29      1.0000 0.19990  0.50640  0.85360  Biso   1.000  H
  H30      1.0000 0.80010  0.49360  0.14640  Biso   1.000  H
  H31      1.0000 0.32690  0.47490  0.81340  Biso   1.000  H
  H32      1.0000 0.67310  0.52510  0.18660  Biso   1.000  H
  Se17     1.0000 0.55367  0.34945  0.39885  Biso   1.000  Se
  Se18     1.0000 0.44633  0.65055  0.60115  Biso   1.000  Se
  Se19     1.0000 0.39278  0.20535  0.43999  Biso   1.000  Se
  Se20     1.0000 0.60722  0.79465  0.56001  Biso   1.000  Se
  Se21     1.0000 0.64523  0.46107  0.56525  Biso   1.000  Se
  Se22     1.0000 0.35477  0.53893  0.43475  Biso   1.000  Se
  Se23     1.0000 0.48656  0.31833  0.60891  Biso   1.000  Se
  Se24     1.0000 0.51344  0.68167  0.39109  Biso   1.000  Se
  S17      1.0000 0.48510  0.25540  0.24610  Biso   1.000  S
  S18      1.0000 0.51490  0.74460  0.75390  Biso   1.000  S
  S19      1.0000 0.30810  0.09712  0.29384  Biso   1.000  S
  S20      1.0000 0.69190  0.90288  0.70616  Biso   1.000  S
  S21      1.0000 0.75770  0.56510  0.71222  Biso   1.000  S
  S22      1.0000 0.24230  0.43490  0.28778  Biso   1.000  S
  S23      1.0000 0.59250  0.40604  0.76259  Biso   1.000  S
  S24      1.0000 0.40750  0.59396  0.23741  Biso   1.000  S
  C55      1.0000 0.50280  0.31080  0.47040  Biso   1.000  C
  C56      1.0000 0.49720  0.68920  0.52960  Biso   1.000  C
  C57      1.0000 0.54050  0.35580  0.53610  Biso   1.000  C
  C58      1.0000 0.45950  0.64420  0.46390  Biso   1.000  C
  C59      1.0000 0.46640  0.25380  0.32810  Biso   1.000  C
  C60      1.0000 0.53360  0.74620  0.67190  Biso   1.000  C
  C61      1.0000 0.39850  0.19100  0.34590  Biso   1.000  C
  C62      1.0000 0.60150  0.80900  0.65410  Biso   1.000  C
  C63      1.0000 0.66330  0.47130  0.66060  Biso   1.000  C
  C64      1.0000 0.33670  0.52870  0.33940  Biso   1.000  C
  C65      1.0000 0.59400  0.40970  0.67920  Biso   1.000  C
  C66      1.0000 0.40600  0.59030  0.32080  Biso   1.000  C
  C67      1.0000 0.43500  0.14920  0.20190  Biso   1.000  C
  C68      1.0000 0.56500  0.85080  0.79810  Biso   1.000  C
  H33      1.0000 0.42250  0.14480  0.15300  Biso   1.000  H
  H34      1.0000 0.57750  0.85520  0.84700  Biso   1.000  H
  H35      1.0000 0.52600  0.12140  0.21530  Biso   1.000  H
  H36      1.0000 0.47400  0.87860  0.78470  Biso   1.000  H
  C69      1.0000 0.30580  0.10340  0.20780  Biso   1.000  C
  C70      1.0000 0.69420  0.89660  0.79220  Biso   1.000  C
  H37      1.0000 0.30010  0.04840  0.17820  Biso   1.000  H
  H38      1.0000 0.69990  0.95160  0.82180  Biso   1.000  H
  H39      1.0000 0.21160  0.12710  0.19110  Biso   1.000  H
  H40      1.0000 0.78840  0.87290  0.80890  Biso   1.000  H
  C71      1.0000 0.71600  0.56900  0.79470  Biso   1.000  C
  C72      1.0000 0.28400  0.43100  0.20530  Biso   1.000  C
  H41      1.0000 0.78800  0.61090  0.82990  Biso   1.000  H
  H42      1.0000 0.21200  0.38910  0.17010  Biso   1.000  H
  H43      1.0000 0.61070  0.58460  0.79420  Biso   1.000  H
  H44      1.0000 0.38930  0.41540  0.20580  Biso   1.000  H
  C73      1.0000 0.72870  0.48980  0.81350  Biso   1.000  C
  C74      1.0000 0.27130  0.51020  0.18650  Biso   1.000  C
  H45      1.0000 0.71920  0.49950  0.86100  Biso   1.000  H
  H46      1.0000 0.28080  0.50050  0.13900  Biso   1.000  H
  H47      1.0000 0.83320  0.47390  0.81200  Biso   1.000  H
  H48      1.0000 0.16680  0.52610  0.18800  Biso   1.000  H
  O27      1.0000 0.57400  0.04310  0.92850  Biso   1.000  O
  O28      1.0000 0.42600  0.95690  0.07150  Biso   1.000  O
  C75      1.0000 0.57090  0.16020  0.01230  Biso   1.000  C
  C76      1.0000 0.42910  0.83980  0.98770  Biso   1.000  C
  O29      1.0000 0.11800  0.40330  0.91550  Biso   1.000  O
  O30      1.0000 0.88200  0.59670  0.08450  Biso   1.000  O
