data_image0
_cell_length_a       7.775
_cell_length_b       8.1044
_cell_length_c       11.624
_cell_angle_alpha    70.474
_cell_angle_beta     81
_cell_angle_gamma    89.478

_symmetry_space_group_name_H-M    "P 1"
_symmetry_int_tables_number       1

loop_
  _symmetry_equiv_pos_as_xyz
  'x, y, z'

loop_
  _atom_site_label
  _atom_site_occupancy
  _atom_site_fract_x
  _atom_site_fract_y
  _atom_site_fract_z
  _atom_site_thermal_displace_type
  _atom_site_B_iso_or_equiv
  _atom_site_type_symbol
  Cu1      1.0000 0.57385  0.34553  0.10806  Biso   1.000  Cu
  Cu2      1.0000 0.42615  0.65447  0.89194  Biso   1.000  Cu
  O1       1.0000 0.53070  0.36370  0.94695  Biso   1.000  O
  O2       1.0000 0.46930  0.63630  0.05305  Biso   1.000  O
  N1       1.0000 0.37160  0.19280  0.19297  Biso   1.000  N
  N2       1.0000 0.62840  0.80720  0.80703  Biso   1.000  N
  C1       1.0000 0.43310  0.24880  0.92360  Biso   1.000  C
  C2       1.0000 0.56690  0.75120  0.07640  Biso   1.000  C
  O3       1.0000 0.60850  0.32190  0.27336  Biso   1.000  O
  O4       1.0000 0.39150  0.67810  0.72664  Biso   1.000  O
  N3       1.0000 0.82650  0.44220  0.04212  Biso   1.000  N
  N4       1.0000 0.17350  0.55780  0.95788  Biso   1.000  N
  C3       1.0000 0.44410  0.25340  0.80110  Biso   1.000  C
  C4       1.0000 0.55590  0.74660  0.19890  Biso   1.000  C
  H1       1.0000 0.52110  0.33460  0.73920  Biso   1.000  H
  H2       1.0000 0.47890  0.66540  0.26080  Biso   1.000  H
  C5       1.0000 0.34350  0.14030  0.76980  Biso   1.000  C
  C6       1.0000 0.65650  0.85970  0.23020  Biso   1.000  C
  H3       1.0000 0.35220  0.14750  0.68760  Biso   1.000  H
  H4       1.0000 0.64780  0.85250  0.31240  Biso   1.000  H
  O5       1.0000 0.47330  0.25160  0.46613  Biso   1.000  O
  O6       1.0000 0.52670  0.74840  0.53387  Biso   1.000  O
  C7       1.0000 0.22980  0.01620  0.86050  Biso   1.000  C
  C8       1.0000 0.77020  0.98380  0.13950  Biso   1.000  C
  H5       1.0000 0.16210  0.94010  0.83950  Biso   1.000  H
  H6       1.0000 0.83790  0.05990  0.16050  Biso   1.000  H
  O7       1.0000 0.93490  0.31670  0.68090  Biso   1.000  O
  O8       1.0000 0.06510  0.68330  0.31910  Biso   1.000  O
  H7       1.0000 0.85900  0.36000  0.62900  Biso   1.000  H
  H8       1.0000 0.14100  0.64000  0.37100  Biso   1.000  H
  H9       1.0000 0.01800  0.40300  0.64900  Biso   1.000  H
  H10      1.0000 0.98200  0.59700  0.35100  Biso   1.000  H
  C9       1.0000 0.21790  0.00670  0.98110  Biso   1.000  C
  C10      1.0000 0.78210  0.99330  0.01890  Biso   1.000  C
  H11      1.0000 0.14280  0.92190  0.04180  Biso   1.000  H
  H12      1.0000 0.85720  0.07810  0.95820  Biso   1.000  H
  O9       1.0000 0.74440  0.48010  0.48000  Biso   1.000  O
  O10      1.0000 0.25560  0.51990  0.52000  Biso   1.000  O
  H13      1.0000 0.68100  0.40000  0.46700  Biso   1.000  H
  H14      1.0000 0.31900  0.60000  0.53300  Biso   1.000  H
  H15      1.0000 0.68700  0.57500  0.48300  Biso   1.000  H
  H16      1.0000 0.31300  0.42500  0.51700  Biso   1.000  H
  C11      1.0000 0.31650  0.12220  0.01580  Biso   1.000  C
  C12      1.0000 0.68350  0.87780  0.98420  Biso   1.000  C
  C13      1.0000 0.29050  0.10110  0.14530  Biso   1.000  C
  C14      1.0000 0.70950  0.89890  0.85470  Biso   1.000  C
  H17      1.0000 0.20920  0.01490  0.19820  Biso   1.000  H
  H18      1.0000 0.79080  0.98510  0.80180  Biso   1.000  H
  C15      1.0000 0.33720  0.15390  0.32820  Biso   1.000  C
  C16      1.0000 0.66280  0.84610  0.67180  Biso   1.000  C
  H19      1.0000 0.35160  0.02810  0.36650  Biso   1.000  H
  H20      1.0000 0.64840  0.97190  0.63350  Biso   1.000  H
  C17      1.0000 0.48240  0.24960  0.35950  Biso   1.000  C
  C18      1.0000 0.51760  0.75040  0.64050  Biso   1.000  C
  C19      1.0000 0.16170  0.18900  0.37670  Biso   1.000  C
  C20      1.0000 0.83830  0.81100  0.62330  Biso   1.000  C
  H21      1.0000 0.07830  0.12440  0.35360  Biso   1.000  H
  H22      1.0000 0.92170  0.87560  0.64640  Biso   1.000  H
  H23      1.0000 0.14360  0.31210  0.34320  Biso   1.000  H
  H24      1.0000 0.85640  0.68790  0.65680  Biso   1.000  H
  H25      1.0000 0.14760  0.15370  0.46520  Biso   1.000  H
  H26      1.0000 0.85240  0.84630  0.53480  Biso   1.000  H
  C21      1.0000 0.90670  0.44830  0.93040  Biso   1.000  C
  C22      1.0000 0.09330  0.55170  0.06960  Biso   1.000  C
  H27      1.0000 0.84470  0.41340  0.87960  Biso   1.000  H
  H28      1.0000 0.15530  0.58660  0.12040  Biso   1.000  H
  C23      1.0000 0.92140  0.49500  0.11150  Biso   1.000  C
  C24      1.0000 0.07860  0.50500  0.88850  Biso   1.000  C
  H29      1.0000 0.86980  0.49330  0.18970  Biso   1.000  H
  H30      1.0000 0.13020  0.50670  0.81030  Biso   1.000  H
