data_image0
_cell_length_a       11.608
_cell_length_b       11.986
_cell_length_c       12.775
_cell_angle_alpha    73.426
_cell_angle_beta     71.549
_cell_angle_gamma    62.478

_symmetry_space_group_name_H-M    "P 1"
_symmetry_int_tables_number       1

loop_
  _symmetry_equiv_pos_as_xyz
  'x, y, z'

loop_
  _atom_site_label
  _atom_site_occupancy
  _atom_site_fract_x
  _atom_site_fract_y
  _atom_site_fract_z
  _atom_site_thermal_displace_type
  _atom_site_B_iso_or_equiv
  _atom_site_type_symbol
  Cu1      1.0000 0.11692  0.42435  0.02274  Biso   1.000  Cu
  Cu2      1.0000 0.88308  0.57565  0.97726  Biso   1.000  Cu
  Cu3      1.0000 0.50000  0.00000  0.00000  Biso   1.000  Cu
  O1       1.0000 0.10250  0.57130  0.07140  Biso   1.000  O
  O2       1.0000 0.89750  0.42870  0.92860  Biso   1.000  O
  O3       1.0000 0.09830  0.30070  0.96440  Biso   1.000  O
  O4       1.0000 0.90170  0.69930  0.03560  Biso   1.000  O
  O5       1.0000 0.35720  0.76940  0.13150  Biso   1.000  O
  O6       1.0000 0.64280  0.23060  0.86850  Biso   1.000  O
  O7       1.0000 0.27580  0.97270  0.10440  Biso   1.000  O
  O8       1.0000 0.72420  0.02730  0.89560  Biso   1.000  O
  O9       1.0000 0.78970  0.19060  0.19630  Biso   1.000  O
  O10      1.0000 0.21030  0.80940  0.80370  Biso   1.000  O
  O11      1.0000 0.68320  0.12160  0.14080  Biso   1.000  O
  O12      1.0000 0.31680  0.87840  0.85920  Biso   1.000  O
  O13      1.0000 0.31130  0.29240  0.05630  Biso   1.000  O
  O14      1.0000 0.68870  0.70760  0.94370  Biso   1.000  O
  O15      1.0000 0.43580  0.09350  0.12220  Biso   1.000  O
  O16      1.0000 0.56420  0.90650  0.87780  Biso   1.000  O
  O17      1.0000 0.38400  0.94590  0.51960  Biso   1.000  O
  O18      1.0000 0.61600  0.05410  0.48040  Biso   1.000  O
  O19      1.0000 0.28810  0.08120  0.63420  Biso   1.000  O
  O20      1.0000 0.71190  0.91880  0.36580  Biso   1.000  O
  O21      1.0000 0.11080  0.52990  0.49800  Biso   1.000  O
  O22      1.0000 0.88920  0.47010  0.50200  Biso   1.000  O
  O23      1.0000 0.11830  0.59920  0.32450  Biso   1.000  O
  O24      1.0000 0.88170  0.40080  0.67550  Biso   1.000  O
  O25      1.0000 0.18510  0.49270  0.86920  Biso   1.000  O
  O26      1.0000 0.81490  0.50730  0.13080  Biso   1.000  O
  O27      1.0000 0.01380  0.37740  0.16870  Biso   1.000  O
  O28      1.0000 0.98620  0.62260  0.83130  Biso   1.000  O
  O29      1.0000 0.57620  0.53270  0.61400  Biso   1.000  O
  O30      1.0000 0.42380  0.46730  0.38600  Biso   1.000  O
  O31      1.0000 0.56330  0.65950  0.45920  Biso   1.000  O
  O32      1.0000 0.43670  0.34050  0.54080  Biso   1.000  O
  O33      1.0000 0.13920  0.91710  0.35910  Biso   1.000  O
  O34      1.0000 0.86080  0.08290  0.64090  Biso   1.000  O
  O35      1.0000 0.96600  0.89420  0.46340  Biso   1.000  O
  O36      1.0000 0.03400  0.10580  0.53660  Biso   1.000  O
  O37      1.0000 0.60380  0.85290  0.09430  Biso   1.000  O
  O38      1.0000 0.39620  0.14710  0.90570  Biso   1.000  O
  N1       1.0000 0.26560  0.87210  0.12220  Biso   1.000  N
  N2       1.0000 0.73440  0.12790  0.87780  Biso   1.000  N
  N3       1.0000 0.78250  0.10970  0.16300  Biso   1.000  N
  N4       1.0000 0.21750  0.89030  0.83700  Biso   1.000  N
  N5       1.0000 0.32400  0.05600  0.54040  Biso   1.000  N
  N6       1.0000 0.67600  0.94400  0.45960  Biso   1.000  N
  N7       1.0000 0.14080  0.51410  0.40190  Biso   1.000  N
  N8       1.0000 0.85920  0.48590  0.59810  Biso   1.000  N
  N9       1.0000 0.08200  0.86890  0.44270  Biso   1.000  N
  N10      1.0000 0.91800  0.13110  0.55730  Biso   1.000  N
  N11      1.0000 0.51380  0.61260  0.54620  Biso   1.000  N
  N12      1.0000 0.48620  0.38740  0.45380  Biso   1.000  N
  C1       1.0000 0.00330  0.67530  0.06710  Biso   1.000  C
  C2       1.0000 0.99670  0.32470  0.93290  Biso   1.000  C
  C3       1.0000 0.00850  0.78360  0.09930  Biso   1.000  C
  C4       1.0000 0.99150  0.21640  0.90070  Biso   1.000  C
  C5       1.0000 0.89410  0.89310  0.11840  Biso   1.000  C
  C6       1.0000 0.10590  0.10690  0.88160  Biso   1.000  C
  C7       1.0000 0.90420  0.99290  0.14410  Biso   1.000  C
  C8       1.0000 0.09580  0.00710  0.85590  Biso   1.000  C
  C9       1.0000 0.02180  0.98930  0.14860  Biso   1.000  C
  C10      1.0000 0.97820  0.01070  0.85140  Biso   1.000  C
  C11      1.0000 0.13350  0.87870  0.12770  Biso   1.000  C
  C12      1.0000 0.86650  0.12130  0.87230  Biso   1.000  C
  C13      1.0000 0.12950  0.77440  0.10590  Biso   1.000  C
  C14      1.0000 0.87050  0.22560  0.89410  Biso   1.000  C
  C15      1.0000 0.35540  0.20710  0.13280  Biso   1.000  C
  C16      1.0000 0.64460  0.79290  0.86720  Biso   1.000  C
  C17      1.0000 0.31290  0.23590  0.25050  Biso   1.000  C
  C18      1.0000 0.68710  0.76410  0.74950  Biso   1.000  C
  C19      1.0000 0.33930  0.13610  0.33950  Biso   1.000  C
  C20      1.0000 0.66070  0.86390  0.66050  Biso   1.000  C
  C21      1.0000 0.29760  0.16190  0.44640  Biso   1.000  C
  C22      1.0000 0.70240  0.83810  0.55360  Biso   1.000  C
  C23      1.0000 0.23120  0.28550  0.46970  Biso   1.000  C
  C24      1.0000 0.76880  0.71450  0.53030  Biso   1.000  C
  C25      1.0000 0.20960  0.38090  0.38000  Biso   1.000  C
  C26      1.0000 0.79040  0.61910  0.62000  Biso   1.000  C
  C27      1.0000 0.24710  0.36030  0.27070  Biso   1.000  C
  C28      1.0000 0.75290  0.63970  0.72930  Biso   1.000  C
  C29      1.0000 0.10940  0.57740  0.80840  Biso   1.000  C
  C30      1.0000 0.89060  0.42260  0.19160  Biso   1.000  C
  C31      1.0000 0.17380  0.63200  0.69780  Biso   1.000  C
  C32      1.0000 0.82620  0.36800  0.30220  Biso   1.000  C
  C33      1.0000 0.31150  0.59550  0.67240  Biso   1.000  C
  C34      1.0000 0.68850  0.40450  0.32760  Biso   1.000  C
  C35      1.0000 0.36880  0.65090  0.57220  Biso   1.000  C
  C36      1.0000 0.63120  0.34910  0.42780  Biso   1.000  C
  C37      1.0000 0.29850  0.73850  0.49620  Biso   1.000  C
  C38      1.0000 0.70150  0.26150  0.50380  Biso   1.000  C
  C39      1.0000 0.16260  0.77160  0.52390  Biso   1.000  C
  C40      1.0000 0.83740  0.22840  0.47610  Biso   1.000  C
  C41      1.0000 0.09920  0.72020  0.62330  Biso   1.000  C
  C42      1.0000 0.90080  0.27980  0.37670  Biso   1.000  C
  C43      1.0000 0.57870  0.81490  0.21160  Biso   1.000  C
  C44      1.0000 0.42130  0.18510  0.78840  Biso   1.000  C
  H1       1.0000 0.81100  0.90000  0.11400  Biso   1.000  H
  H2       1.0000 0.18900  0.10000  0.88600  Biso   1.000  H
  H3       1.0000 0.02700  0.05900  0.16500  Biso   1.000  H
  H4       1.0000 0.97300  0.94100  0.83500  Biso   1.000  H
  H5       1.0000 0.20800  0.69800  0.09500  Biso   1.000  H
  H6       1.0000 0.79200  0.30200  0.90500  Biso   1.000  H
  H7       1.0000 0.38600  0.05000  0.32700  Biso   1.000  H
  H8       1.0000 0.61400  0.95000  0.67300  Biso   1.000  H
  H9       1.0000 0.20300  0.30200  0.54400  Biso   1.000  H
  H10      1.0000 0.79700  0.69800  0.45600  Biso   1.000  H
  H11      1.0000 0.22900  0.43000  0.21100  Biso   1.000  H
  H12      1.0000 0.77100  0.57000  0.78900  Biso   1.000  H
  H13      1.0000 0.36400  0.53400  0.72300  Biso   1.000  H
  H14      1.0000 0.63600  0.46600  0.27700  Biso   1.000  H
  H15      1.0000 0.34000  0.77600  0.42800  Biso   1.000  H
  H16      1.0000 0.66000  0.22400  0.57200  Biso   1.000  H
  H17      1.0000 0.69500  0.82700  0.05900  Biso   1.000  H
  H18      1.0000 0.30500  0.17300  0.94100  Biso   1.000  H
  H19      1.0000 0.00600  0.74600  0.64000  Biso   1.000  H
  H20      1.0000 0.99400  0.25400  0.36000  Biso   1.000  H
  H21      1.0000 0.65000  0.73800  0.23100  Biso   1.000  H
  H22      1.0000 0.35000  0.26200  0.76900  Biso   1.000  H
  H23      1.0000 0.49900  0.80200  0.23500  Biso   1.000  H
  H24      1.0000 0.50100  0.19800  0.76500  Biso   1.000  H
  H25      1.0000 0.56900  0.87900  0.24700  Biso   1.000  H
  H26      1.0000 0.43100  0.12100  0.75300  Biso   1.000  H
