data_image0
_cell_length_a       11.1058
_cell_length_b       14.2965
_cell_length_c       7.6125
_cell_angle_alpha    90
_cell_angle_beta     105.338
_cell_angle_gamma    90

_symmetry_space_group_name_H-M    "P 1"
_symmetry_int_tables_number       1

loop_
  _symmetry_equiv_pos_as_xyz
  'x, y, z'

loop_
  _atom_site_label
  _atom_site_occupancy
  _atom_site_fract_x
  _atom_site_fract_y
  _atom_site_fract_z
  _atom_site_thermal_displace_type
  _atom_site_B_iso_or_equiv
  _atom_site_type_symbol
  Cu1      1.0000 0.75787  0.03790  0.07681  Biso   1.000  Cu
  Cu2      1.0000 0.24213  0.53790  0.42319  Biso   1.000  Cu
  Cu3      1.0000 0.24213  0.96210  0.92319  Biso   1.000  Cu
  Cu4      1.0000 0.75787  0.46210  0.57681  Biso   1.000  Cu
  O1       1.0000 0.76140  0.01158  0.79500  Biso   1.000  O
  O2       1.0000 0.23860  0.51158  0.70500  Biso   1.000  O
  O3       1.0000 0.23860  0.98842  0.20500  Biso   1.000  O
  O4       1.0000 0.76140  0.48842  0.29500  Biso   1.000  O
  O5       1.0000 0.62820  0.10640  0.85070  Biso   1.000  O
  O6       1.0000 0.37180  0.60640  0.64930  Biso   1.000  O
  O7       1.0000 0.37180  0.89360  0.14930  Biso   1.000  O
  O8       1.0000 0.62820  0.39360  0.35070  Biso   1.000  O
  O9       1.0000 0.86473  0.93549  0.19340  Biso   1.000  O
  O10      1.0000 0.13527  0.43549  0.30660  Biso   1.000  O
  O11      1.0000 0.13527  0.06451  0.80660  Biso   1.000  O
  O12      1.0000 0.86473  0.56451  0.69340  Biso   1.000  O
  O13      1.0000 0.71645  0.82835  0.12380  Biso   1.000  O
  O14      1.0000 0.28355  0.32835  0.37620  Biso   1.000  O
  O15      1.0000 0.28355  0.17165  0.87620  Biso   1.000  O
  O16      1.0000 0.71645  0.67165  0.62380  Biso   1.000  O
  N1       1.0000 0.64149  0.06929  0.23960  Biso   1.000  N
  N2       1.0000 0.35851  0.56929  0.26040  Biso   1.000  N
  N3       1.0000 0.35851  0.93071  0.76040  Biso   1.000  N
  N4       1.0000 0.64149  0.43071  0.73960  Biso   1.000  N
  N5       1.0000 0.10860  0.64172  0.35090  Biso   1.000  N
  N6       1.0000 0.89140  0.14172  0.14910  Biso   1.000  N
  N7       1.0000 0.89140  0.35828  0.64910  Biso   1.000  N
  N8       1.0000 0.10860  0.85828  0.85090  Biso   1.000  N
  C1       1.0000 0.68161  0.05143  0.41830  Biso   1.000  C
  C2       1.0000 0.31839  0.55143  0.08170  Biso   1.000  C
  C3       1.0000 0.31839  0.94857  0.58170  Biso   1.000  C
  C4       1.0000 0.68161  0.44857  0.91830  Biso   1.000  C
  H1       1.0000 0.75250  0.01470  0.46030  Biso   1.000  H
  H2       1.0000 0.24750  0.51470  0.03970  Biso   1.000  H
  H3       1.0000 0.24750  0.98530  0.53970  Biso   1.000  H
  H4       1.0000 0.75250  0.48530  0.96030  Biso   1.000  H
  C5       1.0000 0.62201  0.08529  0.54240  Biso   1.000  C
  C6       1.0000 0.37799  0.58529  0.95760  Biso   1.000  C
  C7       1.0000 0.37799  0.91471  0.45760  Biso   1.000  C
  C8       1.0000 0.62201  0.41471  0.04240  Biso   1.000  C
  C9       1.0000 0.51480  0.13887  0.47860  Biso   1.000  C
  C10      1.0000 0.48520  0.63887  0.02140  Biso   1.000  C
  C11      1.0000 0.48520  0.86113  0.52140  Biso   1.000  C
  C12      1.0000 0.51480  0.36113  0.97860  Biso   1.000  C
  H5       1.0000 0.47300  0.16300  0.55950  Biso   1.000  H
  H6       1.0000 0.52700  0.66300  0.94050  Biso   1.000  H
  H7       1.0000 0.52700  0.83700  0.44050  Biso   1.000  H
  H8       1.0000 0.47300  0.33700  0.05950  Biso   1.000  H
  C13      1.0000 0.47123  0.15576  0.29510  Biso   1.000  C
  C14      1.0000 0.52877  0.65576  0.20490  Biso   1.000  C
  C15      1.0000 0.52877  0.84424  0.70490  Biso   1.000  C
  C16      1.0000 0.47123  0.34424  0.79510  Biso   1.000  C
  H9       1.0000 0.39910  0.19080  0.24970  Biso   1.000  H
  H10      1.0000 0.60090  0.69080  0.25030  Biso   1.000  H
  H11      1.0000 0.60090  0.80920  0.75030  Biso   1.000  H
  H12      1.0000 0.39910  0.30920  0.74970  Biso   1.000  H
  C17      1.0000 0.53664  0.11966  0.17940  Biso   1.000  C
  C18      1.0000 0.46336  0.61966  0.32060  Biso   1.000  C
  C19      1.0000 0.46336  0.88034  0.82060  Biso   1.000  C
  C20      1.0000 0.53664  0.38034  0.67940  Biso   1.000  C
  H13      1.0000 0.50690  0.13070  0.05500  Biso   1.000  H
  H14      1.0000 0.49310  0.63070  0.44500  Biso   1.000  H
  H15      1.0000 0.49310  0.86930  0.94500  Biso   1.000  H
  H16      1.0000 0.50690  0.36930  0.55500  Biso   1.000  H
  C21      1.0000 0.67440  0.06560  0.74130  Biso   1.000  C
  C22      1.0000 0.32560  0.56560  0.75870  Biso   1.000  C
  C23      1.0000 0.32560  0.93440  0.25870  Biso   1.000  C
  C24      1.0000 0.67440  0.43440  0.24130  Biso   1.000  C
  C25      1.0000 0.98790  0.61905  0.29330  Biso   1.000  C
  C26      1.0000 0.01210  0.11905  0.20670  Biso   1.000  C
  C27      1.0000 0.01210  0.38095  0.70670  Biso   1.000  C
  C28      1.0000 0.98790  0.88095  0.79330  Biso   1.000  C
  H17      1.0000 0.96600  0.55620  0.28910  Biso   1.000  H
  H18      1.0000 0.03400  0.05620  0.21090  Biso   1.000  H
  H19      1.0000 0.03400  0.44380  0.71090  Biso   1.000  H
  H20      1.0000 0.96600  0.94380  0.78910  Biso   1.000  H
  C29      1.0000 0.89460  0.68450  0.23990  Biso   1.000  C
  C30      1.0000 0.10540  0.18450  0.26010  Biso   1.000  C
  C31      1.0000 0.10540  0.31550  0.76010  Biso   1.000  C
  C32      1.0000 0.89460  0.81550  0.73990  Biso   1.000  C
  H21      1.0000 0.81160  0.66570  0.20090  Biso   1.000  H
  H22      1.0000 0.18840  0.16570  0.29910  Biso   1.000  H
  H23      1.0000 0.18840  0.33430  0.79910  Biso   1.000  H
  H24      1.0000 0.81160  0.83430  0.70090  Biso   1.000  H
  C33      1.0000 0.92513  0.77831  0.24460  Biso   1.000  C
  C34      1.0000 0.07487  0.27831  0.25540  Biso   1.000  C
  C35      1.0000 0.07487  0.22169  0.75540  Biso   1.000  C
  C36      1.0000 0.92513  0.72169  0.74460  Biso   1.000  C
  C37      1.0000 0.04960  0.80208  0.30570  Biso   1.000  C
  C38      1.0000 0.95040  0.30208  0.19430  Biso   1.000  C
  C39      1.0000 0.95040  0.19792  0.69430  Biso   1.000  C
  C40      1.0000 0.04960  0.69792  0.80570  Biso   1.000  C
  H25      1.0000 0.07390  0.86450  0.31220  Biso   1.000  H
  H26      1.0000 0.92610  0.36450  0.18780  Biso   1.000  H
  H27      1.0000 0.92610  0.13550  0.68780  Biso   1.000  H
  H28      1.0000 0.07390  0.63550  0.81220  Biso   1.000  H
  C41      1.0000 0.13760  0.73244  0.35700  Biso   1.000  C
  C42      1.0000 0.86240  0.23244  0.14300  Biso   1.000  C
  C43      1.0000 0.86240  0.26756  0.64300  Biso   1.000  C
  C44      1.0000 0.13760  0.76756  0.85700  Biso   1.000  C
  H29      1.0000 0.22120  0.74940  0.39790  Biso   1.000  H
  H30      1.0000 0.77880  0.24940  0.10210  Biso   1.000  H
  H31      1.0000 0.77880  0.25060  0.60210  Biso   1.000  H
  H32      1.0000 0.22120  0.75060  0.89790  Biso   1.000  H
  C45      1.0000 0.82465  0.85183  0.18190  Biso   1.000  C
  C46      1.0000 0.17535  0.35183  0.31810  Biso   1.000  C
  C47      1.0000 0.17535  0.14817  0.81810  Biso   1.000  C
  C48      1.0000 0.82465  0.64817  0.68190  Biso   1.000  C
