data_image0
_cell_length_a       15.457
_cell_length_b       13.0982
_cell_length_c       22.867
_cell_angle_alpha    90
_cell_angle_beta     105.4
_cell_angle_gamma    90

_symmetry_space_group_name_H-M    "P 1"
_symmetry_int_tables_number       1

loop_
  _symmetry_equiv_pos_as_xyz
  'x, y, z'

loop_
  _atom_site_label
  _atom_site_occupancy
  _atom_site_fract_x
  _atom_site_fract_y
  _atom_site_fract_z
  _atom_site_thermal_displace_type
  _atom_site_B_iso_or_equiv
  _atom_site_type_symbol
  Cu1      1.0000 0.17580  0.50030  0.77588  Biso   1.000  Cu
  Cu2      1.0000 0.32420  0.00030  0.72412  Biso   1.000  Cu
  Cu3      1.0000 0.82420  0.49970  0.22412  Biso   1.000  Cu
  Cu4      1.0000 0.67580  0.99970  0.27588  Biso   1.000  Cu
  Cl1      1.0000 0.88480  0.98300  0.57280  Biso   1.000  Cl
  Cl2      1.0000 0.61520  0.48300  0.92720  Biso   1.000  Cl
  Cl3      1.0000 0.11520  0.01700  0.42720  Biso   1.000  Cl
  Cl4      1.0000 0.38480  0.51700  0.07280  Biso   1.000  Cl
  Cl5      1.0000 0.87310  0.35430  0.66680  Biso   1.000  Cl
  Cl6      1.0000 0.62690  0.85430  0.83320  Biso   1.000  Cl
  Cl7      1.0000 0.12690  0.64570  0.33320  Biso   1.000  Cl
  Cl8      1.0000 0.37310  0.14570  0.16680  Biso   1.000  Cl
  Cl9      1.0000 0.93900  0.64070  0.80180  Biso   1.000  Cl
  Cl10     1.0000 0.56100  0.14070  0.69820  Biso   1.000  Cl
  Cl11     1.0000 0.06100  0.35930  0.19820  Biso   1.000  Cl
  Cl12     1.0000 0.43900  0.85930  0.30180  Biso   1.000  Cl
  Cl13     1.0000 0.72320  0.93050  0.67040  Biso   1.000  Cl
  Cl14     1.0000 0.77680  0.43050  0.82960  Biso   1.000  Cl
  Cl15     1.0000 0.27680  0.06950  0.32960  Biso   1.000  Cl
  Cl16     1.0000 0.22320  0.56950  0.17040  Biso   1.000  Cl
  O1       1.0000 0.96580  0.87630  0.76100  Biso   1.000  O
  O2       1.0000 0.53420  0.37630  0.73900  Biso   1.000  O
  O3       1.0000 0.03420  0.12370  0.23900  Biso   1.000  O
  O4       1.0000 0.46580  0.62370  0.26100  Biso   1.000  O
  N1       1.0000 0.10410  0.61130  0.72830  Biso   1.000  N
  N2       1.0000 0.39590  0.11130  0.77170  Biso   1.000  N
  N3       1.0000 0.89590  0.38870  0.27170  Biso   1.000  N
  N4       1.0000 0.60410  0.88870  0.22830  Biso   1.000  N
  N5       1.0000 0.06810  0.77040  0.69480  Biso   1.000  N
  N6       1.0000 0.43190  0.27040  0.80520  Biso   1.000  N
  N7       1.0000 0.93190  0.22960  0.30520  Biso   1.000  N
  N8       1.0000 0.56810  0.72960  0.19480  Biso   1.000  N
  C1       1.0000 0.11330  0.71150  0.73910  Biso   1.000  C
  C2       1.0000 0.38670  0.21150  0.76090  Biso   1.000  C
  C3       1.0000 0.88670  0.28850  0.26090  Biso   1.000  C
  C4       1.0000 0.61330  0.78850  0.23910  Biso   1.000  C
  H1       1.0000 0.14900  0.73770  0.77520  Biso   1.000  H
  H2       1.0000 0.35100  0.23770  0.72480  Biso   1.000  H
  H3       1.0000 0.85100  0.26230  0.22480  Biso   1.000  H
  H4       1.0000 0.64900  0.76230  0.27520  Biso   1.000  H
  C5       1.0000 0.01530  0.70490  0.65510  Biso   1.000  C
  C6       1.0000 0.48470  0.20490  0.84490  Biso   1.000  C
  C7       1.0000 0.98470  0.29510  0.34490  Biso   1.000  C
  C8       1.0000 0.51530  0.79510  0.15510  Biso   1.000  C
  H5       1.0000 0.96880  0.72330  0.62170  Biso   1.000  H
  H6       1.0000 0.53120  0.22330  0.87830  Biso   1.000  H
  H7       1.0000 0.03120  0.27670  0.37830  Biso   1.000  H
  H8       1.0000 0.46880  0.77670  0.12170  Biso   1.000  H
  C9       1.0000 0.04190  0.60700  0.67220  Biso   1.000  C
  C10      1.0000 0.45810  0.10700  0.82780  Biso   1.000  C
  C11      1.0000 0.95810  0.39300  0.32780  Biso   1.000  C
  C12      1.0000 0.54190  0.89300  0.17220  Biso   1.000  C
  H9       1.0000 0.02170  0.54810  0.65010  Biso   1.000  H
  H10      1.0000 0.47830  0.04810  0.84990  Biso   1.000  H
  H11      1.0000 0.97830  0.45190  0.34990  Biso   1.000  H
  H12      1.0000 0.52170  0.95190  0.15010  Biso   1.000  H
  C13      1.0000 0.05850  0.88040  0.69380  Biso   1.000  C
  C14      1.0000 0.44150  0.38040  0.80620  Biso   1.000  C
  C15      1.0000 0.94150  0.11960  0.30620  Biso   1.000  C
  C16      1.0000 0.55850  0.61960  0.19380  Biso   1.000  C
  H13      1.0000 0.06230  0.90680  0.65500  Biso   1.000  H
  H14      1.0000 0.43770  0.40680  0.84500  Biso   1.000  H
  H15      1.0000 0.93770  0.09320  0.34500  Biso   1.000  H
  H16      1.0000 0.56230  0.59320  0.15500  Biso   1.000  H
  H17      1.0000 0.10670  0.91050  0.72520  Biso   1.000  H
  H18      1.0000 0.39330  0.41050  0.77480  Biso   1.000  H
  H19      1.0000 0.89330  0.08950  0.27480  Biso   1.000  H
  H20      1.0000 0.60670  0.58950  0.22520  Biso   1.000  H
  C17      1.0000 0.97240  0.90770  0.70390  Biso   1.000  C
  C18      1.0000 0.52760  0.40770  0.79610  Biso   1.000  C
  C19      1.0000 0.02760  0.09230  0.29610  Biso   1.000  C
  C20      1.0000 0.47240  0.59230  0.20390  Biso   1.000  C
  H21      1.0000 0.92660  0.86980  0.67390  Biso   1.000  H
  H22      1.0000 0.57340  0.36980  0.82610  Biso   1.000  H
  H23      1.0000 0.07340  0.13020  0.32610  Biso   1.000  H
  H24      1.0000 0.42660  0.63020  0.17390  Biso   1.000  H
  C21      1.0000 0.95010  0.02470  0.69210  Biso   1.000  C
  C22      1.0000 0.54990  0.52470  0.80790  Biso   1.000  C
  C23      1.0000 0.04990  0.97530  0.30790  Biso   1.000  C
  C24      1.0000 0.45010  0.47530  0.19210  Biso   1.000  C
  C25      1.0000 0.90630  0.06170  0.63490  Biso   1.000  C
  C26      1.0000 0.59370  0.56170  0.86510  Biso   1.000  C
  C27      1.0000 0.09370  0.93830  0.36510  Biso   1.000  C
  C28      1.0000 0.40630  0.43830  0.13490  Biso   1.000  C
  C29      1.0000 0.88310  0.16430  0.62730  Biso   1.000  C
  C30      1.0000 0.61690  0.66430  0.87270  Biso   1.000  C
  C31      1.0000 0.11690  0.83570  0.37270  Biso   1.000  C
  C32      1.0000 0.38310  0.33570  0.12730  Biso   1.000  C
  H25      1.0000 0.85380  0.18910  0.58910  Biso   1.000  H
  H26      1.0000 0.64620  0.68910  0.91090  Biso   1.000  H
  H27      1.0000 0.14620  0.81090  0.41090  Biso   1.000  H
  H28      1.0000 0.35380  0.31090  0.08910  Biso   1.000  H
  C33      1.0000 0.90390  0.22990  0.67690  Biso   1.000  C
  C34      1.0000 0.59610  0.72990  0.82310  Biso   1.000  C
  C35      1.0000 0.09610  0.77010  0.32310  Biso   1.000  C
  C36      1.0000 0.40390  0.27010  0.17690  Biso   1.000  C
  C37      1.0000 0.94770  0.19290  0.73400  Biso   1.000  C
  C38      1.0000 0.55230  0.69290  0.76600  Biso   1.000  C
  C39      1.0000 0.05230  0.80710  0.26600  Biso   1.000  C
  C40      1.0000 0.44770  0.30710  0.23400  Biso   1.000  C
  H29      1.0000 0.96160  0.23680  0.76720  Biso   1.000  H
  H30      1.0000 0.53840  0.73680  0.73280  Biso   1.000  H
  H31      1.0000 0.03840  0.76320  0.23280  Biso   1.000  H
  H32      1.0000 0.46160  0.26320  0.26720  Biso   1.000  H
  C41      1.0000 0.97080  0.09030  0.74160  Biso   1.000  C
  C42      1.0000 0.52920  0.59030  0.75840  Biso   1.000  C
  C43      1.0000 0.02920  0.90970  0.25840  Biso   1.000  C
  C44      1.0000 0.47080  0.40970  0.24160  Biso   1.000  C
  H33      1.0000 0.00020  0.06550  0.77990  Biso   1.000  H
  H34      1.0000 0.49980  0.56550  0.72010  Biso   1.000  H
  H35      1.0000 0.99980  0.93450  0.22010  Biso   1.000  H
  H36      1.0000 0.50020  0.43450  0.27990  Biso   1.000  H
  C45      1.0000 0.88660  0.86220  0.77250  Biso   1.000  C
  C46      1.0000 0.61340  0.36220  0.72750  Biso   1.000  C
  C47      1.0000 0.11340  0.13780  0.22750  Biso   1.000  C
  C48      1.0000 0.38660  0.63780  0.27250  Biso   1.000  C
  H37      1.0000 0.85540  0.92710  0.76800  Biso   1.000  H
  H38      1.0000 0.64460  0.42710  0.73200  Biso   1.000  H
  H39      1.0000 0.14460  0.07290  0.23200  Biso   1.000  H
  H40      1.0000 0.35540  0.57290  0.26800  Biso   1.000  H
  H41      1.0000 0.89720  0.84150  0.81460  Biso   1.000  H
  H42      1.0000 0.60280  0.34150  0.68540  Biso   1.000  H
  H43      1.0000 0.10280  0.15850  0.18540  Biso   1.000  H
  H44      1.0000 0.39720  0.65850  0.31460  Biso   1.000  H
  C49      1.0000 0.82400  0.78220  0.73220  Biso   1.000  C
  C50      1.0000 0.67600  0.28220  0.76780  Biso   1.000  C
  C51      1.0000 0.17600  0.21780  0.26780  Biso   1.000  C
  C52      1.0000 0.32400  0.71780  0.23220  Biso   1.000  C
  C53      1.0000 0.85140  0.68120  0.74290  Biso   1.000  C
  C54      1.0000 0.64860  0.18120  0.75710  Biso   1.000  C
  C55      1.0000 0.14860  0.31880  0.25710  Biso   1.000  C
  C56      1.0000 0.35140  0.81880  0.24290  Biso   1.000  C
  C57      1.0000 0.80770  0.60470  0.70410  Biso   1.000  C
  C58      1.0000 0.69230  0.10470  0.79590  Biso   1.000  C
  C59      1.0000 0.19230  0.39530  0.29590  Biso   1.000  C
  C60      1.0000 0.30770  0.89530  0.20410  Biso   1.000  C
  H45      1.0000 0.82600  0.53720  0.71120  Biso   1.000  H
  H46      1.0000 0.67400  0.03720  0.78880  Biso   1.000  H
  H47      1.0000 0.17400  0.46280  0.28880  Biso   1.000  H
  H48      1.0000 0.32600  0.96280  0.21120  Biso   1.000  H
  C61      1.0000 0.73670  0.62910  0.65450  Biso   1.000  C
  C62      1.0000 0.76330  0.12910  0.84550  Biso   1.000  C
  C63      1.0000 0.26330  0.37090  0.34550  Biso   1.000  C
  C64      1.0000 0.23670  0.87090  0.15450  Biso   1.000  C
  H49      1.0000 0.70750  0.57790  0.62850  Biso   1.000  H
  H50      1.0000 0.79250  0.07790  0.87150  Biso   1.000  H
  H51      1.0000 0.29250  0.42210  0.37150  Biso   1.000  H
  H52      1.0000 0.20750  0.92210  0.12850  Biso   1.000  H
  C65      1.0000 0.70940  0.73010  0.64370  Biso   1.000  C
  C66      1.0000 0.79060  0.23010  0.85630  Biso   1.000  C
  C67      1.0000 0.29060  0.26990  0.35630  Biso   1.000  C
  C68      1.0000 0.20940  0.76990  0.14370  Biso   1.000  C
  H53      1.0000 0.66190  0.74650  0.61060  Biso   1.000  H
  H54      1.0000 0.83810  0.24650  0.88940  Biso   1.000  H
  H55      1.0000 0.33810  0.25350  0.38940  Biso   1.000  H
  H56      1.0000 0.16190  0.75350  0.11060  Biso   1.000  H
  C69      1.0000 0.75300  0.80660  0.68260  Biso   1.000  C
  C70      1.0000 0.74700  0.30660  0.81740  Biso   1.000  C
  C71      1.0000 0.24700  0.19340  0.31740  Biso   1.000  C
  C72      1.0000 0.25300  0.69340  0.18260  Biso   1.000  C
  Cl17     1.0000 0.33510  0.01430  0.02360  Biso   1.000  Cl
  Cl18     1.0000 0.16490  0.51430  0.47640  Biso   1.000  Cl
  Cl19     1.0000 0.66490  0.98570  0.97640  Biso   1.000  Cl
  Cl20     1.0000 0.83510  0.48570  0.52360  Biso   1.000  Cl
  Cl21     1.0000 0.18750  0.64370  0.97740  Biso   1.000  Cl
  Cl22     1.0000 0.31250  0.14370  0.52260  Biso   1.000  Cl
  Cl23     1.0000 0.81250  0.35630  0.02260  Biso   1.000  Cl
  Cl24     1.0000 0.68750  0.85630  0.47740  Biso   1.000  Cl
  Cl25     1.0000 0.01200  0.35560  0.87170  Biso   1.000  Cl
  Cl26     1.0000 0.48800  0.85560  0.62830  Biso   1.000  Cl
  Cl27     1.0000 0.98800  0.64440  0.12830  Biso   1.000  Cl
  Cl28     1.0000 0.51200  0.14440  0.37170  Biso   1.000  Cl
  Cl29     1.0000 0.11050  0.08720  0.05690  Biso   1.000  Cl
  Cl30     1.0000 0.38950  0.58720  0.44310  Biso   1.000  Cl
  Cl31     1.0000 0.88950  0.91280  0.94310  Biso   1.000  Cl
  Cl32     1.0000 0.61050  0.41280  0.55690  Biso   1.000  Cl
  O5       1.0000 0.09290  0.12550  0.88690  Biso   1.000  O
  O6       1.0000 0.40710  0.62550  0.61310  Biso   1.000  O
  O7       1.0000 0.90710  0.87450  0.11310  Biso   1.000  O
  O8       1.0000 0.59290  0.37450  0.38690  Biso   1.000  O
  N9       1.0000 0.21760  0.38590  0.83380  Biso   1.000  N
  N10      1.0000 0.28240  0.88590  0.66620  Biso   1.000  N
  N11      1.0000 0.78240  0.61410  0.16620  Biso   1.000  N
  N12      1.0000 0.71760  0.11410  0.33380  Biso   1.000  N
  N13      1.0000 0.24870  0.22890  0.87020  Biso   1.000  N
  N14      1.0000 0.25130  0.72890  0.62980  Biso   1.000  N
  N15      1.0000 0.75130  0.77110  0.12980  Biso   1.000  N
  N16      1.0000 0.74870  0.27110  0.37020  Biso   1.000  N
  C73      1.0000 0.21050  0.28520  0.82300  Biso   1.000  C
  C74      1.0000 0.28950  0.78520  0.67700  Biso   1.000  C
  C75      1.0000 0.78950  0.71480  0.17700  Biso   1.000  C
  C76      1.0000 0.71050  0.21480  0.32300  Biso   1.000  C
  H57      1.0000 0.18120  0.25780  0.78550  Biso   1.000  H
  H58      1.0000 0.31880  0.75780  0.71450  Biso   1.000  H
  H59      1.0000 0.81880  0.74220  0.21450  Biso   1.000  H
  H60      1.0000 0.68120  0.24220  0.28550  Biso   1.000  H
  C77      1.0000 0.28710  0.29460  0.91480  Biso   1.000  C
  C78      1.0000 0.21290  0.79460  0.58520  Biso   1.000  C
  C79      1.0000 0.71290  0.70540  0.08520  Biso   1.000  C
  C80      1.0000 0.78710  0.20540  0.41480  Biso   1.000  C
  H61      1.0000 0.32300  0.27720  0.95290  Biso   1.000  H
  H62      1.0000 0.17700  0.77720  0.54710  Biso   1.000  H
  H63      1.0000 0.67700  0.72280  0.04710  Biso   1.000  H
  H64      1.0000 0.82300  0.22280  0.45290  Biso   1.000  H
  C81      1.0000 0.26390  0.39210  0.89400  Biso   1.000  C
  C82      1.0000 0.23610  0.89210  0.60600  Biso   1.000  C
  C83      1.0000 0.73610  0.60790  0.10600  Biso   1.000  C
  C84      1.0000 0.76390  0.10790  0.39400  Biso   1.000  C
  H65      1.0000 0.27720  0.45180  0.91670  Biso   1.000  H
  H66      1.0000 0.22280  0.95180  0.58330  Biso   1.000  H
  H67      1.0000 0.72280  0.54820  0.08330  Biso   1.000  H
  H68      1.0000 0.77720  0.04820  0.41670  Biso   1.000  H
  C85      1.0000 0.24260  0.11950  0.87680  Biso   1.000  C
  C86      1.0000 0.25740  0.61950  0.62320  Biso   1.000  C
  C87      1.0000 0.75740  0.88050  0.12320  Biso   1.000  C
  C88      1.0000 0.74260  0.38050  0.37680  Biso   1.000  C
  H69      1.0000 0.30150  0.09230  0.89640  Biso   1.000  H
  H70      1.0000 0.19850  0.59230  0.60360  Biso   1.000  H
  H71      1.0000 0.69850  0.90770  0.10360  Biso   1.000  H
  H72      1.0000 0.80150  0.40770  0.39640  Biso   1.000  H
  H73      1.0000 0.22230  0.08840  0.83700  Biso   1.000  H
  H74      1.0000 0.27770  0.58840  0.66300  Biso   1.000  H
  H75      1.0000 0.77770  0.91160  0.16300  Biso   1.000  H
  H76      1.0000 0.72230  0.41160  0.33700  Biso   1.000  H
  C89      1.0000 0.18060  0.09310  0.91260  Biso   1.000  C
  C90      1.0000 0.31940  0.59310  0.58740  Biso   1.000  C
  C91      1.0000 0.81940  0.90690  0.08740  Biso   1.000  C
  C92      1.0000 0.68060  0.40690  0.41260  Biso   1.000  C
  H77      1.0000 0.20120  0.13120  0.95060  Biso   1.000  H
  H78      1.0000 0.29880  0.63120  0.54940  Biso   1.000  H
  H79      1.0000 0.79880  0.86880  0.04940  Biso   1.000  H
  H80      1.0000 0.70120  0.36880  0.45060  Biso   1.000  H
  C93      1.0000 0.18700  0.97640  0.93130  Biso   1.000  C
  C94      1.0000 0.31300  0.47640  0.56870  Biso   1.000  C
  C95      1.0000 0.81300  0.02360  0.06870  Biso   1.000  C
  C96      1.0000 0.68700  0.52360  0.43130  Biso   1.000  C
  C97      1.0000 0.25480  0.93720  0.97860  Biso   1.000  C
  C98      1.0000 0.24520  0.43720  0.52140  Biso   1.000  C
  C99      1.0000 0.74520  0.06280  0.02140  Biso   1.000  C
  C100     1.0000 0.75480  0.56280  0.47860  Biso   1.000  C
  C101     1.0000 0.25650  0.83370  0.99220  Biso   1.000  C
  C102     1.0000 0.24350  0.33370  0.50780  Biso   1.000  C
  C103     1.0000 0.74350  0.16630  0.00780  Biso   1.000  C
  C104     1.0000 0.75650  0.66630  0.49220  Biso   1.000  C
  H81      1.0000 0.30190  0.80750  0.02390  Biso   1.000  H
  H82      1.0000 0.19810  0.30750  0.47610  Biso   1.000  H
  H83      1.0000 0.69810  0.19250  0.97610  Biso   1.000  H
  H84      1.0000 0.80190  0.69250  0.52390  Biso   1.000  H
  C105     1.0000 0.19020  0.76940  0.95850  Biso   1.000  C
  C106     1.0000 0.30980  0.26940  0.54150  Biso   1.000  C
  C107     1.0000 0.80980  0.23060  0.04150  Biso   1.000  C
  C108     1.0000 0.69020  0.73060  0.45850  Biso   1.000  C
  C109     1.0000 0.12230  0.80860  0.91120  Biso   1.000  C
  C110     1.0000 0.37770  0.30860  0.58880  Biso   1.000  C
  C111     1.0000 0.87770  0.19140  0.08880  Biso   1.000  C
  C112     1.0000 0.62230  0.69140  0.41120  Biso   1.000  C
  H85      1.0000 0.07800  0.76560  0.88870  Biso   1.000  H
  H86      1.0000 0.42200  0.26560  0.61130  Biso   1.000  H
  H87      1.0000 0.92200  0.23440  0.11130  Biso   1.000  H
  H88      1.0000 0.57800  0.73440  0.38870  Biso   1.000  H
  C113     1.0000 0.12070  0.91210  0.89760  Biso   1.000  C
  C114     1.0000 0.37930  0.41210  0.60240  Biso   1.000  C
  C115     1.0000 0.87930  0.08790  0.10240  Biso   1.000  C
  C116     1.0000 0.62070  0.58790  0.39760  Biso   1.000  C
  H89      1.0000 0.07530  0.93830  0.86590  Biso   1.000  H
  H90      1.0000 0.42470  0.43830  0.63410  Biso   1.000  H
  H91      1.0000 0.92470  0.06170  0.13410  Biso   1.000  H
  H92      1.0000 0.57530  0.56170  0.36590  Biso   1.000  H
  C117     1.0000 0.03260  0.13760  0.91930  Biso   1.000  C
  C118     1.0000 0.46740  0.63760  0.58070  Biso   1.000  C
  C119     1.0000 0.96740  0.86240  0.08070  Biso   1.000  C
  C120     1.0000 0.53260  0.36240  0.41930  Biso   1.000  C
  H93      1.0000 0.02270  0.07300  0.93720  Biso   1.000  H
  H94      1.0000 0.47730  0.57300  0.56280  Biso   1.000  H
  H95      1.0000 0.97730  0.92700  0.06280  Biso   1.000  H
  H96      1.0000 0.52270  0.42700  0.43720  Biso   1.000  H
  H97      1.0000 0.97580  0.16040  0.89300  Biso   1.000  H
  H98      1.0000 0.52420  0.66040  0.60700  Biso   1.000  H
  H99      1.0000 0.02420  0.83960  0.10700  Biso   1.000  H
  H100     1.0000 0.47580  0.33960  0.39300  Biso   1.000  H
  C121     1.0000 0.06910  0.21980  0.97140  Biso   1.000  C
  C122     1.0000 0.43090  0.71980  0.52860  Biso   1.000  C
  C123     1.0000 0.93090  0.78020  0.02860  Biso   1.000  C
  C124     1.0000 0.56910  0.28020  0.47140  Biso   1.000  C
  C125     1.0000 0.05530  0.31590  0.94450  Biso   1.000  C
  C126     1.0000 0.44470  0.81590  0.55550  Biso   1.000  C
  C127     1.0000 0.94470  0.68410  0.05550  Biso   1.000  C
  C128     1.0000 0.55530  0.18410  0.44450  Biso   1.000  C
  C129     1.0000 0.07880  0.40320  0.97990  Biso   1.000  C
  C130     1.0000 0.42120  0.90320  0.52010  Biso   1.000  C
  C131     1.0000 0.92120  0.59680  0.02010  Biso   1.000  C
  C132     1.0000 0.57880  0.09680  0.47990  Biso   1.000  C
  H101     1.0000 0.06950  0.46740  0.96200  Biso   1.000  H
  H102     1.0000 0.43050  0.96740  0.53800  Biso   1.000  H
  H103     1.0000 0.93050  0.53260  0.03800  Biso   1.000  H
  H104     1.0000 0.56950  0.03260  0.46200  Biso   1.000  H
  C133     1.0000 0.11610  0.39430  0.04220  Biso   1.000  C
  C134     1.0000 0.38390  0.89430  0.45780  Biso   1.000  C
  C135     1.0000 0.88390  0.60570  0.95780  Biso   1.000  C
  C136     1.0000 0.61610  0.10570  0.54220  Biso   1.000  C
  H105     1.0000 0.13180  0.45260  0.06580  Biso   1.000  H
  H106     1.0000 0.36820  0.95260  0.43420  Biso   1.000  H
  H107     1.0000 0.86820  0.54740  0.93420  Biso   1.000  H
  H108     1.0000 0.63180  0.04740  0.56580  Biso   1.000  H
  C137     1.0000 0.12990  0.29820  0.06900  Biso   1.000  C
  C138     1.0000 0.37010  0.79820  0.43100  Biso   1.000  C
  C139     1.0000 0.87010  0.70180  0.93100  Biso   1.000  C
  C140     1.0000 0.62990  0.20180  0.56900  Biso   1.000  C
  H109     1.0000 0.15480  0.29230  0.11060  Biso   1.000  H
  H110     1.0000 0.34520  0.79230  0.38940  Biso   1.000  H
  H111     1.0000 0.84520  0.70770  0.88940  Biso   1.000  H
  H112     1.0000 0.65480  0.20770  0.61060  Biso   1.000  H
  C141     1.0000 0.10640  0.21100  0.03360  Biso   1.000  C
  C142     1.0000 0.39360  0.71100  0.46640  Biso   1.000  C
  C143     1.0000 0.89360  0.78900  0.96640  Biso   1.000  C
  C144     1.0000 0.60640  0.28900  0.53360  Biso   1.000  C
  O9       1.0000 0.11100  0.40260  0.71280  Biso   1.000  O
  O10      1.0000 0.38900  0.90260  0.78720  Biso   1.000  O
  O11      1.0000 0.88900  0.59740  0.28720  Biso   1.000  O
  O12      1.0000 0.61100  0.09740  0.21280  Biso   1.000  O
  O13      1.0000 0.24230  0.36920  0.69570  Biso   1.000  O
  O14      1.0000 0.25770  0.86920  0.80430  Biso   1.000  O
  O15      1.0000 0.75770  0.63080  0.30430  Biso   1.000  O
  O16      1.0000 0.74230  0.13080  0.19570  Biso   1.000  O
  O17      1.0000 0.25600  0.09300  0.66320  Biso   1.000  O
  O18      1.0000 0.24400  0.59300  0.83680  Biso   1.000  O
  O19      1.0000 0.74400  0.90700  0.33680  Biso   1.000  O
  O20      1.0000 0.75600  0.40700  0.16320  Biso   1.000  O
  O21      1.0000 0.17020  0.12790  0.72050  Biso   1.000  O
  O22      1.0000 0.32980  0.62790  0.77950  Biso   1.000  O
  O23      1.0000 0.82980  0.87210  0.27950  Biso   1.000  O
  O24      1.0000 0.67020  0.37210  0.22050  Biso   1.000  O
  C145     1.0000 0.16040  0.37110  0.68400  Biso   1.000  C
  C146     1.0000 0.33960  0.87110  0.81600  Biso   1.000  C
  C147     1.0000 0.83960  0.62890  0.31600  Biso   1.000  C
  C148     1.0000 0.66040  0.12890  0.18400  Biso   1.000  C
  C149     1.0000 0.11440  0.30410  0.62830  Biso   1.000  C
  C150     1.0000 0.38560  0.80410  0.87170  Biso   1.000  C
  C151     1.0000 0.88560  0.69590  0.37170  Biso   1.000  C
  C152     1.0000 0.61440  0.19590  0.12830  Biso   1.000  C
  C153     1.0000 0.05400  0.35440  0.58120  Biso   1.000  C
  C154     1.0000 0.44600  0.85440  0.91880  Biso   1.000  C
  C155     1.0000 0.94600  0.64560  0.41880  Biso   1.000  C
  C156     1.0000 0.55400  0.14560  0.08120  Biso   1.000  C
  H113     1.0000 0.04040  0.42270  0.58540  Biso   1.000  H
  H114     1.0000 0.45960  0.92270  0.91460  Biso   1.000  H
  H115     1.0000 0.95960  0.57730  0.41460  Biso   1.000  H
  H116     1.0000 0.54040  0.07730  0.08540  Biso   1.000  H
  C157     1.0000 0.01400  0.30250  0.52780  Biso   1.000  C
  C158     1.0000 0.48600  0.80250  0.97220  Biso   1.000  C
  C159     1.0000 0.98600  0.69750  0.47220  Biso   1.000  C
  C160     1.0000 0.51400  0.19750  0.02780  Biso   1.000  C
  H117     1.0000 0.97370  0.33620  0.49630  Biso   1.000  H
  H118     1.0000 0.52630  0.83620  0.00370  Biso   1.000  H
  H119     1.0000 0.02630  0.66380  0.50370  Biso   1.000  H
  H120     1.0000 0.47370  0.16380  0.99630  Biso   1.000  H
  C161     1.0000 0.03440  0.20040  0.52160  Biso   1.000  C
  C162     1.0000 0.46560  0.70040  0.97840  Biso   1.000  C
  C163     1.0000 0.96560  0.79960  0.47840  Biso   1.000  C
  C164     1.0000 0.53440  0.29960  0.02160  Biso   1.000  C
  H121     1.0000 0.00760  0.16580  0.48580  Biso   1.000  H
  H122     1.0000 0.49240  0.66580  0.01420  Biso   1.000  H
  H123     1.0000 0.99240  0.83420  0.51420  Biso   1.000  H
  H124     1.0000 0.50760  0.33420  0.98580  Biso   1.000  H
  C165     1.0000 0.09470  0.15010  0.56870  Biso   1.000  C
  C166     1.0000 0.40530  0.65010  0.93130  Biso   1.000  C
  C167     1.0000 0.90530  0.84990  0.43130  Biso   1.000  C
  C168     1.0000 0.59470  0.34990  0.06870  Biso   1.000  C
  H125     1.0000 0.10830  0.08180  0.56450  Biso   1.000  H
  H126     1.0000 0.39170  0.58180  0.93550  Biso   1.000  H
  H127     1.0000 0.89170  0.91820  0.43550  Biso   1.000  H
  H128     1.0000 0.60830  0.41820  0.06450  Biso   1.000  H
  C169     1.0000 0.13470  0.20190  0.62210  Biso   1.000  C
  C170     1.0000 0.36530  0.70190  0.87790  Biso   1.000  C
  C171     1.0000 0.86530  0.79810  0.37790  Biso   1.000  C
  C172     1.0000 0.63470  0.29810  0.12210  Biso   1.000  C
  C173     1.0000 0.19130  0.13400  0.67350  Biso   1.000  C
  C174     1.0000 0.30870  0.63400  0.82650  Biso   1.000  C
  C175     1.0000 0.80870  0.86600  0.32650  Biso   1.000  C
  C176     1.0000 0.69130  0.36600  0.17350  Biso   1.000  C
