data_image0
_cell_length_a       18.361
_cell_length_b       25.271
_cell_length_c       18.3882
_cell_angle_alpha    90
_cell_angle_beta     119.655
_cell_angle_gamma    90

_symmetry_space_group_name_H-M    "P 1"
_symmetry_int_tables_number       1

loop_
  _symmetry_equiv_pos_as_xyz
  'x, y, z'

loop_
  _atom_site_label
  _atom_site_occupancy
  _atom_site_fract_x
  _atom_site_fract_y
  _atom_site_fract_z
  _atom_site_thermal_displace_type
  _atom_site_B_iso_or_equiv
  _atom_site_type_symbol
  C1       1.0000 0.19010  0.63360  0.52600  Biso   1.000  C
  C2       1.0000 0.80990  0.13360  0.47400  Biso   1.000  C
  C3       1.0000 0.80990  0.36640  0.47400  Biso   1.000  C
  C4       1.0000 0.19010  0.86640  0.52600  Biso   1.000  C
  C5       1.0000 0.23950  0.58340  0.56210  Biso   1.000  C
  C6       1.0000 0.76050  0.08340  0.43790  Biso   1.000  C
  C7       1.0000 0.76050  0.41660  0.43790  Biso   1.000  C
  C8       1.0000 0.23950  0.91660  0.56210  Biso   1.000  C
  C9       1.0000 0.15490  0.70200  0.42890  Biso   1.000  C
  C10      1.0000 0.84510  0.20200  0.57110  Biso   1.000  C
  C11      1.0000 0.84510  0.29800  0.57110  Biso   1.000  C
  C12      1.0000 0.15490  0.79800  0.42890  Biso   1.000  C
  C13      1.0000 0.07420  0.70270  0.35980  Biso   1.000  C
  C14      1.0000 0.92580  0.20270  0.64020  Biso   1.000  C
  C15      1.0000 0.92580  0.29730  0.64020  Biso   1.000  C
  C16      1.0000 0.07420  0.79730  0.35980  Biso   1.000  C
  H1       1.0000 0.04720  0.67110  0.33510  Biso   1.000  H
  H2       1.0000 0.95280  0.17110  0.66490  Biso   1.000  H
  H3       1.0000 0.95280  0.32890  0.66490  Biso   1.000  H
  H4       1.0000 0.04720  0.82890  0.33510  Biso   1.000  H
  C17      1.0000 0.03530  0.75000  0.32860  Biso   1.000  C
  C18      1.0000 0.96470  0.25000  0.67140  Biso   1.000  C
  H5       1.0000 0.98030  0.75000  0.28460  Biso   1.000  H
  H6       1.0000 0.01970  0.25000  0.71540  Biso   1.000  H
  C19      1.0000 0.19430  0.75000  0.46330  Biso   1.000  C
  C20      1.0000 0.80570  0.25000  0.53670  Biso   1.000  C
  H7       1.0000 0.24780  0.75000  0.50980  Biso   1.000  H
  H8       1.0000 0.75220  0.25000  0.49020  Biso   1.000  H
  C21      1.0000 0.35770  0.63390  0.35500  Biso   1.000  C
  C22      1.0000 0.64230  0.13390  0.64500  Biso   1.000  C
  C23      1.0000 0.64230  0.36610  0.64500  Biso   1.000  C
  C24      1.0000 0.35770  0.86610  0.35500  Biso   1.000  C
  C25      1.0000 0.39010  0.58140  0.39720  Biso   1.000  C
  C26      1.0000 0.60990  0.08140  0.60280  Biso   1.000  C
  C27      1.0000 0.60990  0.41860  0.60280  Biso   1.000  C
  C28      1.0000 0.39010  0.91860  0.39720  Biso   1.000  C
  C29      1.0000 0.26060  0.70270  0.32460  Biso   1.000  C
  C30      1.0000 0.73940  0.20270  0.67540  Biso   1.000  C
  C31      1.0000 0.73940  0.29730  0.67540  Biso   1.000  C
  C32      1.0000 0.26060  0.79730  0.32460  Biso   1.000  C
  C33      1.0000 0.18330  0.70280  0.25090  Biso   1.000  C
  C34      1.0000 0.81670  0.20280  0.74910  Biso   1.000  C
  C35      1.0000 0.81670  0.29720  0.74910  Biso   1.000  C
  C36      1.0000 0.18330  0.79720  0.25090  Biso   1.000  C
  H9       1.0000 0.15720  0.67110  0.22620  Biso   1.000  H
  H10      1.0000 0.84280  0.17110  0.77380  Biso   1.000  H
  H11      1.0000 0.84280  0.32890  0.77380  Biso   1.000  H
  H12      1.0000 0.15720  0.82890  0.22620  Biso   1.000  H
  C37      1.0000 0.14610  0.75000  0.21540  Biso   1.000  C
  C38      1.0000 0.85390  0.25000  0.78460  Biso   1.000  C
  H13      1.0000 0.09470  0.75000  0.16630  Biso   1.000  H
  H14      1.0000 0.90530  0.25000  0.83370  Biso   1.000  H
  C39      1.0000 0.29780  0.75000  0.35930  Biso   1.000  C
  C40      1.0000 0.70220  0.25000  0.64070  Biso   1.000  C
  H15      1.0000 0.34980  0.75000  0.40790  Biso   1.000  H
  H16      1.0000 0.65020  0.25000  0.59210  Biso   1.000  H
  C41      1.0000 0.00230  0.63420  0.64570  Biso   1.000  C
  C42      1.0000 0.99770  0.13420  0.35430  Biso   1.000  C
  C43      1.0000 0.99770  0.36580  0.35430  Biso   1.000  C
  C44      1.0000 0.00230  0.86580  0.64570  Biso   1.000  C
  C45      1.0000 0.99340  0.58160  0.60240  Biso   1.000  C
  C46      1.0000 0.00660  0.08160  0.39760  Biso   1.000  C
  C47      1.0000 0.00660  0.41840  0.39760  Biso   1.000  C
  C48      1.0000 0.99340  0.91840  0.60240  Biso   1.000  C
  C49      1.0000 0.93650  0.70270  0.67780  Biso   1.000  C
  C50      1.0000 0.06350  0.20270  0.32220  Biso   1.000  C
  C51      1.0000 0.06350  0.29730  0.32220  Biso   1.000  C
  C52      1.0000 0.93650  0.79730  0.67780  Biso   1.000  C
  C53      1.0000 0.93020  0.70300  0.74930  Biso   1.000  C
  C54      1.0000 0.06980  0.20300  0.25070  Biso   1.000  C
  C55      1.0000 0.06980  0.29700  0.25070  Biso   1.000  C
  C56      1.0000 0.93020  0.79700  0.74930  Biso   1.000  C
  H17      1.0000 0.92830  0.67110  0.77360  Biso   1.000  H
  H18      1.0000 0.07170  0.17110  0.22640  Biso   1.000  H
  H19      1.0000 0.07170  0.32890  0.22640  Biso   1.000  H
  H20      1.0000 0.92830  0.82890  0.77360  Biso   1.000  H
  C57      1.0000 0.92660  0.75000  0.78520  Biso   1.000  C
  C58      1.0000 0.07340  0.25000  0.21480  Biso   1.000  C
  H21      1.0000 0.92180  0.75000  0.83330  Biso   1.000  H
  H22      1.0000 0.07820  0.25000  0.16670  Biso   1.000  H
  C59      1.0000 0.93870  0.75000  0.64200  Biso   1.000  C
  C60      1.0000 0.06130  0.25000  0.35800  Biso   1.000  C
  H23      1.0000 0.94170  0.75000  0.59300  Biso   1.000  H
  H24      1.0000 0.05830  0.25000  0.40700  Biso   1.000  H
  C61      1.0000 0.66430  0.63370  0.47480  Biso   1.000  C
  C62      1.0000 0.33570  0.13370  0.52520  Biso   1.000  C
  C63      1.0000 0.33570  0.36630  0.52520  Biso   1.000  C
  C64      1.0000 0.66430  0.86630  0.47480  Biso   1.000  C
  C65      1.0000 0.67820  0.58310  0.43810  Biso   1.000  C
  C66      1.0000 0.32180  0.08310  0.56190  Biso   1.000  C
  C67      1.0000 0.32180  0.41690  0.56190  Biso   1.000  C
  C68      1.0000 0.67820  0.91690  0.43810  Biso   1.000  C
  C69      1.0000 0.72640  0.70180  0.57210  Biso   1.000  C
  C70      1.0000 0.27360  0.20180  0.42790  Biso   1.000  C
  C71      1.0000 0.27360  0.29820  0.42790  Biso   1.000  C
  C72      1.0000 0.72640  0.79820  0.57210  Biso   1.000  C
  C73      1.0000 0.71340  0.70220  0.63980  Biso   1.000  C
  C74      1.0000 0.28660  0.20220  0.36020  Biso   1.000  C
  C75      1.0000 0.28660  0.29780  0.36020  Biso   1.000  C
  C76      1.0000 0.71340  0.79780  0.63980  Biso   1.000  C
  H25      1.0000 0.70850  0.67050  0.66260  Biso   1.000  H
  H26      1.0000 0.29150  0.17050  0.33740  Biso   1.000  H
  H27      1.0000 0.29150  0.32950  0.33740  Biso   1.000  H
  H28      1.0000 0.70850  0.82950  0.66260  Biso   1.000  H
  C77      1.0000 0.70770  0.75000  0.67420  Biso   1.000  C
  C78      1.0000 0.29230  0.25000  0.32580  Biso   1.000  C
  H29      1.0000 0.69990  0.75000  0.72050  Biso   1.000  H
  H30      1.0000 0.30010  0.25000  0.27950  Biso   1.000  H
  C79      1.0000 0.73100  0.75000  0.53760  Biso   1.000  C
  C80      1.0000 0.26900  0.25000  0.46240  Biso   1.000  C
  H31      1.0000 0.73730  0.75000  0.49040  Biso   1.000  H
  H32      1.0000 0.26270  0.25000  0.50960  Biso   1.000  H
  C81      1.0000 0.31210  0.63440  0.83360  Biso   1.000  C
  C82      1.0000 0.68790  0.13440  0.16640  Biso   1.000  C
  C83      1.0000 0.68790  0.36560  0.16640  Biso   1.000  C
  C84      1.0000 0.31210  0.86560  0.83360  Biso   1.000  C
  C85      1.0000 0.27760  0.58120  0.84310  Biso   1.000  C
  C86      1.0000 0.72240  0.08120  0.15690  Biso   1.000  C
  C87      1.0000 0.72240  0.41880  0.15690  Biso   1.000  C
  C88      1.0000 0.27760  0.91880  0.84310  Biso   1.000  C
  C89      1.0000 0.40840  0.70250  0.89500  Biso   1.000  C
  C90      1.0000 0.59160  0.20250  0.10500  Biso   1.000  C
  C91      1.0000 0.59160  0.29750  0.10500  Biso   1.000  C
  C92      1.0000 0.40840  0.79750  0.89500  Biso   1.000  C
  C93      1.0000 0.48010  0.70240  0.88580  Biso   1.000  C
  C94      1.0000 0.51990  0.20240  0.11420  Biso   1.000  C
  C95      1.0000 0.51990  0.29760  0.11420  Biso   1.000  C
  C96      1.0000 0.48010  0.79760  0.88580  Biso   1.000  C
  H33      1.0000 0.50370  0.67070  0.88210  Biso   1.000  H
  H34      1.0000 0.49630  0.17070  0.11790  Biso   1.000  H
  H35      1.0000 0.49630  0.32930  0.11790  Biso   1.000  H
  H36      1.0000 0.50370  0.82930  0.88210  Biso   1.000  H
  C97      1.0000 0.51520  0.75000  0.88240  Biso   1.000  C
  C98      1.0000 0.48480  0.25000  0.11760  Biso   1.000  C
  H37      1.0000 0.56330  0.75000  0.87770  Biso   1.000  H
  H38      1.0000 0.43670  0.25000  0.12230  Biso   1.000  H
  C99      1.0000 0.37440  0.75000  0.89910  Biso   1.000  C
  C100     1.0000 0.62560  0.25000  0.10090  Biso   1.000  C
  H39      1.0000 0.32680  0.75000  0.90470  Biso   1.000  H
  H40      1.0000 0.67320  0.25000  0.09530  Biso   1.000  H
  C101     1.0000 0.47880  0.63410  0.16670  Biso   1.000  C
  C102     1.0000 0.52120  0.13410  0.83330  Biso   1.000  C
  C103     1.0000 0.52120  0.36590  0.83330  Biso   1.000  C
  C104     1.0000 0.47880  0.86590  0.16670  Biso   1.000  C
  C105     1.0000 0.43580  0.58100  0.15690  Biso   1.000  C
  C106     1.0000 0.56420  0.08100  0.84310  Biso   1.000  C
  C107     1.0000 0.56420  0.41900  0.84310  Biso   1.000  C
  C108     1.0000 0.43580  0.91900  0.15690  Biso   1.000  C
  C109     1.0000 0.51450  0.70290  0.10560  Biso   1.000  C
  C110     1.0000 0.48550  0.20290  0.89440  Biso   1.000  C
  C111     1.0000 0.48550  0.29710  0.89440  Biso   1.000  C
  C112     1.0000 0.51450  0.79710  0.10560  Biso   1.000  C
  C113     1.0000 0.59410  0.70260  0.11360  Biso   1.000  C
  C114     1.0000 0.40590  0.20260  0.88640  Biso   1.000  C
  C115     1.0000 0.40590  0.29740  0.88640  Biso   1.000  C
  C116     1.0000 0.59410  0.79740  0.11360  Biso   1.000  C
  H41      1.0000 0.62050  0.67080  0.11580  Biso   1.000  H
  H42      1.0000 0.37950  0.17080  0.88420  Biso   1.000  H
  H43      1.0000 0.37950  0.32920  0.88420  Biso   1.000  H
  H44      1.0000 0.62050  0.82920  0.11580  Biso   1.000  H
  C117     1.0000 0.63310  0.75000  0.11820  Biso   1.000  C
  C118     1.0000 0.36690  0.25000  0.88180  Biso   1.000  C
  H45      1.0000 0.68660  0.75000  0.12460  Biso   1.000  H
  H46      1.0000 0.31340  0.25000  0.87540  Biso   1.000  H
  C119     1.0000 0.47420  0.75000  0.10130  Biso   1.000  C
  C120     1.0000 0.52580  0.25000  0.89870  Biso   1.000  C
  H47      1.0000 0.42100  0.75000  0.09560  Biso   1.000  H
  H48      1.0000 0.57900  0.25000  0.90440  Biso   1.000  H
  N1       1.0000 0.19720  0.65400  0.46420  Biso   1.000  N
  N2       1.0000 0.80280  0.15400  0.53580  Biso   1.000  N
  N3       1.0000 0.80280  0.34600  0.53580  Biso   1.000  N
  N4       1.0000 0.19720  0.84600  0.46420  Biso   1.000  N
  N5       1.0000 0.29670  0.65340  0.36340  Biso   1.000  N
  N6       1.0000 0.70330  0.15340  0.63660  Biso   1.000  N
  N7       1.0000 0.70330  0.34660  0.63660  Biso   1.000  N
  N8       1.0000 0.29670  0.84660  0.36340  Biso   1.000  N
  N9       1.0000 0.93310  0.65300  0.63760  Biso   1.000  N
  N10      1.0000 0.06690  0.15300  0.36240  Biso   1.000  N
  N11      1.0000 0.06690  0.34700  0.36240  Biso   1.000  N
  N12      1.0000 0.93310  0.84700  0.63760  Biso   1.000  N
  N13      1.0000 0.73340  0.65430  0.53630  Biso   1.000  N
  N14      1.0000 0.26660  0.15430  0.46370  Biso   1.000  N
  N15      1.0000 0.26660  0.34570  0.46370  Biso   1.000  N
  N16      1.0000 0.73340  0.84570  0.53630  Biso   1.000  N
  N17      1.0000 0.37320  0.65310  0.90090  Biso   1.000  N
  N18      1.0000 0.62680  0.15310  0.09910  Biso   1.000  N
  N19      1.0000 0.62680  0.34690  0.09910  Biso   1.000  N
  N20      1.0000 0.37320  0.84690  0.90090  Biso   1.000  N
  N21      1.0000 0.47310  0.65280  0.10010  Biso   1.000  N
  N22      1.0000 0.52690  0.15280  0.89990  Biso   1.000  N
  N23      1.0000 0.52690  0.34720  0.89990  Biso   1.000  N
  N24      1.0000 0.47310  0.84720  0.10010  Biso   1.000  N
  Mn1      1.0000 0.50086  0.61036  0.33208  Biso   1.000  Mn
  Mn2      1.0000 0.49914  0.11036  0.66792  Biso   1.000  Mn
  Mn3      1.0000 0.49914  0.38964  0.66792  Biso   1.000  Mn
  Mn4      1.0000 0.50086  0.88964  0.33208  Biso   1.000  Mn
  Mn5      1.0000 0.16863  0.61072  0.66966  Biso   1.000  Mn
  Mn6      1.0000 0.83137  0.11072  0.33034  Biso   1.000  Mn
  Mn7      1.0000 0.83137  0.38928  0.33034  Biso   1.000  Mn
  Mn8      1.0000 0.16863  0.88928  0.66966  Biso   1.000  Mn
  Cu1      1.0000 0.26799  0.60848  0.43485  Biso   1.000  Cu
  Cu2      1.0000 0.73201  0.10848  0.56515  Biso   1.000  Cu
  Cu3      1.0000 0.73201  0.39152  0.56515  Biso   1.000  Cu
  Cu4      1.0000 0.26799  0.89152  0.43485  Biso   1.000  Cu
  Cu5      1.0000 0.83349  0.60873  0.56526  Biso   1.000  Cu
  Cu6      1.0000 0.16651  0.10873  0.43474  Biso   1.000  Cu
  Cu7      1.0000 0.16651  0.39127  0.43474  Biso   1.000  Cu
  Cu8      1.0000 0.83349  0.89127  0.56526  Biso   1.000  Cu
  Cu9      1.0000 0.40124  0.60853  0.00043  Biso   1.000  Cu
  Cu10     1.0000 0.59876  0.10853  0.99957  Biso   1.000  Cu
  Cu11     1.0000 0.59876  0.39147  0.99957  Biso   1.000  Cu
  Cu12     1.0000 0.40124  0.89147  0.00043  Biso   1.000  Cu
  O1       1.0000 0.14700  0.65194  0.55800  Biso   1.000  O
  O2       1.0000 0.85300  0.15194  0.44200  Biso   1.000  O
  O3       1.0000 0.85300  0.34806  0.44200  Biso   1.000  O
  O4       1.0000 0.14700  0.84806  0.55800  Biso   1.000  O
  O5       1.0000 0.23900  0.56376  0.62520  Biso   1.000  O
  O6       1.0000 0.76100  0.06376  0.37480  Biso   1.000  O
  O7       1.0000 0.76100  0.43624  0.37480  Biso   1.000  O
  O8       1.0000 0.23900  0.93624  0.62520  Biso   1.000  O
  O9       1.0000 0.27890  0.56480  0.52850  Biso   1.000  O
  O10      1.0000 0.72110  0.06480  0.47150  Biso   1.000  O
  O11      1.0000 0.72110  0.43520  0.47150  Biso   1.000  O
  O12      1.0000 0.27890  0.93520  0.52850  Biso   1.000  O
  O13      1.0000 0.39160  0.65360  0.31470  Biso   1.000  O
  O14      1.0000 0.60840  0.15360  0.68530  Biso   1.000  O
  O15      1.0000 0.60840  0.34640  0.68530  Biso   1.000  O
  O16      1.0000 0.39160  0.84640  0.31470  Biso   1.000  O
  O17      1.0000 0.45180  0.56086  0.39450  Biso   1.000  O
  O18      1.0000 0.54820  0.06086  0.60550  Biso   1.000  O
  O19      1.0000 0.54820  0.43914  0.60550  Biso   1.000  O
  O20      1.0000 0.45180  0.93914  0.39450  Biso   1.000  O
  O21      1.0000 0.35680  0.56160  0.43770  Biso   1.000  O
  O22      1.0000 0.64320  0.06160  0.56230  Biso   1.000  O
  O23      1.0000 0.64320  0.43840  0.56230  Biso   1.000  O
  O24      1.0000 0.35680  0.93840  0.43770  Biso   1.000  O
  O25      1.0000 0.07610  0.65317  0.68740  Biso   1.000  O
  O26      1.0000 0.92390  0.15317  0.31260  Biso   1.000  O
  O27      1.0000 0.92390  0.34683  0.31260  Biso   1.000  O
  O28      1.0000 0.07610  0.84683  0.68740  Biso   1.000  O
  O29      1.0000 0.05720  0.56160  0.60600  Biso   1.000  O
  O30      1.0000 0.94280  0.06160  0.39400  Biso   1.000  O
  O31      1.0000 0.94280  0.43840  0.39400  Biso   1.000  O
  O32      1.0000 0.05720  0.93840  0.60600  Biso   1.000  O
  O33      1.0000 0.91950  0.56230  0.56220  Biso   1.000  O
  O34      1.0000 0.08050  0.06230  0.43780  Biso   1.000  O
  O35      1.0000 0.08050  0.43770  0.43780  Biso   1.000  O
  O36      1.0000 0.91950  0.93770  0.56220  Biso   1.000  O
  O37      1.0000 0.59010  0.65147  0.44270  Biso   1.000  O
  O38      1.0000 0.40990  0.15147  0.55730  Biso   1.000  O
  O39      1.0000 0.40990  0.34853  0.55730  Biso   1.000  O
  O40      1.0000 0.59010  0.84853  0.44270  Biso   1.000  O
  O41      1.0000 0.61560  0.56362  0.37590  Biso   1.000  O
  O42      1.0000 0.38440  0.06362  0.62410  Biso   1.000  O
  O43      1.0000 0.38440  0.43638  0.62410  Biso   1.000  O
  O44      1.0000 0.61560  0.93638  0.37590  Biso   1.000  O
  O45      1.0000 0.75130  0.56520  0.47100  Biso   1.000  O
  O46      1.0000 0.24870  0.06520  0.52900  Biso   1.000  O
  O47      1.0000 0.24870  0.43480  0.52900  Biso   1.000  O
  O48      1.0000 0.75130  0.93480  0.47100  Biso   1.000  O
  O49      1.0000 0.27590  0.65380  0.75820  Biso   1.000  O
  O50      1.0000 0.72410  0.15380  0.24180  Biso   1.000  O
  O51      1.0000 0.72410  0.34620  0.24180  Biso   1.000  O
  O52      1.0000 0.27590  0.84620  0.75820  Biso   1.000  O
  O53      1.0000 0.21780  0.56090  0.78120  Biso   1.000  O
  O54      1.0000 0.78220  0.06090  0.21880  Biso   1.000  O
  O55      1.0000 0.78220  0.43910  0.21880  Biso   1.000  O
  O56      1.0000 0.21780  0.93910  0.78120  Biso   1.000  O
  O57      1.0000 0.31540  0.56110  0.91600  Biso   1.000  O
  O58      1.0000 0.68460  0.06110  0.08400  Biso   1.000  O
  O59      1.0000 0.68460  0.43890  0.08400  Biso   1.000  O
  O60      1.0000 0.31540  0.93890  0.91600  Biso   1.000  O
  O61      1.0000 0.51870  0.65360  0.24230  Biso   1.000  O
  O62      1.0000 0.48130  0.15360  0.75770  Biso   1.000  O
  O63      1.0000 0.48130  0.34640  0.75770  Biso   1.000  O
  O64      1.0000 0.51870  0.84640  0.24230  Biso   1.000  O
  O65      1.0000 0.43970  0.56030  0.22100  Biso   1.000  O
  O66      1.0000 0.56030  0.06030  0.77900  Biso   1.000  O
  O67      1.0000 0.56030  0.43970  0.77900  Biso   1.000  O
  O68      1.0000 0.43970  0.93970  0.22100  Biso   1.000  O
  O69      1.0000 0.40020  0.56100  0.08530  Biso   1.000  O
  O70      1.0000 0.59980  0.06100  0.91470  Biso   1.000  O
  O71      1.0000 0.59980  0.43900  0.91470  Biso   1.000  O
  O72      1.0000 0.40020  0.93900  0.08530  Biso   1.000  O
  O73      1.0000 0.16570  0.55630  0.33390  Biso   1.000  O
  O74      1.0000 0.83430  0.05630  0.66610  Biso   1.000  O
  O75      1.0000 0.83430  0.44370  0.66610  Biso   1.000  O
  O76      1.0000 0.16570  0.94370  0.33390  Biso   1.000  O
  O77      1.0000 0.83050  0.55590  0.66570  Biso   1.000  O
  O78      1.0000 0.16950  0.05590  0.33430  Biso   1.000  O
  O79      1.0000 0.16950  0.44410  0.33430  Biso   1.000  O
  O80      1.0000 0.83050  0.94410  0.66570  Biso   1.000  O
  O81      1.0000 0.50730  0.55530  0.00020  Biso   1.000  O
  O82      1.0000 0.49270  0.05530  0.99980  Biso   1.000  O
  O83      1.0000 0.49270  0.44470  0.99980  Biso   1.000  O
  O84      1.0000 0.50730  0.94470  0.00020  Biso   1.000  O
  O85      1.0000 0.27060  0.66160  0.00140  Biso   1.000  O
  O86      1.0000 0.72940  0.16160  0.99860  Biso   1.000  O
  O87      1.0000 0.72940  0.33840  0.99860  Biso   1.000  O
  O88      1.0000 0.27060  0.83840  0.00140  Biso   1.000  O
  C121     1.0000 0.84220  0.55350  0.36040  Biso   1.000  C
  C122     1.0000 0.15780  0.05350  0.63960  Biso   1.000  C
  C123     1.0000 0.15780  0.44650  0.63960  Biso   1.000  C
  C124     1.0000 0.84220  0.94650  0.36040  Biso   1.000  C
  H49      1.0000 0.78560  0.54100  0.32870  Biso   1.000  H
  H50      1.0000 0.21440  0.04100  0.67130  Biso   1.000  H
  H51      1.0000 0.21440  0.45900  0.67130  Biso   1.000  H
  H52      1.0000 0.78560  0.95900  0.32870  Biso   1.000  H
  H53      1.0000 0.86830  0.53810  0.41540  Biso   1.000  H
  H54      1.0000 0.13170  0.03810  0.58460  Biso   1.000  H
  H55      1.0000 0.13170  0.46190  0.58460  Biso   1.000  H
  H56      1.0000 0.86830  0.96190  0.41540  Biso   1.000  H
  H57      1.0000 0.87290  0.54340  0.33280  Biso   1.000  H
  H58      1.0000 0.12710  0.04340  0.66720  Biso   1.000  H
  H59      1.0000 0.12710  0.45660  0.66720  Biso   1.000  H
  H60      1.0000 0.87290  0.95660  0.33280  Biso   1.000  H
  C125     1.0000 0.91440  0.63750  0.40910  Biso   1.000  C
  C126     1.0000 0.08560  0.13750  0.59090  Biso   1.000  C
  C127     1.0000 0.08560  0.36250  0.59090  Biso   1.000  C
  C128     1.0000 0.91440  0.86250  0.40910  Biso   1.000  C
  H61      1.0000 0.96480  0.61910  0.43470  Biso   1.000  H
  H62      1.0000 0.03520  0.11910  0.56530  Biso   1.000  H
  H63      1.0000 0.03520  0.38090  0.56530  Biso   1.000  H
  H64      1.0000 0.96480  0.88090  0.43470  Biso   1.000  H
  C129     1.0000 0.91460  0.69200  0.41450  Biso   1.000  C
  C130     1.0000 0.08540  0.19200  0.58550  Biso   1.000  C
  C131     1.0000 0.08540  0.30800  0.58550  Biso   1.000  C
  C132     1.0000 0.91460  0.80800  0.41450  Biso   1.000  C
  H65      1.0000 0.96530  0.70980  0.44450  Biso   1.000  H
  H66      1.0000 0.03470  0.20980  0.55550  Biso   1.000  H
  H67      1.0000 0.03470  0.29020  0.55550  Biso   1.000  H
  H68      1.0000 0.96530  0.79020  0.44450  Biso   1.000  H
  C133     1.0000 0.84060  0.72070  0.37610  Biso   1.000  C
  C134     1.0000 0.15940  0.22070  0.62390  Biso   1.000  C
  C135     1.0000 0.15940  0.27930  0.62390  Biso   1.000  C
  C136     1.0000 0.84060  0.77930  0.37610  Biso   1.000  C
  C137     1.0000 0.76740  0.69140  0.33560  Biso   1.000  C
  C138     1.0000 0.23260  0.19140  0.66440  Biso   1.000  C
  C139     1.0000 0.23260  0.30860  0.66440  Biso   1.000  C
  C140     1.0000 0.76740  0.80860  0.33560  Biso   1.000  C
  H69      1.0000 0.71600  0.70880  0.31130  Biso   1.000  H
  H70      1.0000 0.28400  0.20880  0.68870  Biso   1.000  H
  H71      1.0000 0.28400  0.29120  0.68870  Biso   1.000  H
  H72      1.0000 0.71600  0.79120  0.31130  Biso   1.000  H
  C141     1.0000 0.76880  0.63770  0.33030  Biso   1.000  C
  C142     1.0000 0.23120  0.13770  0.66970  Biso   1.000  C
  C143     1.0000 0.23120  0.36230  0.66970  Biso   1.000  C
  C144     1.0000 0.76880  0.86230  0.33030  Biso   1.000  C
  H73      1.0000 0.71880  0.61910  0.30100  Biso   1.000  H
  H74      1.0000 0.28120  0.11910  0.69900  Biso   1.000  H
  H75      1.0000 0.28120  0.38090  0.69900  Biso   1.000  H
  H76      1.0000 0.71880  0.88090  0.30100  Biso   1.000  H
  N25      1.0000 0.84220  0.61110  0.36730  Biso   1.000  N
  N26      1.0000 0.15780  0.11110  0.63270  Biso   1.000  N
  N27      1.0000 0.15780  0.38890  0.63270  Biso   1.000  N
  N28      1.0000 0.84220  0.88890  0.36730  Biso   1.000  N
  C145     1.0000 0.47940  0.55270  0.63690  Biso   1.000  C
  C146     1.0000 0.52060  0.05270  0.36310  Biso   1.000  C
  C147     1.0000 0.52060  0.44730  0.36310  Biso   1.000  C
  C148     1.0000 0.47940  0.94730  0.63690  Biso   1.000  C
  H77      1.0000 0.45350  0.54020  0.66800  Biso   1.000  H
  H78      1.0000 0.54650  0.04020  0.33200  Biso   1.000  H
  H79      1.0000 0.54650  0.45980  0.33200  Biso   1.000  H
  H80      1.0000 0.45350  0.95980  0.66800  Biso   1.000  H
  H81      1.0000 0.53730  0.54230  0.66490  Biso   1.000  H
  H82      1.0000 0.46270  0.04230  0.33510  Biso   1.000  H
  H83      1.0000 0.46270  0.45770  0.33510  Biso   1.000  H
  H84      1.0000 0.53730  0.95770  0.66490  Biso   1.000  H
  H85      1.0000 0.45120  0.53780  0.58170  Biso   1.000  H
  H86      1.0000 0.54880  0.03780  0.41830  Biso   1.000  H
  H87      1.0000 0.54880  0.46220  0.41830  Biso   1.000  H
  H88      1.0000 0.45120  0.96220  0.58170  Biso   1.000  H
  C149     1.0000 0.50530  0.63770  0.59060  Biso   1.000  C
  C150     1.0000 0.49470  0.13770  0.40940  Biso   1.000  C
  C151     1.0000 0.49470  0.36230  0.40940  Biso   1.000  C
  C152     1.0000 0.50530  0.86230  0.59060  Biso   1.000  C
  H89      1.0000 0.53070  0.61920  0.56550  Biso   1.000  H
  H90      1.0000 0.46930  0.11920  0.43450  Biso   1.000  H
  H91      1.0000 0.46930  0.38080  0.43450  Biso   1.000  H
  H92      1.0000 0.53070  0.88080  0.56550  Biso   1.000  H
  C153     1.0000 0.50130  0.69160  0.58520  Biso   1.000  C
  C154     1.0000 0.49870  0.19160  0.41480  Biso   1.000  C
  C155     1.0000 0.49870  0.30840  0.41480  Biso   1.000  C
  C156     1.0000 0.50130  0.80840  0.58520  Biso   1.000  C
  H93      1.0000 0.52380  0.70910  0.55640  Biso   1.000  H
  H94      1.0000 0.47620  0.20910  0.44360  Biso   1.000  H
  H95      1.0000 0.47620  0.29090  0.44360  Biso   1.000  H
  H96      1.0000 0.52380  0.79090  0.55640  Biso   1.000  H
  C157     1.0000 0.46370  0.72090  0.62220  Biso   1.000  C
  C158     1.0000 0.53630  0.22090  0.37780  Biso   1.000  C
  C159     1.0000 0.53630  0.27910  0.37780  Biso   1.000  C
  C160     1.0000 0.46370  0.77910  0.62220  Biso   1.000  C
  C161     1.0000 0.43010  0.69120  0.66310  Biso   1.000  C
  C162     1.0000 0.56990  0.19120  0.33690  Biso   1.000  C
  C163     1.0000 0.56990  0.30880  0.33690  Biso   1.000  C
  C164     1.0000 0.43010  0.80880  0.66310  Biso   1.000  C
  H97      1.0000 0.40290  0.70840  0.68760  Biso   1.000  H
  H98      1.0000 0.59710  0.20840  0.31240  Biso   1.000  H
  H99      1.0000 0.59710  0.29160  0.31240  Biso   1.000  H
  H100     1.0000 0.40290  0.79160  0.68760  Biso   1.000  H
  C165     1.0000 0.43670  0.63760  0.66740  Biso   1.000  C
  C166     1.0000 0.56330  0.13760  0.33260  Biso   1.000  C
  C167     1.0000 0.56330  0.36240  0.33260  Biso   1.000  C
  C168     1.0000 0.43670  0.86240  0.66740  Biso   1.000  C
  H101     1.0000 0.41530  0.61890  0.69610  Biso   1.000  H
  H102     1.0000 0.58470  0.11890  0.30390  Biso   1.000  H
  H103     1.0000 0.58470  0.38110  0.30390  Biso   1.000  H
  H104     1.0000 0.41530  0.88110  0.69610  Biso   1.000  H
  N29      1.0000 0.47360  0.61110  0.63110  Biso   1.000  N
  N30      1.0000 0.52640  0.11110  0.36890  Biso   1.000  N
  N31      1.0000 0.52640  0.38890  0.36890  Biso   1.000  N
  N32      1.0000 0.47360  0.88890  0.63110  Biso   1.000  N
  O89      1.0000 0.51710  0.75000  0.43890  Biso   1.000  O
  O90      1.0000 0.48290  0.25000  0.56110  Biso   1.000  O
  O91      1.0000 0.60190  0.75000  0.31310  Biso   1.000  O
  O92      1.0000 0.39810  0.25000  0.68690  Biso   1.000  O
  O93      1.0000 0.37750  0.75000  0.23160  Biso   1.000  O
  O94      1.0000 0.62250  0.25000  0.76840  Biso   1.000  O
  O95      1.0000 0.28900  0.69100  0.14520  Biso   1.000  O
  O96      1.0000 0.71100  0.19100  0.85480  Biso   1.000  O
  O97      1.0000 0.71100  0.30900  0.85480  Biso   1.000  O
  O98      1.0000 0.28900  0.80900  0.14520  Biso   1.000  O
  O99      1.0000 0.25500  0.75000  0.07800  Biso   1.000  O
  O100     1.0000 0.74500  0.25000  0.92200  Biso   1.000  O
  O101     1.0000 0.30630  0.49940  0.20650  Biso   1.000  O
  O102     1.0000 0.69370  0.99940  0.79350  Biso   1.000  O
  O103     1.0000 0.69370  0.50060  0.79350  Biso   1.000  O
  O104     1.0000 0.30630  0.00060  0.20650  Biso   1.000  O
  O105     1.0000 0.63260  0.49970  0.26480  Biso   1.000  O
  O106     1.0000 0.36740  0.99970  0.73520  Biso   1.000  O
  O107     1.0000 0.36740  0.50030  0.73520  Biso   1.000  O
  O108     1.0000 0.63260  0.00030  0.26480  Biso   1.000  O
  O109     1.0000 0.38800  0.37910  0.19100  Biso   1.000  O
  O110     1.0000 0.61200  0.87910  0.80900  Biso   1.000  O
  O111     1.0000 0.61200  0.62090  0.80900  Biso   1.000  O
  O112     1.0000 0.38800  0.12090  0.19100  Biso   1.000  O
  O113     1.0000 0.16770  0.56340  0.18210  Biso   1.000  O
  O114     1.0000 0.83230  0.06340  0.81790  Biso   1.000  O
  O115     1.0000 0.83230  0.43660  0.81790  Biso   1.000  O
  O116     1.0000 0.16770  0.93660  0.18210  Biso   1.000  O
  O117     1.0000 0.14500  0.75000  0.76940  Biso   1.000  O
  O118     1.0000 0.85500  0.25000  0.23060  Biso   1.000  O
  O119     1.0000 0.14010  0.69220  0.85640  Biso   1.000  O
  O120     1.0000 0.85990  0.19220  0.14360  Biso   1.000  O
  O121     1.0000 0.85990  0.30780  0.14360  Biso   1.000  O
  O122     1.0000 0.14010  0.80780  0.85640  Biso   1.000  O
  O123     1.0000 0.17400  0.75000  0.92300  Biso   1.000  O
  O124     1.0000 0.82600  0.25000  0.07700  Biso   1.000  O
  O125     1.0000 0.07490  0.75000  0.55920  Biso   1.000  O
  O126     1.0000 0.92510  0.25000  0.44080  Biso   1.000  O
  O127     1.0000 0.81300  0.69200  0.11400  Biso   1.000  O
  O128     1.0000 0.18700  0.19200  0.88600  Biso   1.000  O
  O129     1.0000 0.18700  0.30800  0.88600  Biso   1.000  O
  O130     1.0000 0.81300  0.80800  0.11400  Biso   1.000  O
  O131     1.0000 0.84700  0.63900  0.20000  Biso   1.000  O
  O132     1.0000 0.15300  0.13900  0.80000  Biso   1.000  O
  O133     1.0000 0.15300  0.36100  0.80000  Biso   1.000  O
  O134     1.0000 0.84700  0.86100  0.20000  Biso   1.000  O
  O135     1.0000 0.64940  0.56270  0.15250  Biso   1.000  O
  O136     1.0000 0.35060  0.06270  0.84750  Biso   1.000  O
  O137     1.0000 0.35060  0.43730  0.84750  Biso   1.000  O
  O138     1.0000 0.64940  0.93730  0.15250  Biso   1.000  O
  O139     1.0000 0.97600  0.69920  0.99800  Biso   1.000  O
  O140     1.0000 0.02400  0.19920  0.00200  Biso   1.000  O
  O141     1.0000 0.02400  0.30080  0.00200  Biso   1.000  O
  O142     1.0000 0.97600  0.80080  0.99800  Biso   1.000  O
  O143     1.0000 0.24800  0.49500  0.99810  Biso   1.000  O
  O144     1.0000 0.75200  0.99500  0.00190  Biso   1.000  O
  O145     1.0000 0.75200  0.50500  0.00190  Biso   1.000  O
  O146     1.0000 0.24800  0.00500  0.99810  Biso   1.000  O
  O147     1.0000 0.95950  0.50020  0.92450  Biso   1.000  O
  O148     1.0000 0.04050  0.00020  0.07550  Biso   1.000  O
  O149     1.0000 0.04050  0.49980  0.07550  Biso   1.000  O
  O150     1.0000 0.95950  0.99980  0.92450  Biso   1.000  O
  O151     1.0000 0.98210  0.56380  0.81780  Biso   1.000  O
  O152     1.0000 0.01790  0.06380  0.18220  Biso   1.000  O
  O153     1.0000 0.01790  0.43620  0.18220  Biso   1.000  O
  O154     1.0000 0.98210  0.93620  0.81780  Biso   1.000  O
  O155     1.0000 0.09840  0.50220  0.79900  Biso   1.000  O
  O156     1.0000 0.90160  0.00220  0.20100  Biso   1.000  O
  O157     1.0000 0.90160  0.49780  0.20100  Biso   1.000  O
  O158     1.0000 0.09840  0.99780  0.79900  Biso   1.000  O
  O159     1.0000 0.28840  0.75000  0.68740  Biso   1.000  O
  O160     1.0000 0.71160  0.25000  0.31260  Biso   1.000  O
  O161     1.0000 0.50250  0.43640  0.15360  Biso   1.000  O
  O162     1.0000 0.49750  0.93640  0.84640  Biso   1.000  O
  O163     1.0000 0.49750  0.56360  0.84640  Biso   1.000  O
  O164     1.0000 0.50250  0.06360  0.15360  Biso   1.000  O
  O165     1.0000 0.39220  0.45640  0.45680  Biso   1.000  O
  O166     1.0000 0.60780  0.95640  0.54320  Biso   1.000  O
  O167     1.0000 0.60780  0.54360  0.54320  Biso   1.000  O
  O168     1.0000 0.39220  0.04360  0.45680  Biso   1.000  O
  O169     1.0000 0.29620  0.42860  0.29370  Biso   1.000  O
  O170     1.0000 0.70380  0.92860  0.70630  Biso   1.000  O
  O171     1.0000 0.70380  0.57140  0.70630  Biso   1.000  O
  O172     1.0000 0.29620  0.07140  0.29370  Biso   1.000  O
  O173     1.0000 0.34400  0.44890  0.39670  Biso   1.000  O
  O174     1.0000 0.65600  0.94890  0.60330  Biso   1.000  O
  O175     1.0000 0.65600  0.55110  0.60330  Biso   1.000  O
  O176     1.0000 0.34400  0.05110  0.39670  Biso   1.000  O
  O177     1.0000 0.99270  0.57180  0.28930  Biso   1.000  O
  O178     1.0000 0.00730  0.07180  0.71070  Biso   1.000  O
  O179     1.0000 0.00730  0.42820  0.71070  Biso   1.000  O
  O180     1.0000 0.99270  0.92820  0.28930  Biso   1.000  O
  O181     1.0000 0.93980  0.45310  0.56390  Biso   1.000  O
  O182     1.0000 0.06020  0.95310  0.43610  Biso   1.000  O
  O183     1.0000 0.06020  0.54690  0.43610  Biso   1.000  O
  O184     1.0000 0.93980  0.04690  0.56390  Biso   1.000  O
