data_image0
_cell_length_a       17.909
_cell_length_b       9.671
_cell_length_c       19.197
_cell_angle_alpha    90
_cell_angle_beta     98.27
_cell_angle_gamma    90

_symmetry_space_group_name_H-M    "P 1"
_symmetry_int_tables_number       1

loop_
  _symmetry_equiv_pos_as_xyz
  'x, y, z'

loop_
  _atom_site_label
  _atom_site_occupancy
  _atom_site_fract_x
  _atom_site_fract_y
  _atom_site_fract_z
  _atom_site_thermal_displace_type
  _atom_site_B_iso_or_equiv
  _atom_site_type_symbol
  C1       1.0000 0.37040  0.77160  0.28770  Biso   1.000  C
  C2       1.0000 0.87040  0.27160  0.28770  Biso   1.000  C
  C3       1.0000 0.62960  0.77160  0.21230  Biso   1.000  C
  C4       1.0000 0.12960  0.27160  0.21230  Biso   1.000  C
  C5       1.0000 0.62960  0.22840  0.71230  Biso   1.000  C
  C6       1.0000 0.12960  0.72840  0.71230  Biso   1.000  C
  C7       1.0000 0.37040  0.22840  0.78770  Biso   1.000  C
  C8       1.0000 0.87040  0.72840  0.78770  Biso   1.000  C
  C9       1.0000 0.29480  0.77070  0.31170  Biso   1.000  C
  C10      1.0000 0.79480  0.27070  0.31170  Biso   1.000  C
  C11      1.0000 0.70520  0.77070  0.18830  Biso   1.000  C
  C12      1.0000 0.20520  0.27070  0.18830  Biso   1.000  C
  C13      1.0000 0.70520  0.22930  0.68830  Biso   1.000  C
  C14      1.0000 0.20520  0.72930  0.68830  Biso   1.000  C
  C15      1.0000 0.29480  0.22930  0.81170  Biso   1.000  C
  C16      1.0000 0.79480  0.72930  0.81170  Biso   1.000  C
  C17      1.0000 0.25180  0.89000  0.31010  Biso   1.000  C
  C18      1.0000 0.75180  0.39000  0.31010  Biso   1.000  C
  C19      1.0000 0.74820  0.89000  0.18990  Biso   1.000  C
  C20      1.0000 0.24820  0.39000  0.18990  Biso   1.000  C
  C21      1.0000 0.74820  0.11000  0.68990  Biso   1.000  C
  C22      1.0000 0.24820  0.61000  0.68990  Biso   1.000  C
  C23      1.0000 0.25180  0.11000  0.81010  Biso   1.000  C
  C24      1.0000 0.75180  0.61000  0.81010  Biso   1.000  C
  H1       1.0000 0.26930  0.97190  0.29050  Biso   1.000  H
  H2       1.0000 0.76930  0.47190  0.29050  Biso   1.000  H
  H3       1.0000 0.73070  0.97190  0.20950  Biso   1.000  H
  H4       1.0000 0.23070  0.47190  0.20950  Biso   1.000  H
  H5       1.0000 0.73070  0.02810  0.70950  Biso   1.000  H
  H6       1.0000 0.23070  0.52810  0.70950  Biso   1.000  H
  H7       1.0000 0.26930  0.02810  0.79050  Biso   1.000  H
  H8       1.0000 0.76930  0.52810  0.79050  Biso   1.000  H
  C25      1.0000 0.18460  0.89220  0.33600  Biso   1.000  C
  C26      1.0000 0.68460  0.39220  0.33600  Biso   1.000  C
  C27      1.0000 0.81540  0.89220  0.16400  Biso   1.000  C
  C28      1.0000 0.31540  0.39220  0.16400  Biso   1.000  C
  C29      1.0000 0.81540  0.10780  0.66400  Biso   1.000  C
  C30      1.0000 0.31540  0.60780  0.66400  Biso   1.000  C
  C31      1.0000 0.18460  0.10780  0.83600  Biso   1.000  C
  C32      1.0000 0.68460  0.60780  0.83600  Biso   1.000  C
  H9       1.0000 0.15640  0.97550  0.33510  Biso   1.000  H
  H10      1.0000 0.65640  0.47550  0.33510  Biso   1.000  H
  H11      1.0000 0.84360  0.97550  0.16490  Biso   1.000  H
  H12      1.0000 0.34360  0.47550  0.16490  Biso   1.000  H
  H13      1.0000 0.84360  0.02450  0.66490  Biso   1.000  H
  H14      1.0000 0.34360  0.52450  0.66490  Biso   1.000  H
  H15      1.0000 0.15640  0.02450  0.83510  Biso   1.000  H
  H16      1.0000 0.65640  0.52450  0.83510  Biso   1.000  H
  C33      1.0000 0.15790  0.77410  0.36340  Biso   1.000  C
  C34      1.0000 0.65790  0.27410  0.36340  Biso   1.000  C
  C35      1.0000 0.84210  0.77410  0.13660  Biso   1.000  C
  C36      1.0000 0.34210  0.27410  0.13660  Biso   1.000  C
  C37      1.0000 0.84210  0.22590  0.63660  Biso   1.000  C
  C38      1.0000 0.34210  0.72590  0.63660  Biso   1.000  C
  C39      1.0000 0.15790  0.22590  0.86340  Biso   1.000  C
  C40      1.0000 0.65790  0.72590  0.86340  Biso   1.000  C
  H17      1.0000 0.11330  0.77710  0.38490  Biso   1.000  H
  H18      1.0000 0.61330  0.27710  0.38490  Biso   1.000  H
  H19      1.0000 0.88670  0.77710  0.11510  Biso   1.000  H
  H20      1.0000 0.38670  0.27710  0.11510  Biso   1.000  H
  H21      1.0000 0.88670  0.22290  0.61510  Biso   1.000  H
  H22      1.0000 0.38670  0.72290  0.61510  Biso   1.000  H
  H23      1.0000 0.11330  0.22290  0.88490  Biso   1.000  H
  H24      1.0000 0.61330  0.72290  0.88490  Biso   1.000  H
  C41      1.0000 0.19690  0.64790  0.35940  Biso   1.000  C
  C42      1.0000 0.69690  0.14790  0.35940  Biso   1.000  C
  C43      1.0000 0.80310  0.64790  0.14060  Biso   1.000  C
  C44      1.0000 0.30310  0.14790  0.14060  Biso   1.000  C
  C45      1.0000 0.80310  0.35210  0.64060  Biso   1.000  C
  C46      1.0000 0.30310  0.85210  0.64060  Biso   1.000  C
  C47      1.0000 0.19690  0.35210  0.85940  Biso   1.000  C
  C48      1.0000 0.69690  0.85210  0.85940  Biso   1.000  C
  H25      1.0000 0.17590  0.56370  0.37320  Biso   1.000  H
  H26      1.0000 0.67590  0.06370  0.37320  Biso   1.000  H
  H27      1.0000 0.82410  0.56370  0.12680  Biso   1.000  H
  H28      1.0000 0.32410  0.06370  0.12680  Biso   1.000  H
  H29      1.0000 0.82410  0.43630  0.62680  Biso   1.000  H
  H30      1.0000 0.32410  0.93630  0.62680  Biso   1.000  H
  H31      1.0000 0.17590  0.43630  0.87320  Biso   1.000  H
  H32      1.0000 0.67590  0.93630  0.87320  Biso   1.000  H
  C49      1.0000 0.26570  0.64840  0.33540  Biso   1.000  C
  C50      1.0000 0.76570  0.14840  0.33540  Biso   1.000  C
  C51      1.0000 0.73430  0.64840  0.16460  Biso   1.000  C
  C52      1.0000 0.23430  0.14840  0.16460  Biso   1.000  C
  C53      1.0000 0.73430  0.35160  0.66460  Biso   1.000  C
  C54      1.0000 0.23430  0.85160  0.66460  Biso   1.000  C
  C55      1.0000 0.26570  0.35160  0.83540  Biso   1.000  C
  C56      1.0000 0.76570  0.85160  0.83540  Biso   1.000  C
  H33      1.0000 0.29350  0.56490  0.33490  Biso   1.000  H
  H34      1.0000 0.79350  0.06490  0.33490  Biso   1.000  H
  H35      1.0000 0.70650  0.56490  0.16510  Biso   1.000  H
  H36      1.0000 0.20650  0.06490  0.16510  Biso   1.000  H
  H37      1.0000 0.70650  0.43510  0.66510  Biso   1.000  H
  H38      1.0000 0.20650  0.93510  0.66510  Biso   1.000  H
  H39      1.0000 0.29350  0.43510  0.83490  Biso   1.000  H
  H40      1.0000 0.79350  0.93510  0.83490  Biso   1.000  H
  C57      1.0000 0.43770  0.78530  0.12230  Biso   1.000  C
  C58      1.0000 0.93770  0.28530  0.12230  Biso   1.000  C
  C59      1.0000 0.56230  0.78530  0.37770  Biso   1.000  C
  C60      1.0000 0.06230  0.28530  0.37770  Biso   1.000  C
  C61      1.0000 0.56230  0.21470  0.87770  Biso   1.000  C
  C62      1.0000 0.06230  0.71470  0.87770  Biso   1.000  C
  C63      1.0000 0.43770  0.21470  0.62230  Biso   1.000  C
  C64      1.0000 0.93770  0.71470  0.62230  Biso   1.000  C
  C65      1.0000 0.39730  0.78980  0.04920  Biso   1.000  C
  C66      1.0000 0.89730  0.28980  0.04920  Biso   1.000  C
  C67      1.0000 0.60270  0.78980  0.45080  Biso   1.000  C
  C68      1.0000 0.10270  0.28980  0.45080  Biso   1.000  C
  C69      1.0000 0.60270  0.21020  0.95080  Biso   1.000  C
  C70      1.0000 0.10270  0.71020  0.95080  Biso   1.000  C
  C71      1.0000 0.39730  0.21020  0.54920  Biso   1.000  C
  C72      1.0000 0.89730  0.71020  0.54920  Biso   1.000  C
  C73      1.0000 0.39840  0.90810  0.00900  Biso   1.000  C
  C74      1.0000 0.89840  0.40810  0.00900  Biso   1.000  C
  C75      1.0000 0.60160  0.90810  0.49100  Biso   1.000  C
  C76      1.0000 0.10160  0.40810  0.49100  Biso   1.000  C
  C77      1.0000 0.60160  0.09190  0.99100  Biso   1.000  C
  C78      1.0000 0.10160  0.59190  0.99100  Biso   1.000  C
  C79      1.0000 0.39840  0.09190  0.50900  Biso   1.000  C
  C80      1.0000 0.89840  0.59190  0.50900  Biso   1.000  C
  H41      1.0000 0.42580  0.98680  0.02810  Biso   1.000  H
  H42      1.0000 0.92580  0.48680  0.02810  Biso   1.000  H
  H43      1.0000 0.57420  0.98680  0.47190  Biso   1.000  H
  H44      1.0000 0.07420  0.48680  0.47190  Biso   1.000  H
  H45      1.0000 0.57420  0.01320  0.97190  Biso   1.000  H
  H46      1.0000 0.07420  0.51320  0.97190  Biso   1.000  H
  H47      1.0000 0.42580  0.01320  0.52810  Biso   1.000  H
  H48      1.0000 0.92580  0.51320  0.52810  Biso   1.000  H
  C81      1.0000 0.36000  0.91270  0.94100  Biso   1.000  C
  C82      1.0000 0.86000  0.41270  0.94100  Biso   1.000  C
  C83      1.0000 0.64000  0.91270  0.55900  Biso   1.000  C
  C84      1.0000 0.14000  0.41270  0.55900  Biso   1.000  C
  C85      1.0000 0.64000  0.08730  0.05900  Biso   1.000  C
  C86      1.0000 0.14000  0.58730  0.05900  Biso   1.000  C
  C87      1.0000 0.36000  0.08730  0.44100  Biso   1.000  C
  C88      1.0000 0.86000  0.58730  0.44100  Biso   1.000  C
  H49      1.0000 0.36180  0.99450  0.91390  Biso   1.000  H
  H50      1.0000 0.86180  0.49450  0.91390  Biso   1.000  H
  H51      1.0000 0.63820  0.99450  0.58610  Biso   1.000  H
  H52      1.0000 0.13820  0.49450  0.58610  Biso   1.000  H
  H53      1.0000 0.63820  0.00550  0.08610  Biso   1.000  H
  H54      1.0000 0.13820  0.50550  0.08610  Biso   1.000  H
  H55      1.0000 0.36180  0.00550  0.41390  Biso   1.000  H
  H56      1.0000 0.86180  0.50550  0.41390  Biso   1.000  H
  C89      1.0000 0.31950  0.80110  0.91230  Biso   1.000  C
  C90      1.0000 0.81950  0.30110  0.91230  Biso   1.000  C
  C91      1.0000 0.68050  0.80110  0.58770  Biso   1.000  C
  C92      1.0000 0.18050  0.30110  0.58770  Biso   1.000  C
  C93      1.0000 0.68050  0.19890  0.08770  Biso   1.000  C
  C94      1.0000 0.18050  0.69890  0.08770  Biso   1.000  C
  C95      1.0000 0.31950  0.19890  0.41230  Biso   1.000  C
  C96      1.0000 0.81950  0.69890  0.41230  Biso   1.000  C
  H57      1.0000 0.29370  0.80480  0.86550  Biso   1.000  H
  H58      1.0000 0.79370  0.30480  0.86550  Biso   1.000  H
  H59      1.0000 0.70630  0.80480  0.63450  Biso   1.000  H
  H60      1.0000 0.20630  0.30480  0.63450  Biso   1.000  H
  H61      1.0000 0.70630  0.19520  0.13450  Biso   1.000  H
  H62      1.0000 0.20630  0.69520  0.13450  Biso   1.000  H
  H63      1.0000 0.29370  0.19520  0.36550  Biso   1.000  H
  H64      1.0000 0.79370  0.69520  0.36550  Biso   1.000  H
  C97      1.0000 0.31680  0.68370  0.95230  Biso   1.000  C
  C98      1.0000 0.81680  0.18370  0.95230  Biso   1.000  C
  C99      1.0000 0.68320  0.68370  0.54770  Biso   1.000  C
  C100     1.0000 0.18320  0.18370  0.54770  Biso   1.000  C
  C101     1.0000 0.68320  0.31630  0.04770  Biso   1.000  C
  C102     1.0000 0.18320  0.81630  0.04770  Biso   1.000  C
  C103     1.0000 0.31680  0.31630  0.45230  Biso   1.000  C
  C104     1.0000 0.81680  0.81630  0.45230  Biso   1.000  C
  H65      1.0000 0.28890  0.60560  0.93310  Biso   1.000  H
  H66      1.0000 0.78890  0.10560  0.93310  Biso   1.000  H
  H67      1.0000 0.71110  0.60560  0.56690  Biso   1.000  H
  H68      1.0000 0.21110  0.10560  0.56690  Biso   1.000  H
  H69      1.0000 0.71110  0.39440  0.06690  Biso   1.000  H
  H70      1.0000 0.21110  0.89440  0.06690  Biso   1.000  H
  H71      1.0000 0.28890  0.39440  0.43310  Biso   1.000  H
  H72      1.0000 0.78890  0.89440  0.43310  Biso   1.000  H
  C105     1.0000 0.35470  0.67910  0.02030  Biso   1.000  C
  C106     1.0000 0.85470  0.17910  0.02030  Biso   1.000  C
  C107     1.0000 0.64530  0.67910  0.47970  Biso   1.000  C
  C108     1.0000 0.14530  0.17910  0.47970  Biso   1.000  C
  C109     1.0000 0.64530  0.32090  0.97970  Biso   1.000  C
  C110     1.0000 0.14530  0.82090  0.97970  Biso   1.000  C
  C111     1.0000 0.35470  0.32090  0.52030  Biso   1.000  C
  C112     1.0000 0.85470  0.82090  0.52030  Biso   1.000  C
  H73      1.0000 0.35140  0.59820  0.04780  Biso   1.000  H
  H74      1.0000 0.85140  0.09820  0.04780  Biso   1.000  H
  H75      1.0000 0.64860  0.59820  0.45220  Biso   1.000  H
  H76      1.0000 0.14860  0.09820  0.45220  Biso   1.000  H
  H77      1.0000 0.64860  0.40180  0.95220  Biso   1.000  H
  H78      1.0000 0.14860  0.90180  0.95220  Biso   1.000  H
  H79      1.0000 0.35140  0.40180  0.54780  Biso   1.000  H
  H80      1.0000 0.85140  0.90180  0.54780  Biso   1.000  H
  C113     1.0000 0.46410  0.20480  0.29440  Biso   1.000  C
  C114     1.0000 0.96410  0.70480  0.29440  Biso   1.000  C
  C115     1.0000 0.53590  0.20480  0.20560  Biso   1.000  C
  C116     1.0000 0.03590  0.70480  0.20560  Biso   1.000  C
  C117     1.0000 0.53590  0.79520  0.70560  Biso   1.000  C
  C118     1.0000 0.03590  0.29520  0.70560  Biso   1.000  C
  C119     1.0000 0.46410  0.79520  0.79440  Biso   1.000  C
  C120     1.0000 0.96410  0.29520  0.79440  Biso   1.000  C
  H81      1.0000 0.43820  0.15650  0.32670  Biso   1.000  H
  H82      1.0000 0.93820  0.65650  0.32670  Biso   1.000  H
  H83      1.0000 0.56180  0.15650  0.17330  Biso   1.000  H
  H84      1.0000 0.06180  0.65650  0.17330  Biso   1.000  H
  H85      1.0000 0.56180  0.84350  0.67330  Biso   1.000  H
  H86      1.0000 0.06180  0.34350  0.67330  Biso   1.000  H
  H87      1.0000 0.43820  0.84350  0.82670  Biso   1.000  H
  H88      1.0000 0.93820  0.34350  0.82670  Biso   1.000  H
  C121     1.0000 0.46380  0.34820  0.29420  Biso   1.000  C
  C122     1.0000 0.96380  0.84820  0.29420  Biso   1.000  C
  C123     1.0000 0.53620  0.34820  0.20580  Biso   1.000  C
  C124     1.0000 0.03620  0.84820  0.20580  Biso   1.000  C
  C125     1.0000 0.53620  0.65180  0.70580  Biso   1.000  C
  C126     1.0000 0.03620  0.15180  0.70580  Biso   1.000  C
  C127     1.0000 0.46380  0.65180  0.79420  Biso   1.000  C
  C128     1.0000 0.96380  0.15180  0.79420  Biso   1.000  C
  H89      1.0000 0.43720  0.39610  0.32630  Biso   1.000  H
  H90      1.0000 0.93720  0.89610  0.32630  Biso   1.000  H
  H91      1.0000 0.56280  0.39610  0.17370  Biso   1.000  H
  H92      1.0000 0.06280  0.89610  0.17370  Biso   1.000  H
  H93      1.0000 0.56280  0.60390  0.67370  Biso   1.000  H
  H94      1.0000 0.06280  0.10390  0.67370  Biso   1.000  H
  H95      1.0000 0.43720  0.60390  0.82630  Biso   1.000  H
  H96      1.0000 0.93720  0.10390  0.82630  Biso   1.000  H
  C129     1.0000 0.50470  0.48000  0.49190  Biso   1.000  C
  C130     1.0000 0.00470  0.98000  0.49190  Biso   1.000  C
  C131     1.0000 0.49530  0.48000  0.00810  Biso   1.000  C
  C132     1.0000 0.99530  0.98000  0.00810  Biso   1.000  C
  C133     1.0000 0.49530  0.52000  0.50810  Biso   1.000  C
  C134     1.0000 0.99530  0.02000  0.50810  Biso   1.000  C
  C135     1.0000 0.50470  0.52000  0.99190  Biso   1.000  C
  C136     1.0000 0.00470  0.02000  0.99190  Biso   1.000  C
  H97      1.0000 0.46490  0.41470  0.47500  Biso   1.000  H
  H98      1.0000 0.96490  0.91470  0.47500  Biso   1.000  H
  H99      1.0000 0.53510  0.41470  0.02500  Biso   1.000  H
  H100     1.0000 0.03510  0.91470  0.02500  Biso   1.000  H
  H101     1.0000 0.53510  0.58530  0.52500  Biso   1.000  H
  H102     1.0000 0.03510  0.08530  0.52500  Biso   1.000  H
  H103     1.0000 0.46490  0.58530  0.97500  Biso   1.000  H
  H104     1.0000 0.96490  0.08530  0.97500  Biso   1.000  H
  H105     1.0000 0.52540  0.51400  0.45120  Biso   1.000  H
  H106     1.0000 0.02540  0.01400  0.45120  Biso   1.000  H
  H107     1.0000 0.47460  0.51400  0.04880  Biso   1.000  H
  H108     1.0000 0.97460  0.01400  0.04880  Biso   1.000  H
  H109     1.0000 0.47460  0.48600  0.54880  Biso   1.000  H
  H110     1.0000 0.97460  0.98600  0.54880  Biso   1.000  H
  H111     1.0000 0.52540  0.48600  0.95120  Biso   1.000  H
  H112     1.0000 0.02540  0.98600  0.95120  Biso   1.000  H
  C137     1.0000 0.46980  0.59800  0.52800  Biso   1.000  C
  C138     1.0000 0.96980  0.09800  0.52800  Biso   1.000  C
  C139     1.0000 0.53020  0.59800  0.97200  Biso   1.000  C
  C140     1.0000 0.03020  0.09800  0.97200  Biso   1.000  C
  C141     1.0000 0.53020  0.40200  0.47200  Biso   1.000  C
  C142     1.0000 0.03020  0.90200  0.47200  Biso   1.000  C
  C143     1.0000 0.46980  0.40200  0.02800  Biso   1.000  C
  C144     1.0000 0.96980  0.90200  0.02800  Biso   1.000  C
  H113     1.0000 0.44550  0.56130  0.56730  Biso   1.000  H
  H114     1.0000 0.94550  0.06130  0.56730  Biso   1.000  H
  H115     1.0000 0.55450  0.56130  0.93270  Biso   1.000  H
  H116     1.0000 0.05450  0.06130  0.93270  Biso   1.000  H
  H117     1.0000 0.55450  0.43870  0.43270  Biso   1.000  H
  H118     1.0000 0.05450  0.93870  0.43270  Biso   1.000  H
  H119     1.0000 0.44550  0.43870  0.06730  Biso   1.000  H
  H120     1.0000 0.94550  0.93870  0.06730  Biso   1.000  H
  H121     1.0000 0.51000  0.66300  0.54800  Biso   1.000  H
  H122     1.0000 0.01000  0.16300  0.54800  Biso   1.000  H
  H123     1.0000 0.49000  0.66300  0.95200  Biso   1.000  H
  H124     1.0000 0.99000  0.16300  0.95200  Biso   1.000  H
  H125     1.0000 0.49000  0.33700  0.45200  Biso   1.000  H
  H126     1.0000 0.99000  0.83700  0.45200  Biso   1.000  H
  H127     1.0000 0.51000  0.33700  0.04800  Biso   1.000  H
  H128     1.0000 0.01000  0.83700  0.04800  Biso   1.000  H
  C145     1.0000 0.41180  0.67500  0.47750  Biso   1.000  C
  C146     1.0000 0.91180  0.17500  0.47750  Biso   1.000  C
  C147     1.0000 0.58820  0.67500  0.02250  Biso   1.000  C
  C148     1.0000 0.08820  0.17500  0.02250  Biso   1.000  C
  C149     1.0000 0.58820  0.32500  0.52250  Biso   1.000  C
  C150     1.0000 0.08820  0.82500  0.52250  Biso   1.000  C
  C151     1.0000 0.41180  0.32500  0.97750  Biso   1.000  C
  C152     1.0000 0.91180  0.82500  0.97750  Biso   1.000  C
  H129     1.0000 0.43680  0.72120  0.44160  Biso   1.000  H
  H130     1.0000 0.93680  0.22120  0.44160  Biso   1.000  H
  H131     1.0000 0.56320  0.72120  0.05840  Biso   1.000  H
  H132     1.0000 0.06320  0.22120  0.05840  Biso   1.000  H
  H133     1.0000 0.56320  0.27880  0.55840  Biso   1.000  H
  H134     1.0000 0.06320  0.77880  0.55840  Biso   1.000  H
  H135     1.0000 0.43680  0.27880  0.94160  Biso   1.000  H
  H136     1.0000 0.93680  0.77880  0.94160  Biso   1.000  H
  H137     1.0000 0.38700  0.74480  0.50340  Biso   1.000  H
  H138     1.0000 0.88700  0.24480  0.50340  Biso   1.000  H
  H139     1.0000 0.61300  0.74480  0.99660  Biso   1.000  H
  H140     1.0000 0.11300  0.24480  0.99660  Biso   1.000  H
  H141     1.0000 0.61300  0.25520  0.49660  Biso   1.000  H
  H142     1.0000 0.11300  0.75520  0.49660  Biso   1.000  H
  H143     1.0000 0.38700  0.25520  0.00340  Biso   1.000  H
  H144     1.0000 0.88700  0.75520  0.00340  Biso   1.000  H
  H145     1.0000 0.37410  0.61010  0.45480  Biso   1.000  H
  H146     1.0000 0.87410  0.11010  0.45480  Biso   1.000  H
  H147     1.0000 0.62590  0.61010  0.04520  Biso   1.000  H
  H148     1.0000 0.12590  0.11010  0.04520  Biso   1.000  H
  H149     1.0000 0.62590  0.38990  0.54520  Biso   1.000  H
  H150     1.0000 0.12590  0.88990  0.54520  Biso   1.000  H
  H151     1.0000 0.37410  0.38990  0.95480  Biso   1.000  H
  H152     1.0000 0.87410  0.88990  0.95480  Biso   1.000  H
  Cu1      1.0000 0.50000  0.91153  0.25000  Biso   1.000  Cu
  Cu2      1.0000 0.00000  0.41153  0.25000  Biso   1.000  Cu
  Cu3      1.0000 0.50000  0.08847  0.75000  Biso   1.000  Cu
  Cu4      1.0000 0.00000  0.58847  0.75000  Biso   1.000  Cu
  Cu5      1.0000 0.50000  0.64435  0.25000  Biso   1.000  Cu
  Cu6      1.0000 0.00000  0.14435  0.25000  Biso   1.000  Cu
  Cu7      1.0000 0.50000  0.35565  0.75000  Biso   1.000  Cu
  Cu8      1.0000 0.00000  0.85565  0.75000  Biso   1.000  Cu
  N1       1.0000 0.50000  0.13360  0.25000  Biso   1.000  N
  N2       1.0000 0.00000  0.63360  0.25000  Biso   1.000  N
  N3       1.0000 0.50000  0.86640  0.75000  Biso   1.000  N
  N4       1.0000 0.00000  0.36640  0.75000  Biso   1.000  N
  N5       1.0000 0.50000  0.42050  0.25000  Biso   1.000  N
  N6       1.0000 0.00000  0.92050  0.25000  Biso   1.000  N
  N7       1.0000 0.50000  0.57950  0.75000  Biso   1.000  N
  N8       1.0000 0.00000  0.07950  0.75000  Biso   1.000  N
  O1       1.0000 0.39550  0.88600  0.27010  Biso   1.000  O
  O2       1.0000 0.89550  0.38600  0.27010  Biso   1.000  O
  O3       1.0000 0.60450  0.88600  0.22990  Biso   1.000  O
  O4       1.0000 0.10450  0.38600  0.22990  Biso   1.000  O
  O5       1.0000 0.60450  0.11400  0.72990  Biso   1.000  O
  O6       1.0000 0.10450  0.61400  0.72990  Biso   1.000  O
  O7       1.0000 0.39550  0.11400  0.77010  Biso   1.000  O
  O8       1.0000 0.89550  0.61400  0.77010  Biso   1.000  O
  O9       1.0000 0.40510  0.65780  0.28790  Biso   1.000  O
  O10      1.0000 0.90510  0.15780  0.28790  Biso   1.000  O
  O11      1.0000 0.59490  0.65780  0.21210  Biso   1.000  O
  O12      1.0000 0.09490  0.15780  0.21210  Biso   1.000  O
  O13      1.0000 0.59490  0.34220  0.71210  Biso   1.000  O
  O14      1.0000 0.09490  0.84220  0.71210  Biso   1.000  O
  O15      1.0000 0.40510  0.34220  0.78790  Biso   1.000  O
  O16      1.0000 0.90510  0.84220  0.78790  Biso   1.000  O
  O17      1.0000 0.46330  0.89790  0.14942  Biso   1.000  O
  O18      1.0000 0.96330  0.39790  0.14942  Biso   1.000  O
  O19      1.0000 0.53670  0.89790  0.35058  Biso   1.000  O
  O20      1.0000 0.03670  0.39790  0.35058  Biso   1.000  O
  O21      1.0000 0.53670  0.10210  0.85058  Biso   1.000  O
  O22      1.0000 0.03670  0.60210  0.85058  Biso   1.000  O
  O23      1.0000 0.46330  0.10210  0.64942  Biso   1.000  O
  O24      1.0000 0.96330  0.60210  0.64942  Biso   1.000  O
  O25      1.0000 0.44390  0.66980  0.15370  Biso   1.000  O
  O26      1.0000 0.94390  0.16980  0.15370  Biso   1.000  O
  O27      1.0000 0.55610  0.66980  0.34630  Biso   1.000  O
  O28      1.0000 0.05610  0.16980  0.34630  Biso   1.000  O
  O29      1.0000 0.55610  0.33020  0.84630  Biso   1.000  O
  O30      1.0000 0.05610  0.83020  0.84630  Biso   1.000  O
  O31      1.0000 0.44390  0.33020  0.65370  Biso   1.000  O
  O32      1.0000 0.94390  0.83020  0.65370  Biso   1.000  O
  O33      1.0000 0.56120  0.41120  0.54040  Biso   1.000  O
  O34      1.0000 0.06120  0.91120  0.54040  Biso   1.000  O
  O35      1.0000 0.43880  0.41120  0.95960  Biso   1.000  O
  O36      1.0000 0.93880  0.91120  0.95960  Biso   1.000  O
  O37      1.0000 0.43880  0.58880  0.45960  Biso   1.000  O
  O38      1.0000 0.93880  0.08880  0.45960  Biso   1.000  O
  O39      1.0000 0.56120  0.58880  0.04040  Biso   1.000  O
  O40      1.0000 0.06120  0.08880  0.04040  Biso   1.000  O
  H153     1.0000 0.54390  0.37920  0.57430  Biso   1.000  H
  H154     1.0000 0.04390  0.87920  0.57430  Biso   1.000  H
  H155     1.0000 0.45610  0.37920  0.92570  Biso   1.000  H
  H156     1.0000 0.95610  0.87920  0.92570  Biso   1.000  H
  H157     1.0000 0.45610  0.62080  0.42570  Biso   1.000  H
  H158     1.0000 0.95610  0.12080  0.42570  Biso   1.000  H
  H159     1.0000 0.54390  0.62080  0.07430  Biso   1.000  H
  H160     1.0000 0.04390  0.12080  0.07430  Biso   1.000  H
