data_image0
_cell_length_a       9.699
_cell_length_b       9.981
_cell_length_c       10.908
_cell_angle_alpha    69.085
_cell_angle_beta     66.425
_cell_angle_gamma    63.868

_symmetry_space_group_name_H-M    "P 1"
_symmetry_int_tables_number       1

loop_
  _symmetry_equiv_pos_as_xyz
  'x, y, z'

loop_
  _atom_site_label
  _atom_site_occupancy
  _atom_site_fract_x
  _atom_site_fract_y
  _atom_site_fract_z
  _atom_site_thermal_displace_type
  _atom_site_B_iso_or_equiv
  _atom_site_type_symbol
  C1       1.0000 0.83500  0.75290  0.57600  Biso   1.000  C
  C2       1.0000 0.16500  0.24710  0.42400  Biso   1.000  C
  C3       1.0000 0.73080  0.89900  0.61850  Biso   1.000  C
  C4       1.0000 0.26920  0.10100  0.38150  Biso   1.000  C
  C5       1.0000 0.79670  0.98850  0.63520  Biso   1.000  C
  C6       1.0000 0.20330  0.01150  0.36480  Biso   1.000  C
  H1       1.0000 0.90980  0.95810  0.61330  Biso   1.000  H
  H2       1.0000 0.09020  0.04190  0.38670  Biso   1.000  H
  C7       1.0000 0.69910  0.12100  0.68320  Biso   1.000  C
  C8       1.0000 0.30090  0.87900  0.31680  Biso   1.000  C
  H3       1.0000 0.74510  0.17890  0.69720  Biso   1.000  H
  H4       1.0000 0.25490  0.82110  0.30280  Biso   1.000  H
  C9       1.0000 0.53470  0.16910  0.71070  Biso   1.000  C
  C10      1.0000 0.46530  0.83090  0.28930  Biso   1.000  C
  H5       1.0000 0.46680  0.25900  0.74530  Biso   1.000  H
  H6       1.0000 0.53320  0.74100  0.25470  Biso   1.000  H
  C11      1.0000 0.47010  0.08430  0.68720  Biso   1.000  C
  C12      1.0000 0.52990  0.91570  0.31280  Biso   1.000  C
  H7       1.0000 0.35770  0.11960  0.70110  Biso   1.000  H
  H8       1.0000 0.64230  0.88040  0.29890  Biso   1.000  H
  C13      1.0000 0.56600  0.95050  0.64430  Biso   1.000  C
  C14      1.0000 0.43400  0.04950  0.35570  Biso   1.000  C
  H9       1.0000 0.51900  0.89210  0.63210  Biso   1.000  H
  H10      1.0000 0.48100  0.10790  0.36790  Biso   1.000  H
  C15      1.0000 0.03030  0.64190  0.25020  Biso   1.000  C
  C16      1.0000 0.96970  0.35810  0.74980  Biso   1.000  C
  C17      1.0000 0.04870  0.71800  0.10370  Biso   1.000  C
  C18      1.0000 0.95130  0.28200  0.89630  Biso   1.000  C
  C19      1.0000 0.14920  0.80340  0.03640  Biso   1.000  C
  C20      1.0000 0.85080  0.19660  0.96360  Biso   1.000  C
  H11      1.0000 0.20380  0.81500  0.08520  Biso   1.000  H
  H12      1.0000 0.79620  0.18500  0.91480  Biso   1.000  H
  C21      1.0000 0.17000  0.87160  0.89830  Biso   1.000  C
  C22      1.0000 0.83000  0.12840  0.10170  Biso   1.000  C
  H13      1.0000 0.23860  0.93020  0.85290  Biso   1.000  H
  H14      1.0000 0.76140  0.06980  0.14710  Biso   1.000  H
  C23      1.0000 0.09180  0.85480  0.82650  Biso   1.000  C
  C24      1.0000 0.90820  0.14520  0.17350  Biso   1.000  C
  H15      1.0000 0.10740  0.90020  0.73150  Biso   1.000  H
  H16      1.0000 0.89260  0.09980  0.26850  Biso   1.000  H
  C25      1.0000 0.99100  0.77190  0.89380  Biso   1.000  C
  C26      1.0000 0.00900  0.22810  0.10620  Biso   1.000  C
  H17      1.0000 0.93540  0.76170  0.84480  Biso   1.000  H
  H18      1.0000 0.06460  0.23830  0.15520  Biso   1.000  H
  C27      1.0000 0.96910  0.70340  0.03030  Biso   1.000  C
  C28      1.0000 0.03090  0.29660  0.96970  Biso   1.000  C
  H19      1.0000 0.89950  0.64580  0.07490  Biso   1.000  H
  H20      1.0000 0.10050  0.35420  0.92510  Biso   1.000  H
  C29      1.0000 0.36240  0.56750  0.58530  Biso   1.000  C
  C30      1.0000 0.63760  0.43250  0.41470  Biso   1.000  C
  H21      1.0000 0.26640  0.61540  0.64860  Biso   1.000  H
  H22      1.0000 0.73360  0.38460  0.35140  Biso   1.000  H
  C31      1.0000 0.50730  0.55460  0.59110  Biso   1.000  C
  C32      1.0000 0.49270  0.44540  0.40890  Biso   1.000  C
  H23      1.0000 0.50770  0.59600  0.65690  Biso   1.000  H
  H24      1.0000 0.49230  0.40400  0.34310  Biso   1.000  H
  C33      1.0000 0.39500  0.34100  0.01300  Biso   1.000  C
  C34      1.0000 0.60500  0.65900  0.98700  Biso   1.000  C
  H25      1.0000 0.48350  0.25610  0.97160  Biso   1.000  H
  H26      1.0000 0.51650  0.74390  0.02840  Biso   1.000  H
  H27      1.0000 0.32030  0.29910  0.09480  Biso   1.000  H
  H28      1.0000 0.67970  0.70090  0.90520  Biso   1.000  H
  C35      1.0000 0.46000  0.43800  0.04800  Biso   1.000  C
  C36      1.0000 0.54000  0.56200  0.95200  Biso   1.000  C
  H29      1.0000 0.36760  0.49960  0.11180  Biso   1.000  H
  H30      1.0000 0.63240  0.50040  0.88820  Biso   1.000  H
  H31      1.0000 0.53600  0.36450  0.10120  Biso   1.000  H
  H32      1.0000 0.46400  0.63550  0.89880  Biso   1.000  H
  C37      1.0000 0.54100  0.54500  0.94100  Biso   1.000  C
  C38      1.0000 0.45900  0.45500  0.05900  Biso   1.000  C
  H33      1.0000 0.36430  0.51160  0.12420  Biso   1.000  H
  H34      1.0000 0.63570  0.48840  0.87580  Biso   1.000  H
  H35      1.0000 0.53390  0.37390  0.11050  Biso   1.000  H
  H36      1.0000 0.46610  0.62610  0.88950  Biso   1.000  H
  C39      1.0000 0.41000  0.38600  0.99300  Biso   1.000  C
  C40      1.0000 0.59000  0.61400  0.00700  Biso   1.000  C
  H37      1.0000 0.49790  0.35360  0.91240  Biso   1.000  H
  H38      1.0000 0.50210  0.64640  0.08760  Biso   1.000  H
  H39      1.0000 0.38330  0.29760  0.05750  Biso   1.000  H
  H40      1.0000 0.61670  0.70240  0.94250  Biso   1.000  H
  H41      1.0000 0.31570  0.46180  0.96330  Biso   1.000  H
  H42      1.0000 0.68430  0.53820  0.03670  Biso   1.000  H
  Cu1      1.0000 0.12692  0.51887  0.49445  Biso   1.000  Cu
  Cu2      1.0000 0.87308  0.48113  0.50555  Biso   1.000  Cu
  N1       1.0000 0.35300  0.51440  0.49290  Biso   1.000  N
  N2       1.0000 0.64700  0.48560  0.50710  Biso   1.000  N
  O1       1.0000 0.98390  0.71240  0.55270  Biso   1.000  O
  O2       1.0000 0.01610  0.28760  0.44730  Biso   1.000  O
  O3       1.0000 0.76780  0.67540  0.56260  Biso   1.000  O
  O4       1.0000 0.23220  0.32460  0.43740  Biso   1.000  O
  O5       1.0000 0.12930  0.63000  0.30530  Biso   1.000  O
  O6       1.0000 0.87070  0.37000  0.69470  Biso   1.000  O
  O7       1.0000 0.91640  0.58900  0.31340  Biso   1.000  O
  O8       1.0000 0.08360  0.41100  0.68660  Biso   1.000  O
  O9       1.0000 0.31290  0.45290  0.91540  Biso   1.000  O
  O10      1.0000 0.68710  0.54710  0.08460  Biso   1.000  O
  H43      1.0000 0.22660  0.51240  0.95630  Biso   1.000  H
  H44      1.0000 0.77340  0.48760  0.04370  Biso   1.000  H
