data_image0
_cell_length_a       9.692
_cell_length_b       10.116
_cell_length_c       10.957
_cell_angle_alpha    68.326
_cell_angle_beta     65.453
_cell_angle_gamma    63.096

_symmetry_space_group_name_H-M    "P 1"
_symmetry_int_tables_number       1

loop_
  _symmetry_equiv_pos_as_xyz
  'x, y, z'

loop_
  _atom_site_label
  _atom_site_occupancy
  _atom_site_fract_x
  _atom_site_fract_y
  _atom_site_fract_z
  _atom_site_thermal_displace_type
  _atom_site_B_iso_or_equiv
  _atom_site_type_symbol
  O1       1.0000 0.07860  0.40570  0.68780  Biso   1.000  O
  O2       1.0000 0.92140  0.59430  0.31220  Biso   1.000  O
  C1       1.0000 0.84600  0.19100  0.96000  Biso   1.000  C
  C2       1.0000 0.15400  0.80900  0.04000  Biso   1.000  C
  H1       1.0000 0.79530  0.17730  0.91010  Biso   1.000  H
  H2       1.0000 0.20470  0.82270  0.08990  Biso   1.000  H
  C3       1.0000 0.82500  0.12300  0.09900  Biso   1.000  C
  C4       1.0000 0.17500  0.87700  0.90100  Biso   1.000  C
  H3       1.0000 0.75970  0.06160  0.14440  Biso   1.000  H
  H4       1.0000 0.24030  0.93840  0.85560  Biso   1.000  H
  C5       1.0000 0.94200  0.28000  0.89610  Biso   1.000  C
  C6       1.0000 0.05800  0.72000  0.10390  Biso   1.000  C
  C7       1.0000 0.01600  0.29500  0.97180  Biso   1.000  C
  C8       1.0000 0.98400  0.70500  0.02820  Biso   1.000  C
  H5       1.0000 0.08490  0.35340  0.92800  Biso   1.000  H
  H6       1.0000 0.91510  0.64660  0.07200  Biso   1.000  H
  C9       1.0000 0.96200  0.35850  0.74570  Biso   1.000  C
  C10      1.0000 0.03800  0.64150  0.25430  Biso   1.000  C
  O3       1.0000 0.86220  0.37430  0.69100  Biso   1.000  O
  O4       1.0000 0.13780  0.62570  0.30900  Biso   1.000  O
  O5       1.0000 0.23260  0.32220  0.44070  Biso   1.000  O
  O6       1.0000 0.76740  0.67780  0.55930  Biso   1.000  O
  C11      1.0000 0.29000  0.88650  0.32080  Biso   1.000  C
  C12      1.0000 0.71000  0.11350  0.67920  Biso   1.000  C
  H7       1.0000 0.24240  0.83180  0.30590  Biso   1.000  H
  H8       1.0000 0.75760  0.16820  0.69410  Biso   1.000  H
  C13      1.0000 0.16270  0.24850  0.42650  Biso   1.000  C
  C14      1.0000 0.83730  0.75150  0.57350  Biso   1.000  C
  O7       1.0000 0.01320  0.29740  0.44080  Biso   1.000  O
  O8       1.0000 0.98680  0.70260  0.55920  Biso   1.000  O
  C15      1.0000 0.26120  0.10410  0.38610  Biso   1.000  C
  C16      1.0000 0.73880  0.89590  0.61390  Biso   1.000  C
  C17      1.0000 0.42600  0.04250  0.36380  Biso   1.000  C
  C18      1.0000 0.57400  0.95750  0.63620  Biso   1.000  C
  H9       1.0000 0.47600  0.09460  0.37890  Biso   1.000  H
  H10      1.0000 0.52400  0.90540  0.62110  Biso   1.000  H
  C19      1.0000 0.51800  0.91370  0.32220  Biso   1.000  C
  C20      1.0000 0.48200  0.08630  0.67780  Biso   1.000  C
  H11      1.0000 0.63160  0.87660  0.30870  Biso   1.000  H
  H12      1.0000 0.36840  0.12340  0.69130  Biso   1.000  H
  C21      1.0000 0.45400  0.83170  0.29790  Biso   1.000  C
  C22      1.0000 0.54600  0.16830  0.70210  Biso   1.000  C
  H13      1.0000 0.52220  0.74040  0.26630  Biso   1.000  H
  H14      1.0000 0.47780  0.25960  0.73370  Biso   1.000  H
  C23      1.0000 0.19300  0.01910  0.36500  Biso   1.000  C
  C24      1.0000 0.80700  0.98090  0.63500  Biso   1.000  C
  H15      1.0000 0.07930  0.05450  0.38170  Biso   1.000  H
  H16      1.0000 0.92070  0.94550  0.61830  Biso   1.000  H
  C25      1.0000 0.99200  0.22700  0.10840  Biso   1.000  C
  C26      1.0000 0.00800  0.77300  0.89160  Biso   1.000  C
  H17      1.0000 0.04150  0.23920  0.16010  Biso   1.000  H
  H18      1.0000 0.95850  0.76080  0.83990  Biso   1.000  H
  C27      1.0000 0.89600  0.14300  0.16900  Biso   1.000  C
  C28      1.0000 0.10400  0.85700  0.83100  Biso   1.000  C
  H19      1.0000 0.87880  0.09650  0.26440  Biso   1.000  H
  H20      1.0000 0.12120  0.90350  0.73560  Biso   1.000  H
  C29      1.0000 0.36070  0.56680  0.58400  Biso   1.000  C
  C30      1.0000 0.63930  0.43320  0.41600  Biso   1.000  C
  H21      1.0000 0.26190  0.61670  0.64540  Biso   1.000  H
  H22      1.0000 0.73810  0.38330  0.35460  Biso   1.000  H
  C31      1.0000 0.50140  0.55980  0.58670  Biso   1.000  C
  C32      1.0000 0.49860  0.44020  0.41330  Biso   1.000  C
  H23      1.0000 0.49940  0.60320  0.65110  Biso   1.000  H
  H24      1.0000 0.50060  0.39680  0.34890  Biso   1.000  H
  C33      1.0000 0.43300  0.42900  0.94400  Biso   1.000  C
  C34      1.0000 0.56700  0.57100  0.05600  Biso   1.000  C
  H25      1.0000 0.34030  0.51200  0.91320  Biso   1.000  H
  H26      1.0000 0.65970  0.48800  0.08680  Biso   1.000  H
  H27      1.0000 0.52450  0.40760  0.85940  Biso   1.000  H
  H28      1.0000 0.47550  0.59240  0.14060  Biso   1.000  H
  C35      1.0000 0.48100  0.49300  0.01900  Biso   1.000  C
  C36      1.0000 0.51900  0.50700  0.98100  Biso   1.000  C
  H29      1.0000 0.55340  0.40690  0.07060  Biso   1.000  H
  H30      1.0000 0.44660  0.59310  0.92940  Biso   1.000  H
  H31      1.0000 0.38220  0.54310  0.08730  Biso   1.000  H
  H32      1.0000 0.61780  0.45690  0.91270  Biso   1.000  H
  C37      1.0000 0.43400  0.39500  0.07200  Biso   1.000  C
  C38      1.0000 0.56600  0.60500  0.92800  Biso   1.000  C
  H33      1.0000 0.52200  0.30250  0.10070  Biso   1.000  H
  H34      1.0000 0.47800  0.69750  0.89930  Biso   1.000  H
  H35      1.0000 0.36530  0.43610  0.15560  Biso   1.000  H
  H36      1.0000 0.63470  0.56390  0.84440  Biso   1.000  H
  C39      1.0000 0.33100  0.33300  0.05200  Biso   1.000  C
  C40      1.0000 0.66900  0.66700  0.94800  Biso   1.000  C
  H37      1.0000 0.38790  0.22390  0.04940  Biso   1.000  H
  H38      1.0000 0.61210  0.77610  0.95060  Biso   1.000  H
  H39      1.0000 0.22610  0.34570  0.12620  Biso   1.000  H
  H40      1.0000 0.77390  0.65430  0.87380  Biso   1.000  H
  C41      1.0000 0.30800  0.43100  0.91400  Biso   1.000  C
  C42      1.0000 0.69200  0.56900  0.08600  Biso   1.000  C
  H41      1.0000 0.39800  0.46780  0.86080  Biso   1.000  H
  H42      1.0000 0.60200  0.53220  0.13920  Biso   1.000  H
  H43      1.0000 0.30420  0.37030  0.86400  Biso   1.000  H
  H44      1.0000 0.69580  0.62970  0.13600  Biso   1.000  H
  H45      1.0000 0.20550  0.51740  0.92870  Biso   1.000  H
  H46      1.0000 0.79450  0.48260  0.07130  Biso   1.000  H
  Cu1      1.0000 0.12830  0.51400  0.49755  Biso   1.000  Cu
  Cu2      1.0000 0.87170  0.48600  0.50245  Biso   1.000  Cu
  N1       1.0000 0.35650  0.50640  0.49880  Biso   1.000  N
  N2       1.0000 0.64350  0.49360  0.50120  Biso   1.000  N
  O9       1.0000 0.38900  0.29700  0.00900  Biso   1.000  O
  O10      1.0000 0.61100  0.70300  0.99100  Biso   1.000  O
  H47      1.0000 0.30470  0.31240  0.99390  Biso   1.000  H
  H48      1.0000 0.69530  0.68760  0.00610  Biso   1.000  H
