data_image0
_cell_length_a       12.28
_cell_length_b       12.553
_cell_length_c       19.49
_cell_angle_alpha    90
_cell_angle_beta     92.17
_cell_angle_gamma    90

_symmetry_space_group_name_H-M    "P 1"
_symmetry_int_tables_number       1

loop_
  _symmetry_equiv_pos_as_xyz
  'x, y, z'

loop_
  _atom_site_label
  _atom_site_occupancy
  _atom_site_fract_x
  _atom_site_fract_y
  _atom_site_fract_z
  _atom_site_thermal_displace_type
  _atom_site_B_iso_or_equiv
  _atom_site_type_symbol
  Cu1      1.0000 0.76480  0.11174  0.24513  Biso   1.000  Cu
  Cu2      1.0000 0.73520  0.61174  0.75487  Biso   1.000  Cu
  Cu3      1.0000 0.23520  0.88826  0.75487  Biso   1.000  Cu
  Cu4      1.0000 0.26480  0.38826  0.24513  Biso   1.000  Cu
  Cl1      1.0000 0.25430  0.25320  0.95470  Biso   1.000  Cl
  Cl2      1.0000 0.24570  0.75320  0.04530  Biso   1.000  Cl
  Cl3      1.0000 0.74570  0.74680  0.04530  Biso   1.000  Cl
  Cl4      1.0000 0.75430  0.24680  0.95470  Biso   1.000  Cl
  Cl5      1.0000 0.29820  0.20950  0.53353  Biso   1.000  Cl
  Cl6      1.0000 0.20180  0.70950  0.46647  Biso   1.000  Cl
  Cl7      1.0000 0.70180  0.79050  0.46647  Biso   1.000  Cl
  Cl8      1.0000 0.79820  0.29050  0.53353  Biso   1.000  Cl
  O1       1.0000 0.25780  0.36280  0.95570  Biso   1.000  O
  O2       1.0000 0.24220  0.86280  0.04430  Biso   1.000  O
  O3       1.0000 0.74220  0.63720  0.04430  Biso   1.000  O
  O4       1.0000 0.75780  0.13720  0.95570  Biso   1.000  O
  O5       1.0000 0.26340  0.21000  0.01960  Biso   1.000  O
  O6       1.0000 0.23660  0.71000  0.98040  Biso   1.000  O
  O7       1.0000 0.73660  0.79000  0.98040  Biso   1.000  O
  O8       1.0000 0.76340  0.29000  0.01960  Biso   1.000  O
  O9       1.0000 0.34810  0.22860  0.92220  Biso   1.000  O
  O10      1.0000 0.15190  0.72860  0.07780  Biso   1.000  O
  O11      1.0000 0.65190  0.77140  0.07780  Biso   1.000  O
  O12      1.0000 0.84810  0.27140  0.92220  Biso   1.000  O
  O13      1.0000 0.16190  0.21470  0.92300  Biso   1.000  O
  O14      1.0000 0.33810  0.71470  0.07700  Biso   1.000  O
  O15      1.0000 0.83810  0.78530  0.07700  Biso   1.000  O
  O16      1.0000 0.66190  0.28530  0.92300  Biso   1.000  O
  O17      1.0000 0.40630  0.20580  0.54290  Biso   1.000  O
  O18      1.0000 0.09370  0.70580  0.45710  Biso   1.000  O
  O19      1.0000 0.59370  0.79420  0.45710  Biso   1.000  O
  O20      1.0000 0.90630  0.29420  0.54290  Biso   1.000  O
  O21      1.0000 0.26200  0.19830  0.59800  Biso   1.000  O
  O22      1.0000 0.23800  0.69830  0.40200  Biso   1.000  O
  O23      1.0000 0.73800  0.80170  0.40200  Biso   1.000  O
  O24      1.0000 0.76200  0.30170  0.59800  Biso   1.000  O
  O25      1.0000 0.25740  0.12370  0.49840  Biso   1.000  O
  O26      1.0000 0.24260  0.62370  0.50160  Biso   1.000  O
  O27      1.0000 0.74260  0.87630  0.50160  Biso   1.000  O
  O28      1.0000 0.75740  0.37630  0.49840  Biso   1.000  O
  O29      1.0000 0.26750  0.30490  0.51070  Biso   1.000  O
  O30      1.0000 0.23250  0.80490  0.48930  Biso   1.000  O
  O31      1.0000 0.73250  0.69510  0.48930  Biso   1.000  O
  O32      1.0000 0.76750  0.19510  0.51070  Biso   1.000  O
  O33      1.0000 0.53610  0.19700  0.80750  Biso   1.000  O
  O34      1.0000 0.96390  0.69700  0.19250  Biso   1.000  O
  O35      1.0000 0.46390  0.80300  0.19250  Biso   1.000  O
  O36      1.0000 0.03610  0.30300  0.80750  Biso   1.000  O
  O37      1.0000 0.83100  0.24600  0.74300  Biso   1.000  O
  O38      1.0000 0.66900  0.74600  0.25700  Biso   1.000  O
  O39      1.0000 0.16900  0.75400  0.25700  Biso   1.000  O
  O40      1.0000 0.33100  0.25400  0.74300  Biso   1.000  O
  N1       1.0000 0.65400  0.11200  0.16730  Biso   1.000  N
  N2       1.0000 0.84600  0.61200  0.83270  Biso   1.000  N
  N3       1.0000 0.34600  0.88800  0.83270  Biso   1.000  N
  N4       1.0000 0.15400  0.38800  0.16730  Biso   1.000  N
  N5       1.0000 0.54230  0.05460  0.08560  Biso   1.000  N
  N6       1.0000 0.95770  0.55460  0.91440  Biso   1.000  N
  N7       1.0000 0.45770  0.94540  0.91440  Biso   1.000  N
  N8       1.0000 0.04230  0.44540  0.08560  Biso   1.000  N
  N9       1.0000 0.88060  0.05770  0.18190  Biso   1.000  N
  N10      1.0000 0.61940  0.55770  0.81810  Biso   1.000  N
  N11      1.0000 0.11940  0.94230  0.81810  Biso   1.000  N
  N12      1.0000 0.38060  0.44230  0.18190  Biso   1.000  N
  N13      1.0000 0.98080  0.03630  0.09160  Biso   1.000  N
  N14      1.0000 0.51920  0.53630  0.90840  Biso   1.000  N
  N15      1.0000 0.01920  0.96370  0.90840  Biso   1.000  N
  N16      1.0000 0.48080  0.46370  0.09160  Biso   1.000  N
  N17      1.0000 0.87590  0.09960  0.32270  Biso   1.000  N
  N18      1.0000 0.62410  0.59960  0.67730  Biso   1.000  N
  N19      1.0000 0.12410  0.90040  0.67730  Biso   1.000  N
  N20      1.0000 0.37590  0.40040  0.32270  Biso   1.000  N
  N21      1.0000 0.97570  0.03390  0.40820  Biso   1.000  N
  N22      1.0000 0.52430  0.53390  0.59180  Biso   1.000  N
  N23      1.0000 0.02430  0.96610  0.59180  Biso   1.000  N
  N24      1.0000 0.47570  0.46610  0.40820  Biso   1.000  N
  N25      1.0000 0.35640  0.92770  0.68990  Biso   1.000  N
  N26      1.0000 0.14360  0.42770  0.31010  Biso   1.000  N
  N27      1.0000 0.64360  0.07230  0.31010  Biso   1.000  N
  N28      1.0000 0.85640  0.57230  0.68990  Biso   1.000  N
  N29      1.0000 0.49890  0.00880  0.65010  Biso   1.000  N
  N30      1.0000 0.00110  0.50880  0.34990  Biso   1.000  N
  N31      1.0000 0.50110  0.99120  0.34990  Biso   1.000  N
  N32      1.0000 0.99890  0.49120  0.65010  Biso   1.000  N
  N33      1.0000 0.71280  0.94440  0.69980  Biso   1.000  N
  N34      1.0000 0.78720  0.44440  0.30020  Biso   1.000  N
  N35      1.0000 0.28720  0.05560  0.30020  Biso   1.000  N
  N36      1.0000 0.21280  0.55560  0.69980  Biso   1.000  N
  N37      1.0000 0.77280  0.28720  0.25110  Biso   1.000  N
  N38      1.0000 0.72720  0.78720  0.74890  Biso   1.000  N
  N39      1.0000 0.22720  0.71280  0.74890  Biso   1.000  N
  N40      1.0000 0.27280  0.21280  0.25110  Biso   1.000  N
  C1       1.0000 0.57430  0.18960  0.15540  Biso   1.000  C
  C2       1.0000 0.92570  0.68960  0.84460  Biso   1.000  C
  C3       1.0000 0.42570  0.81040  0.84460  Biso   1.000  C
  C4       1.0000 0.07430  0.31040  0.15540  Biso   1.000  C
  C5       1.0000 0.50600  0.15290  0.10340  Biso   1.000  C
  C6       1.0000 0.99400  0.65290  0.89660  Biso   1.000  C
  C7       1.0000 0.49400  0.84710  0.89660  Biso   1.000  C
  C8       1.0000 0.00600  0.34710  0.10340  Biso   1.000  C
  C9       1.0000 0.63390  0.03440  0.12350  Biso   1.000  C
  C10      1.0000 0.86610  0.53440  0.87650  Biso   1.000  C
  C11      1.0000 0.36610  0.96560  0.87650  Biso   1.000  C
  C12      1.0000 0.13390  0.46560  0.12350  Biso   1.000  C
  C13      1.0000 0.48450  0.98230  0.03460  Biso   1.000  C
  C14      1.0000 0.01550  0.48230  0.96540  Biso   1.000  C
  C15      1.0000 0.51550  0.01770  0.96540  Biso   1.000  C
  C16      1.0000 0.98450  0.51770  0.03460  Biso   1.000  C
  C17      1.0000 0.96420  0.98680  0.19690  Biso   1.000  C
  C18      1.0000 0.53580  0.48680  0.80310  Biso   1.000  C
  C19      1.0000 0.03580  0.01320  0.80310  Biso   1.000  C
  C20      1.0000 0.46420  0.51320  0.19690  Biso   1.000  C
  C21      1.0000 0.02510  0.97130  0.14180  Biso   1.000  C
  C22      1.0000 0.47490  0.47130  0.85820  Biso   1.000  C
  C23      1.0000 0.97490  0.02870  0.85820  Biso   1.000  C
  C24      1.0000 0.52510  0.52870  0.14180  Biso   1.000  C
  C25      1.0000 0.89470  0.08550  0.11710  Biso   1.000  C
  C26      1.0000 0.60530  0.58550  0.88290  Biso   1.000  C
  C27      1.0000 0.10530  0.91450  0.88290  Biso   1.000  C
  C28      1.0000 0.39470  0.41450  0.11710  Biso   1.000  C
  C29      1.0000 0.01950  0.04810  0.02050  Biso   1.000  C
  C30      1.0000 0.48050  0.54810  0.97950  Biso   1.000  C
  C31      1.0000 0.98050  0.95190  0.97950  Biso   1.000  C
  C32      1.0000 0.51950  0.45190  0.02050  Biso   1.000  C
  C33      1.0000 0.97110  0.15790  0.32950  Biso   1.000  C
  C34      1.0000 0.52890  0.65790  0.67050  Biso   1.000  C
  C35      1.0000 0.02890  0.84210  0.67050  Biso   1.000  C
  C36      1.0000 0.47110  0.34210  0.32950  Biso   1.000  C
  C37      1.0000 0.03170  0.11950  0.38260  Biso   1.000  C
  C38      1.0000 0.46830  0.61950  0.61740  Biso   1.000  C
  C39      1.0000 0.96830  0.88050  0.61740  Biso   1.000  C
  C40      1.0000 0.53170  0.38050  0.38260  Biso   1.000  C
  C41      1.0000 0.88190  0.02700  0.37120  Biso   1.000  C
  C42      1.0000 0.61810  0.52700  0.62880  Biso   1.000  C
  C43      1.0000 0.11810  0.97300  0.62880  Biso   1.000  C
  C44      1.0000 0.38190  0.47300  0.37120  Biso   1.000  C
  C45      1.0000 0.00960  0.96970  0.46690  Biso   1.000  C
  C46      1.0000 0.49040  0.46970  0.53310  Biso   1.000  C
  C47      1.0000 0.99040  0.03030  0.53310  Biso   1.000  C
  C48      1.0000 0.50960  0.53030  0.46690  Biso   1.000  C
  C49      1.0000 0.37140  0.89380  0.62350  Biso   1.000  C
  C50      1.0000 0.12860  0.39380  0.37650  Biso   1.000  C
  C51      1.0000 0.62860  0.10620  0.37650  Biso   1.000  C
  C52      1.0000 0.87140  0.60620  0.62350  Biso   1.000  C
  C53      1.0000 0.45950  0.94300  0.59900  Biso   1.000  C
  C54      1.0000 0.04050  0.44300  0.40100  Biso   1.000  C
  C55      1.0000 0.54050  0.05700  0.40100  Biso   1.000  C
  C56      1.0000 0.95950  0.55700  0.59900  Biso   1.000  C
  C57      1.0000 0.43500  0.99660  0.70330  Biso   1.000  C
  C58      1.0000 0.06500  0.49660  0.29670  Biso   1.000  C
  C59      1.0000 0.56500  0.00340  0.29670  Biso   1.000  C
  C60      1.0000 0.93500  0.50340  0.70330  Biso   1.000  C
  C61      1.0000 0.59140  0.08160  0.64690  Biso   1.000  C
  C62      1.0000 0.90860  0.58160  0.35310  Biso   1.000  C
  C63      1.0000 0.40860  0.91840  0.35310  Biso   1.000  C
  C64      1.0000 0.09140  0.41840  0.64690  Biso   1.000  C
  C65      1.0000 0.70030  0.02370  0.64500  Biso   1.000  C
  C66      1.0000 0.79970  0.52370  0.35500  Biso   1.000  C
  C67      1.0000 0.29970  0.97630  0.35500  Biso   1.000  C
  C68      1.0000 0.20030  0.47630  0.64500  Biso   1.000  C
  C69      1.0000 0.72500  0.96310  0.76960  Biso   1.000  C
  C70      1.0000 0.77500  0.46310  0.23040  Biso   1.000  C
  C71      1.0000 0.27500  0.03690  0.23040  Biso   1.000  C
  C72      1.0000 0.22500  0.53690  0.76960  Biso   1.000  C
  C73      1.0000 0.76630  0.36620  0.20140  Biso   1.000  C
  C74      1.0000 0.73370  0.86620  0.79860  Biso   1.000  C
  C75      1.0000 0.23370  0.63380  0.79860  Biso   1.000  C
  C76      1.0000 0.26630  0.13380  0.20140  Biso   1.000  C
  C77      1.0000 0.78680  0.33910  0.30990  Biso   1.000  C
  C78      1.0000 0.71320  0.83910  0.69010  Biso   1.000  C
  C79      1.0000 0.21320  0.66090  0.69010  Biso   1.000  C
  C80      1.0000 0.28680  0.16090  0.30990  Biso   1.000  C
  C81      1.0000 0.63400  0.22600  0.78400  Biso   1.000  C
  C82      1.0000 0.86600  0.72600  0.21600  Biso   1.000  C
  C83      1.0000 0.36600  0.77400  0.21600  Biso   1.000  C
  C84      1.0000 0.13400  0.27400  0.78400  Biso   1.000  C
  C85      1.0000 0.93000  0.20500  0.70400  Biso   1.000  C
  C86      1.0000 0.57000  0.70500  0.29600  Biso   1.000  C
  C87      1.0000 0.07000  0.79500  0.29600  Biso   1.000  C
  C88      1.0000 0.43000  0.29500  0.70400  Biso   1.000  C
  H1       1.0000 0.55130  0.15200  0.16680  Biso   1.000  H
  H2       1.0000 0.94870  0.65200  0.83320  Biso   1.000  H
  H3       1.0000 0.44870  0.84800  0.83320  Biso   1.000  H
  H4       1.0000 0.05130  0.34800  0.16680  Biso   1.000  H
  H5       1.0000 0.42900  0.17610  0.08000  Biso   1.000  H
  H6       1.0000 0.07100  0.67610  0.92000  Biso   1.000  H
  H7       1.0000 0.57100  0.82390  0.92000  Biso   1.000  H
  H8       1.0000 0.92900  0.32390  0.08000  Biso   1.000  H
  H9       1.0000 0.64530  0.96290  0.12830  Biso   1.000  H
  H10      1.0000 0.85470  0.46290  0.87170  Biso   1.000  H
  H11      1.0000 0.35470  0.03710  0.87170  Biso   1.000  H
  H12      1.0000 0.14530  0.53710  0.12830  Biso   1.000  H
  H13      1.0000 0.52450  0.92240  0.04060  Biso   1.000  H
  H14      1.0000 0.97550  0.42240  0.95940  Biso   1.000  H
  H15      1.0000 0.47550  0.07760  0.95940  Biso   1.000  H
  H16      1.0000 0.02450  0.57760  0.04060  Biso   1.000  H
  H17      1.0000 0.40680  0.97300  0.03480  Biso   1.000  H
  H18      1.0000 0.09320  0.47300  0.96520  Biso   1.000  H
  H19      1.0000 0.59320  0.02700  0.96520  Biso   1.000  H
  H20      1.0000 0.90680  0.52700  0.03480  Biso   1.000  H
  H21      1.0000 0.96070  0.95070  0.24600  Biso   1.000  H
  H22      1.0000 0.53930  0.45070  0.75400  Biso   1.000  H
  H23      1.0000 0.03930  0.04930  0.75400  Biso   1.000  H
  H24      1.0000 0.46070  0.54930  0.24600  Biso   1.000  H
  H25      1.0000 0.09990  0.92630  0.13740  Biso   1.000  H
  H26      1.0000 0.40010  0.42630  0.86260  Biso   1.000  H
  H27      1.0000 0.90010  0.07370  0.86260  Biso   1.000  H
  H28      1.0000 0.59990  0.57370  0.13740  Biso   1.000  H
  H29      1.0000 0.84760  0.12440  0.09140  Biso   1.000  H
  H30      1.0000 0.65240  0.62440  0.90860  Biso   1.000  H
  H31      1.0000 0.15240  0.87560  0.90860  Biso   1.000  H
  H32      1.0000 0.34760  0.37560  0.09140  Biso   1.000  H
  H33      1.0000 0.98870  0.10110  0.00650  Biso   1.000  H
  H34      1.0000 0.51130  0.60110  0.99350  Biso   1.000  H
  H35      1.0000 0.01130  0.89890  0.99350  Biso   1.000  H
  H36      1.0000 0.48870  0.39890  0.00650  Biso   1.000  H
  H37      1.0000 0.05280  0.01980  0.03440  Biso   1.000  H
  H38      1.0000 0.44720  0.51980  0.96560  Biso   1.000  H
  H39      1.0000 0.94720  0.98020  0.96560  Biso   1.000  H
  H40      1.0000 0.55280  0.48020  0.03440  Biso   1.000  H
  H41      1.0000 0.98940  0.21870  0.30130  Biso   1.000  H
  H42      1.0000 0.51060  0.71870  0.69870  Biso   1.000  H
  H43      1.0000 0.01060  0.78130  0.69870  Biso   1.000  H
  H44      1.0000 0.48940  0.28130  0.30130  Biso   1.000  H
  H45      1.0000 0.10380  0.13220  0.40060  Biso   1.000  H
  H46      1.0000 0.39620  0.63220  0.59940  Biso   1.000  H
  H47      1.0000 0.89620  0.86780  0.59940  Biso   1.000  H
  H48      1.0000 0.60380  0.36780  0.40060  Biso   1.000  H
  H49      1.0000 0.82520  0.97040  0.38030  Biso   1.000  H
  H50      1.0000 0.67480  0.47040  0.61970  Biso   1.000  H
  H51      1.0000 0.17480  0.02960  0.61970  Biso   1.000  H
  H52      1.0000 0.32520  0.52960  0.38030  Biso   1.000  H
  H53      1.0000 0.97940  0.89650  0.47180  Biso   1.000  H
  H54      1.0000 0.52060  0.39650  0.52820  Biso   1.000  H
  H55      1.0000 0.02060  0.10350  0.52820  Biso   1.000  H
  H56      1.0000 0.47940  0.60350  0.47180  Biso   1.000  H
  H57      1.0000 0.08450  0.95370  0.46730  Biso   1.000  H
  H58      1.0000 0.41550  0.45370  0.53270  Biso   1.000  H
  H59      1.0000 0.91550  0.04630  0.53270  Biso   1.000  H
  H60      1.0000 0.58450  0.54630  0.46730  Biso   1.000  H
  H61      1.0000 0.32000  0.84380  0.59920  Biso   1.000  H
  H62      1.0000 0.18000  0.34380  0.40080  Biso   1.000  H
  H63      1.0000 0.68000  0.15620  0.40080  Biso   1.000  H
  H64      1.0000 0.82000  0.65620  0.59920  Biso   1.000  H
  H65      1.0000 0.49560  0.94640  0.55370  Biso   1.000  H
  H66      1.0000 0.00440  0.44640  0.44630  Biso   1.000  H
  H67      1.0000 0.50440  0.05360  0.44630  Biso   1.000  H
  H68      1.0000 0.99560  0.55360  0.55370  Biso   1.000  H
  H69      1.0000 0.45020  0.04590  0.74620  Biso   1.000  H
  H70      1.0000 0.04980  0.54590  0.25380  Biso   1.000  H
  H71      1.0000 0.54980  0.95410  0.25380  Biso   1.000  H
  H72      1.0000 0.95020  0.45410  0.74620  Biso   1.000  H
  H73      1.0000 0.59940  0.11630  0.68460  Biso   1.000  H
  H74      1.0000 0.90060  0.61630  0.31540  Biso   1.000  H
  H75      1.0000 0.40060  0.88370  0.31540  Biso   1.000  H
  H76      1.0000 0.09940  0.38370  0.68460  Biso   1.000  H
  H77      1.0000 0.58050  0.12430  0.59890  Biso   1.000  H
  H78      1.0000 0.91950  0.62430  0.40110  Biso   1.000  H
  H79      1.0000 0.41950  0.87570  0.40110  Biso   1.000  H
  H80      1.0000 0.08050  0.37570  0.59890  Biso   1.000  H
  H81      1.0000 0.69860  0.98500  0.61200  Biso   1.000  H
  H82      1.0000 0.80140  0.48500  0.38800  Biso   1.000  H
  H83      1.0000 0.30140  0.01500  0.38800  Biso   1.000  H
  H84      1.0000 0.19860  0.51500  0.61200  Biso   1.000  H
  H85      1.0000 0.76760  0.07450  0.65140  Biso   1.000  H
  H86      1.0000 0.73240  0.57450  0.34860  Biso   1.000  H
  H87      1.0000 0.23240  0.92550  0.34860  Biso   1.000  H
  H88      1.0000 0.26760  0.42550  0.65140  Biso   1.000  H
  H89      1.0000 0.72150  0.05310  0.78960  Biso   1.000  H
  H90      1.0000 0.77850  0.55310  0.21040  Biso   1.000  H
  H91      1.0000 0.27850  0.94690  0.21040  Biso   1.000  H
  H92      1.0000 0.22150  0.44690  0.78960  Biso   1.000  H
  H93      1.0000 0.75680  0.35310  0.15220  Biso   1.000  H
  H94      1.0000 0.74320  0.85310  0.84780  Biso   1.000  H
  H95      1.0000 0.24320  0.64690  0.84780  Biso   1.000  H
  H96      1.0000 0.25680  0.14690  0.15220  Biso   1.000  H
  H97      1.0000 0.79610  0.30430  0.35440  Biso   1.000  H
  H98      1.0000 0.70390  0.80430  0.64560  Biso   1.000  H
  H99      1.0000 0.20390  0.69570  0.64560  Biso   1.000  H
  H100     1.0000 0.29610  0.19570  0.35440  Biso   1.000  H
