data_image0
_cell_length_a       11.792
_cell_length_b       11.877
_cell_length_c       7.688
_cell_angle_alpha    95.88
_cell_angle_beta     101.44
_cell_angle_gamma    61.97

_symmetry_space_group_name_H-M    "P 1"
_symmetry_int_tables_number       1

loop_
  _symmetry_equiv_pos_as_xyz
  'x, y, z'

loop_
  _atom_site_label
  _atom_site_occupancy
  _atom_site_fract_x
  _atom_site_fract_y
  _atom_site_fract_z
  _atom_site_thermal_displace_type
  _atom_site_B_iso_or_equiv
  _atom_site_type_symbol
  S1       1.0000 0.27653  0.80072  0.29719  Biso   1.000  S
  S2       1.0000 0.72347  0.19928  0.70281  Biso   1.000  S
  S3       1.0000 0.23587  0.21226  0.20033  Biso   1.000  S
  S4       1.0000 0.76413  0.78774  0.79967  Biso   1.000  S
  O1       1.0000 0.31130  0.02310  0.56330  Biso   1.000  O
  O2       1.0000 0.68870  0.97690  0.43670  Biso   1.000  O
  C1       1.0000 0.32080  0.71180  0.09250  Biso   1.000  C
  C2       1.0000 0.67920  0.28820  0.90750  Biso   1.000  C
  C3       1.0000 0.35330  0.57380  0.10590  Biso   1.000  C
  C4       1.0000 0.64670  0.42620  0.89410  Biso   1.000  C
  C5       1.0000 0.44680  0.49820  0.24090  Biso   1.000  C
  C6       1.0000 0.55320  0.50180  0.75910  Biso   1.000  C
  C7       1.0000 0.46250  0.37730  0.26810  Biso   1.000  C
  C8       1.0000 0.53750  0.62270  0.73190  Biso   1.000  C
  C9       1.0000 0.38590  0.33000  0.15740  Biso   1.000  C
  C10      1.0000 0.61410  0.67000  0.84260  Biso   1.000  C
  C11      1.0000 0.30170  0.40060  0.01200  Biso   1.000  C
  C12      1.0000 0.69830  0.59940  0.98800  Biso   1.000  C
  C13      1.0000 0.28440  0.52280  0.98730  Biso   1.000  C
  C14      1.0000 0.71560  0.47720  0.01270  Biso   1.000  C
  C15      1.0000 0.39410  0.20530  0.20370  Biso   1.000  C
  C16      1.0000 0.60590  0.79470  0.79630  Biso   1.000  C
  C17      1.0000 0.11680  0.81260  0.30080  Biso   1.000  C
  C18      1.0000 0.88320  0.18740  0.69920  Biso   1.000  C
  C19      1.0000 0.12230  0.68790  0.33960  Biso   1.000  C
  C20      1.0000 0.87770  0.31210  0.66040  Biso   1.000  C
  C21      1.0000 0.20280  0.61570  0.48570  Biso   1.000  C
  C22      1.0000 0.79720  0.38430  0.51430  Biso   1.000  C
  C23      1.0000 0.21760  0.49470  0.50630  Biso   1.000  C
  C24      1.0000 0.78240  0.50530  0.49370  Biso   1.000  C
  C25      1.0000 0.14950  0.44490  0.38490  Biso   1.000  C
  C26      1.0000 0.85050  0.55510  0.61510  Biso   1.000  C
  C27      1.0000 0.05970  0.52160  0.24900  Biso   1.000  C
  C28      1.0000 0.94030  0.47840  0.75100  Biso   1.000  C
  C29      1.0000 0.04700  0.64170  0.22390  Biso   1.000  C
  C30      1.0000 0.95300  0.35830  0.77610  Biso   1.000  C
  C31      1.0000 0.17890  0.30750  0.39700  Biso   1.000  C
  C32      1.0000 0.82110  0.69250  0.60300  Biso   1.000  C
  C33      1.0000 0.22660  0.06610  0.69120  Biso   1.000  C
  C34      1.0000 0.77340  0.93390  0.30880  Biso   1.000  C
  C35      1.0000 0.24080  0.96080  0.79280  Biso   1.000  C
  C36      1.0000 0.75920  0.03920  0.20720  Biso   1.000  C
  Cu1      1.0000 0.25989  0.00783  0.26758  Biso   1.000  Cu
  Cu2      1.0000 0.74011  0.99217  0.73242  Biso   1.000  Cu
  Cl1      1.0000 0.47459  0.89914  0.24520  Biso   1.000  Cl
  Cl2      1.0000 0.52541  0.10086  0.75480  Biso   1.000  Cl
  Cl3      1.0000 0.04200  0.10841  0.22560  Biso   1.000  Cl
  Cl4      1.0000 0.95800  0.89159  0.77440  Biso   1.000  Cl
  H1       1.0000 0.24940  0.75090  0.99650  Biso   1.000  H
  H2       1.0000 0.75060  0.24910  0.00350  Biso   1.000  H
  H3       1.0000 0.39440  0.71700  0.06590  Biso   1.000  H
  H4       1.0000 0.60560  0.28300  0.93410  Biso   1.000  H
  H5       1.0000 0.50110  0.52980  0.31690  Biso   1.000  H
  H6       1.0000 0.49890  0.47020  0.68310  Biso   1.000  H
  H7       1.0000 0.52780  0.32500  0.36260  Biso   1.000  H
  H8       1.0000 0.47220  0.67500  0.63740  Biso   1.000  H
  H9       1.0000 0.25530  0.36530  0.92760  Biso   1.000  H
  H10      1.0000 0.74470  0.63470  0.07240  Biso   1.000  H
  H11      1.0000 0.22360  0.57250  0.88750  Biso   1.000  H
  H12      1.0000 0.77640  0.42750  0.11250  Biso   1.000  H
  H13      1.0000 0.44440  0.18130  0.32030  Biso   1.000  H
  H14      1.0000 0.55560  0.81870  0.67970  Biso   1.000  H
  H15      1.0000 0.43820  0.14160  0.12140  Biso   1.000  H
  H16      1.0000 0.56180  0.85840  0.87860  Biso   1.000  H
  H17      1.0000 0.07790  0.87390  0.38910  Biso   1.000  H
  H18      1.0000 0.92210  0.12610  0.61090  Biso   1.000  H
  H19      1.0000 0.06310  0.84260  0.18750  Biso   1.000  H
  H20      1.0000 0.93690  0.15740  0.81250  Biso   1.000  H
  H21      1.0000 0.24900  0.64960  0.57350  Biso   1.000  H
  H22      1.0000 0.75100  0.35040  0.42650  Biso   1.000  H
  H23      1.0000 0.27630  0.44430  0.60700  Biso   1.000  H
  H24      1.0000 0.72370  0.55570  0.39300  Biso   1.000  H
  H25      1.0000 0.00500  0.49180  0.16950  Biso   1.000  H
  H26      1.0000 0.99500  0.50820  0.83050  Biso   1.000  H
  H27      1.0000 0.98540  0.69370  0.12680  Biso   1.000  H
  H28      1.0000 0.01460  0.30630  0.87320  Biso   1.000  H
  H29      1.0000 0.10120  0.30530  0.41270  Biso   1.000  H
  H30      1.0000 0.89880  0.69470  0.58730  Biso   1.000  H
  H31      1.0000 0.24400  0.27020  0.49940  Biso   1.000  H
  H32      1.0000 0.75600  0.72980  0.50060  Biso   1.000  H
  H33      1.0000 0.24350  0.12590  0.77190  Biso   1.000  H
  H34      1.0000 0.75650  0.87410  0.22810  Biso   1.000  H
  H35      1.0000 0.13690  0.11100  0.63170  Biso   1.000  H
  H36      1.0000 0.86310  0.88900  0.36830  Biso   1.000  H
  H37      1.0000 0.18290  0.99140  0.87760  Biso   1.000  H
  H38      1.0000 0.81710  0.00860  0.12240  Biso   1.000  H
  H39      1.0000 0.22080  0.90210  0.71420  Biso   1.000  H
  H40      1.0000 0.77920  0.09790  0.28580  Biso   1.000  H
  H41      1.0000 0.32780  0.91670  0.85400  Biso   1.000  H
  H42      1.0000 0.67220  0.08330  0.14600  Biso   1.000  H
