data_image0
_cell_length_a       7.447
_cell_length_b       11.877
_cell_length_c       11.753
_cell_angle_alpha    62.608
_cell_angle_beta     92.32
_cell_angle_gamma    98.47

_symmetry_space_group_name_H-M    "P 1"
_symmetry_int_tables_number       1

loop_
  _symmetry_equiv_pos_as_xyz
  'x, y, z'

loop_
  _atom_site_label
  _atom_site_occupancy
  _atom_site_fract_x
  _atom_site_fract_y
  _atom_site_fract_z
  _atom_site_thermal_displace_type
  _atom_site_B_iso_or_equiv
  _atom_site_type_symbol
  S1       1.0000 0.80110  0.27056  0.80183  Biso   1.000  S
  S2       1.0000 0.19890  0.72944  0.19817  Biso   1.000  S
  S3       1.0000 0.71060  0.23673  0.21249  Biso   1.000  S
  S4       1.0000 0.28940  0.76327  0.78751  Biso   1.000  S
  O1       1.0000 0.08090  0.29910  0.01190  Biso   1.000  O
  O2       1.0000 0.91910  0.70090  0.98810  Biso   1.000  O
  C1       1.0000 0.58990  0.31660  0.72040  Biso   1.000  C
  C2       1.0000 0.41010  0.68340  0.27960  Biso   1.000  C
  C3       1.0000 0.60550  0.34990  0.58160  Biso   1.000  C
  C4       1.0000 0.39450  0.65010  0.41840  Biso   1.000  C
  C5       1.0000 0.49300  0.27940  0.53380  Biso   1.000  C
  C6       1.0000 0.50700  0.72060  0.46620  Biso   1.000  C
  C7       1.0000 0.52140  0.29780  0.41160  Biso   1.000  C
  C8       1.0000 0.47860  0.70220  0.58840  Biso   1.000  C
  C9       1.0000 0.66660  0.38430  0.33700  Biso   1.000  C
  C10      1.0000 0.33340  0.61570  0.66300  Biso   1.000  C
  C11      1.0000 0.77030  0.46330  0.38090  Biso   1.000  C
  C12      1.0000 0.22970  0.53670  0.61910  Biso   1.000  C
  C13      1.0000 0.73860  0.44630  0.50260  Biso   1.000  C
  C14      1.0000 0.26140  0.55370  0.49740  Biso   1.000  C
  C15      1.0000 0.71850  0.39130  0.21070  Biso   1.000  C
  C16      1.0000 0.28150  0.60870  0.78930  Biso   1.000  C
  C17      1.0000 0.81010  0.11050  0.81150  Biso   1.000  C
  C18      1.0000 0.18990  0.88950  0.18850  Biso   1.000  C
  C19      1.0000 0.84880  0.11900  0.68310  Biso   1.000  C
  C20      1.0000 0.15120  0.88100  0.31690  Biso   1.000  C
  C21      1.0000 0.73500  0.04010  0.64250  Biso   1.000  C
  C22      1.0000 0.26500  0.95990  0.35750  Biso   1.000  C
  C23      1.0000 0.76120  0.05350  0.52140  Biso   1.000  C
  C24      1.0000 0.23880  0.94650  0.47860  Biso   1.000  C
  C25      1.0000 0.89580  0.14540  0.43920  Biso   1.000  C
  C26      1.0000 0.10420  0.85460  0.56080  Biso   1.000  C
  C27      1.0000 0.01290  0.21610  0.48420  Biso   1.000  C
  C28      1.0000 0.98710  0.78390  0.51580  Biso   1.000  C
  C29      1.0000 0.99280  0.20270  0.60510  Biso   1.000  C
  C30      1.0000 0.00720  0.79730  0.39490  Biso   1.000  C
  C31      1.0000 0.90940  0.17220  0.30270  Biso   1.000  C
  C32      1.0000 0.09060  0.82780  0.69730  Biso   1.000  C
  C33      1.0000 0.22300  0.24150  0.00170  Biso   1.000  C
  C34      1.0000 0.77700  0.75850  0.99830  Biso   1.000  C
  Br1      1.0000 0.74242  0.48405  0.89418  Biso   1.000  Br
  Br2      1.0000 0.25758  0.51595  0.10582  Biso   1.000  Br
  Br3      1.0000 0.71903  0.02510  0.11469  Biso   1.000  Br
  Br4      1.0000 0.28097  0.97490  0.88531  Biso   1.000  Br
  Cu1      1.0000 0.77290  0.25617  0.00778  Biso   1.000  Cu
  Cu2      1.0000 0.22710  0.74383  0.99222  Biso   1.000  Cu
  H1       1.0000 0.58090  0.39160  0.73690  Biso   1.000  H
  H2       1.0000 0.41910  0.60840  0.26310  Biso   1.000  H
  H3       1.0000 0.49260  0.25190  0.75580  Biso   1.000  H
  H4       1.0000 0.50740  0.74810  0.24420  Biso   1.000  H
  H5       1.0000 0.40680  0.20630  0.59990  Biso   1.000  H
  H6       1.0000 0.59320  0.79370  0.40010  Biso   1.000  H
  H7       1.0000 0.44570  0.25190  0.36860  Biso   1.000  H
  H8       1.0000 0.55430  0.74810  0.63140  Biso   1.000  H
  H9       1.0000 0.88170  0.52660  0.33320  Biso   1.000  H
  H10      1.0000 0.11830  0.47340  0.66680  Biso   1.000  H
  H11      1.0000 0.83210  0.50270  0.52980  Biso   1.000  H
  H12      1.0000 0.16790  0.49730  0.47020  Biso   1.000  H
  H13      1.0000 0.63280  0.43360  0.14390  Biso   1.000  H
  H14      1.0000 0.36720  0.56640  0.85610  Biso   1.000  H
  H15      1.0000 0.83620  0.44610  0.17600  Biso   1.000  H
  H16      1.0000 0.16380  0.55390  0.82400  Biso   1.000  H
  H17      1.0000 0.91470  0.08960  0.87050  Biso   1.000  H
  H18      1.0000 0.08530  0.91040  0.12950  Biso   1.000  H
  H19      1.0000 0.67740  0.04760  0.86380  Biso   1.000  H
  H20      1.0000 0.32260  0.95240  0.13620  Biso   1.000  H
  H21      1.0000 0.08590  0.25360  0.64360  Biso   1.000  H
  H22      1.0000 0.91410  0.74640  0.35640  Biso   1.000  H
  H23      1.0000 0.62980  0.97270  0.71050  Biso   1.000  H
  H24      1.0000 0.37020  0.02730  0.28950  Biso   1.000  H
  H25      1.0000 0.10980  0.28020  0.42340  Biso   1.000  H
  H26      1.0000 0.89020  0.71980  0.57660  Biso   1.000  H
  H27      1.0000 0.67610  0.00390  0.48280  Biso   1.000  H
  H28      1.0000 0.32390  0.99610  0.51720  Biso   1.000  H
  H29      1.0000 0.01680  0.24630  0.25830  Biso   1.000  H
  H30      1.0000 0.98320  0.75370  0.74170  Biso   1.000  H
  H31      1.0000 0.92100  0.10580  0.28510  Biso   1.000  H
  H32      1.0000 0.07900  0.89420  0.71490  Biso   1.000  H
  H33      1.0000 0.09760  0.36960  0.02990  Biso   1.000  H
  H34      1.0000 0.90240  0.63040  0.97010  Biso   1.000  H
  H35      1.0000 0.28740  0.20730  0.07850  Biso   1.000  H
  H36      1.0000 0.71260  0.79270  0.92150  Biso   1.000  H
  H37      1.0000 0.17860  0.17150  0.98230  Biso   1.000  H
  H38      1.0000 0.82140  0.82850  0.01770  Biso   1.000  H
  H39      1.0000 0.30690  0.30220  0.93460  Biso   1.000  H
  H40      1.0000 0.69310  0.69780  0.06540  Biso   1.000  H
