data_image0
_cell_length_a       17.527
_cell_length_b       8.876
_cell_length_c       21.165
_cell_angle_alpha    90
_cell_angle_beta     106.71
_cell_angle_gamma    90

_symmetry_space_group_name_H-M    "P 1"
_symmetry_int_tables_number       1

loop_
  _symmetry_equiv_pos_as_xyz
  'x, y, z'

loop_
  _atom_site_label
  _atom_site_occupancy
  _atom_site_fract_x
  _atom_site_fract_y
  _atom_site_fract_z
  _atom_site_thermal_displace_type
  _atom_site_B_iso_or_equiv
  _atom_site_type_symbol
  Cu1      1.0000 0.88310  0.89940  0.27040  Biso   1.000  Cu
  Cu2      1.0000 0.11690  0.39940  0.22960  Biso   1.000  Cu
  Cu3      1.0000 0.11690  0.10060  0.72960  Biso   1.000  Cu
  Cu4      1.0000 0.88310  0.60060  0.77040  Biso   1.000  Cu
  Ni1      1.0000 0.25440  0.23540  0.38320  Biso   1.000  Ni
  Ni2      1.0000 0.74560  0.73540  0.11680  Biso   1.000  Ni
  Ni3      1.0000 0.74560  0.76460  0.61680  Biso   1.000  Ni
  Ni4      1.0000 0.25440  0.26460  0.88320  Biso   1.000  Ni
  O1       1.0000 0.00070  0.76440  0.26630  Biso   1.000  O
  O2       1.0000 0.99930  0.26440  0.23370  Biso   1.000  O
  O3       1.0000 0.99930  0.23560  0.73370  Biso   1.000  O
  O4       1.0000 0.00070  0.73560  0.76630  Biso   1.000  O
  O5       1.0000 0.10960  0.16780  0.06490  Biso   1.000  O
  O6       1.0000 0.89040  0.66780  0.43510  Biso   1.000  O
  O7       1.0000 0.89040  0.83220  0.93510  Biso   1.000  O
  O8       1.0000 0.10960  0.33220  0.56490  Biso   1.000  O
  O9       1.0000 0.30740  0.33500  0.47060  Biso   1.000  O
  O10      1.0000 0.69260  0.83500  0.02940  Biso   1.000  O
  O11      1.0000 0.69260  0.66500  0.52940  Biso   1.000  O
  O12      1.0000 0.30740  0.16500  0.97060  Biso   1.000  O
  O13      1.0000 0.22360  0.06080  0.43150  Biso   1.000  O
  O14      1.0000 0.77640  0.56080  0.06850  Biso   1.000  O
  O15      1.0000 0.77640  0.93920  0.56850  Biso   1.000  O
  O16      1.0000 0.22360  0.43920  0.93150  Biso   1.000  O
  O17      1.0000 0.28910  0.40110  0.33300  Biso   1.000  O
  O18      1.0000 0.71090  0.90110  0.16700  Biso   1.000  O
  O19      1.0000 0.71090  0.59890  0.66700  Biso   1.000  O
  O20      1.0000 0.28910  0.09890  0.83300  Biso   1.000  O
  O21      1.0000 0.35790  0.12560  0.38990  Biso   1.000  O
  O22      1.0000 0.64210  0.62560  0.11010  Biso   1.000  O
  O23      1.0000 0.64210  0.87440  0.61010  Biso   1.000  O
  O24      1.0000 0.35790  0.37440  0.88990  Biso   1.000  O
  N1       1.0000 0.15430  0.36180  0.37880  Biso   1.000  N
  N2       1.0000 0.84570  0.86180  0.12120  Biso   1.000  N
  N3       1.0000 0.84570  0.63820  0.62120  Biso   1.000  N
  N4       1.0000 0.15430  0.13820  0.87880  Biso   1.000  N
  N5       1.0000 0.12360  0.44650  0.32640  Biso   1.000  N
  N6       1.0000 0.87640  0.94650  0.17360  Biso   1.000  N
  N7       1.0000 0.87640  0.55350  0.67360  Biso   1.000  N
  N8       1.0000 0.12360  0.05350  0.82640  Biso   1.000  N
  N9       1.0000 0.06390  0.59240  0.21500  Biso   1.000  N
  N10      1.0000 0.93610  0.09240  0.28500  Biso   1.000  N
  N11      1.0000 0.93610  0.40760  0.78500  Biso   1.000  N
  N12      1.0000 0.06390  0.90760  0.71500  Biso   1.000  N
  N13      1.0000 0.20410  0.11840  0.29490  Biso   1.000  N
  N14      1.0000 0.79590  0.61840  0.20510  Biso   1.000  N
  N15      1.0000 0.79590  0.88160  0.70510  Biso   1.000  N
  N16      1.0000 0.20410  0.38160  0.79490  Biso   1.000  N
  N17      1.0000 0.17180  0.19540  0.23950  Biso   1.000  N
  N18      1.0000 0.82820  0.69540  0.26050  Biso   1.000  N
  N19      1.0000 0.82820  0.80460  0.76050  Biso   1.000  N
  N20      1.0000 0.17180  0.30460  0.73950  Biso   1.000  N
  N21      1.0000 0.10650  0.36240  0.13680  Biso   1.000  N
  N22      1.0000 0.89350  0.86240  0.36320  Biso   1.000  N
  N23      1.0000 0.89350  0.63760  0.86320  Biso   1.000  N
  N24      1.0000 0.10650  0.13760  0.63680  Biso   1.000  N
  C1       1.0000 0.13470  0.39250  0.43320  Biso   1.000  C
  C2       1.0000 0.86530  0.89250  0.06680  Biso   1.000  C
  C3       1.0000 0.86530  0.60750  0.56680  Biso   1.000  C
  C4       1.0000 0.13470  0.10750  0.93320  Biso   1.000  C
  C5       1.0000 0.08670  0.51240  0.43960  Biso   1.000  C
  C6       1.0000 0.91330  0.01240  0.06040  Biso   1.000  C
  C7       1.0000 0.91330  0.48760  0.56040  Biso   1.000  C
  C8       1.0000 0.08670  0.98760  0.93960  Biso   1.000  C
  C9       1.0000 0.06050  0.60340  0.38700  Biso   1.000  C
  C10      1.0000 0.93950  0.10340  0.11300  Biso   1.000  C
  C11      1.0000 0.93950  0.39660  0.61300  Biso   1.000  C
  C12      1.0000 0.06050  0.89660  0.88700  Biso   1.000  C
  C13      1.0000 0.07860  0.56450  0.32970  Biso   1.000  C
  C14      1.0000 0.92140  0.06450  0.17030  Biso   1.000  C
  C15      1.0000 0.92140  0.43550  0.67030  Biso   1.000  C
  C16      1.0000 0.07860  0.93550  0.82970  Biso   1.000  C
  C17      1.0000 0.04240  0.65220  0.26510  Biso   1.000  C
  C18      1.0000 0.95760  0.15220  0.23490  Biso   1.000  C
  C19      1.0000 0.95760  0.34780  0.73490  Biso   1.000  C
  C20      1.0000 0.04240  0.84780  0.76510  Biso   1.000  C
  C21      1.0000 0.02930  0.66230  0.15000  Biso   1.000  C
  C22      1.0000 0.97070  0.16230  0.35000  Biso   1.000  C
  C23      1.0000 0.97070  0.33770  0.85000  Biso   1.000  C
  C24      1.0000 0.02930  0.83770  0.65000  Biso   1.000  C
  C25      1.0000 0.22140  0.97430  0.29190  Biso   1.000  C
  C26      1.0000 0.77860  0.47430  0.20810  Biso   1.000  C
  C27      1.0000 0.77860  0.02570  0.70810  Biso   1.000  C
  C28      1.0000 0.22140  0.52570  0.79190  Biso   1.000  C
  C29      1.0000 0.20780  0.89810  0.23460  Biso   1.000  C
  C30      1.0000 0.79220  0.39810  0.26540  Biso   1.000  C
  C31      1.0000 0.79220  0.10190  0.76540  Biso   1.000  C
  C32      1.0000 0.20780  0.60190  0.73460  Biso   1.000  C
  C33      1.0000 0.17980  0.97780  0.17650  Biso   1.000  C
  C34      1.0000 0.82020  0.47780  0.32350  Biso   1.000  C
  C35      1.0000 0.82020  0.02220  0.82350  Biso   1.000  C
  C36      1.0000 0.17980  0.52220  0.67650  Biso   1.000  C
  C37      1.0000 0.16100  0.12970  0.18190  Biso   1.000  C
  C38      1.0000 0.83900  0.62970  0.31810  Biso   1.000  C
  C39      1.0000 0.83900  0.87030  0.81810  Biso   1.000  C
  C40      1.0000 0.16100  0.37030  0.68190  Biso   1.000  C
  C41      1.0000 0.12230  0.22430  0.12030  Biso   1.000  C
  C42      1.0000 0.87770  0.72430  0.37970  Biso   1.000  C
  C43      1.0000 0.87770  0.77570  0.87970  Biso   1.000  C
  C44      1.0000 0.12230  0.27570  0.62030  Biso   1.000  C
  C45      1.0000 0.06750  0.45890  0.08050  Biso   1.000  C
  C46      1.0000 0.93250  0.95890  0.41950  Biso   1.000  C
  C47      1.0000 0.93250  0.54110  0.91950  Biso   1.000  C
  C48      1.0000 0.06750  0.04110  0.58050  Biso   1.000  C
  C49      1.0000 0.07120  0.62280  0.09980  Biso   1.000  C
  C50      1.0000 0.92880  0.12280  0.40020  Biso   1.000  C
  C51      1.0000 0.92880  0.37720  0.90020  Biso   1.000  C
  C52      1.0000 0.07120  0.87720  0.59980  Biso   1.000  C
  C53      1.0000 0.32380  0.26650  0.52590  Biso   1.000  C
  C54      1.0000 0.67620  0.76650  0.97410  Biso   1.000  C
  C55      1.0000 0.67620  0.73350  0.47410  Biso   1.000  C
  C56      1.0000 0.32380  0.23350  0.02590  Biso   1.000  C
  C57      1.0000 0.30130  0.12240  0.53830  Biso   1.000  C
  C58      1.0000 0.69870  0.62240  0.96170  Biso   1.000  C
  C59      1.0000 0.69870  0.87760  0.46170  Biso   1.000  C
  C60      1.0000 0.30130  0.37760  0.03830  Biso   1.000  C
  C61      1.0000 0.25650  0.03150  0.48990  Biso   1.000  C
  C62      1.0000 0.74350  0.53150  0.01010  Biso   1.000  C
  C63      1.0000 0.74350  0.96850  0.51010  Biso   1.000  C
  C64      1.0000 0.25650  0.46850  0.98990  Biso   1.000  C
  C65      1.0000 0.36830  0.36330  0.58250  Biso   1.000  C
  C66      1.0000 0.63170  0.86330  0.91750  Biso   1.000  C
  C67      1.0000 0.63170  0.63670  0.41750  Biso   1.000  C
  C68      1.0000 0.36830  0.13670  0.08250  Biso   1.000  C
  F1       1.0000 0.43190  0.42060  0.57590  Biso   1.000  F
  F2       1.0000 0.56810  0.92060  0.92410  Biso   1.000  F
  F3       1.0000 0.56810  0.57940  0.42410  Biso   1.000  F
  F4       1.0000 0.43190  0.07940  0.07590  Biso   1.000  F
  F5       1.0000 0.39090  0.30040  0.63860  Biso   1.000  F
  F6       1.0000 0.60910  0.80040  0.86140  Biso   1.000  F
  F7       1.0000 0.60910  0.69960  0.36140  Biso   1.000  F
  F8       1.0000 0.39090  0.19960  0.13860  Biso   1.000  F
  F9       1.0000 0.33030  0.47740  0.59310  Biso   1.000  F
  F10      1.0000 0.66970  0.97740  0.90690  Biso   1.000  F
  F11      1.0000 0.66970  0.52260  0.40690  Biso   1.000  F
  F12      1.0000 0.33030  0.02260  0.09310  Biso   1.000  F
  C69      1.0000 0.24040  0.87000  0.50660  Biso   1.000  C
  C70      1.0000 0.75960  0.37000  0.99340  Biso   1.000  C
  C71      1.0000 0.75960  0.13000  0.49340  Biso   1.000  C
  C72      1.0000 0.24040  0.63000  0.00660  Biso   1.000  C
  F13      1.0000 0.16390  0.83790  0.48950  Biso   1.000  F
  F14      1.0000 0.83610  0.33790  0.01050  Biso   1.000  F
  F15      1.0000 0.83610  0.16210  0.51050  Biso   1.000  F
  F16      1.0000 0.16390  0.66210  0.98950  Biso   1.000  F
  F17      1.0000 0.26690  0.83980  0.57010  Biso   1.000  F
  F18      1.0000 0.73310  0.33980  0.92990  Biso   1.000  F
  F19      1.0000 0.73310  0.16020  0.42990  Biso   1.000  F
  F20      1.0000 0.26690  0.66020  0.07010  Biso   1.000  F
  F21      1.0000 0.27430  0.77340  0.47560  Biso   1.000  F
  F22      1.0000 0.72570  0.27340  0.02440  Biso   1.000  F
  F23      1.0000 0.72570  0.22660  0.52440  Biso   1.000  F
  F24      1.0000 0.27430  0.72660  0.97560  Biso   1.000  F
  C73      1.0000 0.35340  0.40810  0.32070  Biso   1.000  C
  C74      1.0000 0.64660  0.90810  0.17930  Biso   1.000  C
  C75      1.0000 0.64660  0.59190  0.67930  Biso   1.000  C
  C76      1.0000 0.35340  0.09190  0.82070  Biso   1.000  C
  C77      1.0000 0.41420  0.30500  0.33400  Biso   1.000  C
  C78      1.0000 0.58580  0.80500  0.16600  Biso   1.000  C
  C79      1.0000 0.58580  0.69500  0.66600  Biso   1.000  C
  C80      1.0000 0.41420  0.19500  0.83400  Biso   1.000  C
  C81      1.0000 0.41300  0.17670  0.36770  Biso   1.000  C
  C82      1.0000 0.58700  0.67670  0.13230  Biso   1.000  C
  C83      1.0000 0.58700  0.82330  0.63230  Biso   1.000  C
  C84      1.0000 0.41300  0.32330  0.86770  Biso   1.000  C
  C85      1.0000 0.36110  0.55080  0.28310  Biso   1.000  C
  C86      1.0000 0.63890  0.05080  0.21690  Biso   1.000  C
  C87      1.0000 0.63890  0.44920  0.71690  Biso   1.000  C
  C88      1.0000 0.36110  0.94920  0.78310  Biso   1.000  C
  F25      1.0000 0.43020  0.56430  0.27300  Biso   1.000  F
  F26      1.0000 0.56980  0.06430  0.22700  Biso   1.000  F
  F27      1.0000 0.56980  0.43570  0.72700  Biso   1.000  F
  F28      1.0000 0.43020  0.93570  0.77300  Biso   1.000  F
  F29      1.0000 0.30950  0.55440  0.22670  Biso   1.000  F
  F30      1.0000 0.69050  0.05440  0.27330  Biso   1.000  F
  F31      1.0000 0.69050  0.44560  0.77330  Biso   1.000  F
  F32      1.0000 0.30950  0.94560  0.72670  Biso   1.000  F
  F33      1.0000 0.34970  0.67160  0.31270  Biso   1.000  F
  F34      1.0000 0.65030  0.17160  0.18730  Biso   1.000  F
  F35      1.0000 0.65030  0.32840  0.68730  Biso   1.000  F
  F36      1.0000 0.34970  0.82840  0.81270  Biso   1.000  F
  C89      1.0000 0.47880  0.06480  0.37460  Biso   1.000  C
  C90      1.0000 0.52120  0.56480  0.12540  Biso   1.000  C
  C91      1.0000 0.52120  0.93520  0.62540  Biso   1.000  C
  C92      1.0000 0.47880  0.43520  0.87460  Biso   1.000  C
  F37      1.0000 0.49630  0.99720  0.42750  Biso   1.000  F
  F38      1.0000 0.50370  0.49720  0.07250  Biso   1.000  F
  F39      1.0000 0.50370  0.00280  0.57250  Biso   1.000  F
  F40      1.0000 0.49630  0.50280  0.92750  Biso   1.000  F
  F41      1.0000 0.54280  0.11690  0.37050  Biso   1.000  F
  F42      1.0000 0.45720  0.61690  0.12950  Biso   1.000  F
  F43      1.0000 0.45720  0.88310  0.62950  Biso   1.000  F
  F44      1.0000 0.54280  0.38310  0.87050  Biso   1.000  F
  F45      1.0000 0.46590  0.96300  0.33290  Biso   1.000  F
  F46      1.0000 0.53410  0.46300  0.16710  Biso   1.000  F
  F47      1.0000 0.53410  0.03700  0.66710  Biso   1.000  F
  F48      1.0000 0.46590  0.53700  0.83290  Biso   1.000  F
