data_image0
_cell_length_a       5.7467
_cell_length_b       17.9631
_cell_length_c       20.3944
_cell_angle_alpha    90
_cell_angle_beta     90
_cell_angle_gamma    90

_symmetry_space_group_name_H-M    "P 1"
_symmetry_int_tables_number       1

loop_
  _symmetry_equiv_pos_as_xyz
  'x, y, z'

loop_
  _atom_site_label
  _atom_site_occupancy
  _atom_site_fract_x
  _atom_site_fract_y
  _atom_site_fract_z
  _atom_site_thermal_displace_type
  _atom_site_B_iso_or_equiv
  _atom_site_type_symbol
  Cu1      1.0000 0.64423  0.99617  0.79151  Biso   1.000  Cu
  Cu2      1.0000 0.85577  0.00383  0.29151  Biso   1.000  Cu
  Cu3      1.0000 0.35577  0.49617  0.70849  Biso   1.000  Cu
  Cu4      1.0000 0.14423  0.50383  0.20849  Biso   1.000  Cu
  O1       1.0000 0.54160  0.04654  0.71096  Biso   1.000  O
  O2       1.0000 0.95840  0.95346  0.21096  Biso   1.000  O
  O3       1.0000 0.45840  0.54654  0.78904  Biso   1.000  O
  O4       1.0000 0.04160  0.45346  0.28904  Biso   1.000  O
  O5       1.0000 0.80130  0.96765  0.67106  Biso   1.000  O
  O6       1.0000 0.69870  0.03235  0.17106  Biso   1.000  O
  O7       1.0000 0.19870  0.46765  0.82894  Biso   1.000  O
  O8       1.0000 0.30130  0.53235  0.32894  Biso   1.000  O
  O9       1.0000 0.82420  0.89712  0.53668  Biso   1.000  O
  O10      1.0000 0.67580  0.10288  0.03668  Biso   1.000  O
  O11      1.0000 0.17580  0.39712  0.96332  Biso   1.000  O
  O12      1.0000 0.32420  0.60288  0.46332  Biso   1.000  O
  O13      1.0000 0.11250  0.97677  0.55613  Biso   1.000  O
  O14      1.0000 0.38750  0.02323  0.05613  Biso   1.000  O
  O15      1.0000 0.88750  0.47677  0.94387  Biso   1.000  O
  O16      1.0000 0.61250  0.52323  0.44387  Biso   1.000  O
  H1       1.0000 0.18980  0.93840  0.55750  Biso   1.000  H
  H2       1.0000 0.31020  0.06160  0.05750  Biso   1.000  H
  H3       1.0000 0.81020  0.43840  0.94250  Biso   1.000  H
  H4       1.0000 0.68980  0.56160  0.44250  Biso   1.000  H
  O17      1.0000 0.95720  0.98612  0.42067  Biso   1.000  O
  O18      1.0000 0.54280  0.01388  0.92067  Biso   1.000  O
  O19      1.0000 0.04280  0.48612  0.07933  Biso   1.000  O
  O20      1.0000 0.45720  0.51388  0.57933  Biso   1.000  O
  O21      1.0000 0.72220  0.05970  0.36453  Biso   1.000  O
  O22      1.0000 0.77780  0.94030  0.86453  Biso   1.000  O
  O23      1.0000 0.27780  0.55970  0.13547  Biso   1.000  O
  O24      1.0000 0.22220  0.44030  0.63547  Biso   1.000  O
  O25      1.0000 0.12390  0.20241  0.47180  Biso   1.000  O
  O26      1.0000 0.37610  0.79759  0.97180  Biso   1.000  O
  O27      1.0000 0.87610  0.70241  0.02820  Biso   1.000  O
  O28      1.0000 0.62390  0.29759  0.52820  Biso   1.000  O
  O29      1.0000 0.12800  0.21599  0.57640  Biso   1.000  O
  O30      1.0000 0.37200  0.78401  0.07640  Biso   1.000  O
  O31      1.0000 0.87200  0.71599  0.92360  Biso   1.000  O
  O32      1.0000 0.62800  0.28401  0.42360  Biso   1.000  O
  N1       1.0000 0.20270  0.18854  0.52616  Biso   1.000  N
  N2       1.0000 0.29730  0.81146  0.02616  Biso   1.000  N
  N3       1.0000 0.79730  0.68854  0.97384  Biso   1.000  N
  N4       1.0000 0.70270  0.31146  0.47384  Biso   1.000  N
  N5       1.0000 0.38920  0.92110  0.78148  Biso   1.000  N
  N6       1.0000 0.11080  0.07890  0.28148  Biso   1.000  N
  N7       1.0000 0.61080  0.42110  0.71852  Biso   1.000  N
  N8       1.0000 0.88920  0.57890  0.21852  Biso   1.000  N
  N9       1.0000 0.15650  0.84509  0.73080  Biso   1.000  N
  N10      1.0000 0.34350  0.15491  0.23080  Biso   1.000  N
  N11      1.0000 0.84350  0.34509  0.76920  Biso   1.000  N
  N12      1.0000 0.65650  0.65491  0.26920  Biso   1.000  N
  N13      1.0000 0.22030  0.80861  0.78665  Biso   1.000  N
  N14      1.0000 0.27970  0.19139  0.28665  Biso   1.000  N
  N15      1.0000 0.77970  0.30861  0.71335  Biso   1.000  N
  N16      1.0000 0.72030  0.69139  0.21335  Biso   1.000  N
  N17      1.0000 0.85630  0.65906  0.72423  Biso   1.000  N
  N18      1.0000 0.64370  0.34094  0.22423  Biso   1.000  N
  N19      1.0000 0.14370  0.15906  0.77577  Biso   1.000  N
  N20      1.0000 0.35630  0.84094  0.27577  Biso   1.000  N
  N21      1.0000 0.75800  0.62383  0.67207  Biso   1.000  N
  N22      1.0000 0.74200  0.37617  0.17207  Biso   1.000  N
  N23      1.0000 0.24200  0.12383  0.82793  Biso   1.000  N
  N24      1.0000 0.25800  0.87617  0.32793  Biso   1.000  N
  N25      1.0000 0.09290  0.56893  0.70135  Biso   1.000  N
  N26      1.0000 0.40710  0.43107  0.20135  Biso   1.000  N
  N27      1.0000 0.90710  0.06893  0.79865  Biso   1.000  N
  N28      1.0000 0.59290  0.93107  0.29865  Biso   1.000  N
  C1       1.0000 0.61610  0.05116  0.59707  Biso   1.000  C
  C2       1.0000 0.88390  0.94884  0.09707  Biso   1.000  C
  C3       1.0000 0.38390  0.55116  0.90293  Biso   1.000  C
  C4       1.0000 0.11610  0.44884  0.40293  Biso   1.000  C
  C5       1.0000 0.73330  0.02623  0.54076  Biso   1.000  C
  C6       1.0000 0.76670  0.97377  0.04076  Biso   1.000  C
  C7       1.0000 0.26670  0.52623  0.95924  Biso   1.000  C
  C8       1.0000 0.23330  0.47377  0.45924  Biso   1.000  C
  C9       1.0000 0.67880  0.05796  0.47982  Biso   1.000  C
  C10      1.0000 0.82120  0.94204  0.97982  Biso   1.000  C
  C11      1.0000 0.32120  0.55796  0.02018  Biso   1.000  C
  C12      1.0000 0.17880  0.44204  0.52018  Biso   1.000  C
  C13      1.0000 0.50860  0.11230  0.47500  Biso   1.000  C
  C14      1.0000 0.99140  0.88770  0.97500  Biso   1.000  C
  C15      1.0000 0.49140  0.61230  0.02500  Biso   1.000  C
  C16      1.0000 0.00860  0.38770  0.52500  Biso   1.000  C
  H5       1.0000 0.47200  0.13320  0.43460  Biso   1.000  H
  H6       1.0000 0.02800  0.86680  0.93460  Biso   1.000  H
  H7       1.0000 0.52800  0.63320  0.06540  Biso   1.000  H
  H8       1.0000 0.97200  0.36680  0.56540  Biso   1.000  H
  C17      1.0000 0.39480  0.13472  0.53067  Biso   1.000  C
  C18      1.0000 0.10520  0.86528  0.03067  Biso   1.000  C
  C19      1.0000 0.60520  0.63472  0.96933  Biso   1.000  C
  C20      1.0000 0.89480  0.36528  0.46933  Biso   1.000  C
  C21      1.0000 0.44740  0.10643  0.59151  Biso   1.000  C
  C22      1.0000 0.05260  0.89357  0.09151  Biso   1.000  C
  C23      1.0000 0.55260  0.60643  0.90849  Biso   1.000  C
  C24      1.0000 0.94740  0.39357  0.40849  Biso   1.000  C
  H9       1.0000 0.37100  0.12400  0.62860  Biso   1.000  H
  H10      1.0000 0.12900  0.87600  0.12860  Biso   1.000  H
  H11      1.0000 0.62900  0.62400  0.87140  Biso   1.000  H
  H12      1.0000 0.87100  0.37600  0.37140  Biso   1.000  H
  C25      1.0000 0.66060  0.01853  0.66372  Biso   1.000  C
  C26      1.0000 0.83940  0.98147  0.16372  Biso   1.000  C
  C27      1.0000 0.33940  0.51853  0.83628  Biso   1.000  C
  C28      1.0000 0.16060  0.48147  0.33628  Biso   1.000  C
  C29      1.0000 0.89540  0.96024  0.54442  Biso   1.000  C
  C30      1.0000 0.60460  0.03976  0.04442  Biso   1.000  C
  C31      1.0000 0.10460  0.46024  0.95558  Biso   1.000  C
  C32      1.0000 0.39540  0.53976  0.45558  Biso   1.000  C
  C33      1.0000 0.80040  0.03224  0.41797  Biso   1.000  C
  C34      1.0000 0.69960  0.96776  0.91797  Biso   1.000  C
  C35      1.0000 0.19960  0.53224  0.08203  Biso   1.000  C
  C36      1.0000 0.30040  0.46776  0.58203  Biso   1.000  C
  C37      1.0000 0.35790  0.85670  0.81526  Biso   1.000  C
  C38      1.0000 0.14210  0.14330  0.31526  Biso   1.000  C
  C39      1.0000 0.64210  0.35670  0.68474  Biso   1.000  C
  C40      1.0000 0.85790  0.64330  0.18474  Biso   1.000  C
  H13      1.0000 0.42860  0.84750  0.85550  Biso   1.000  H
  H14      1.0000 0.07140  0.15250  0.35550  Biso   1.000  H
  H15      1.0000 0.57140  0.34750  0.64450  Biso   1.000  H
  H16      1.0000 0.92860  0.65250  0.14450  Biso   1.000  H
  C41      1.0000 0.25710  0.91079  0.72854  Biso   1.000  C
  C42      1.0000 0.24290  0.08921  0.22854  Biso   1.000  C
  C43      1.0000 0.74290  0.41079  0.77146  Biso   1.000  C
  C44      1.0000 0.75710  0.58921  0.27146  Biso   1.000  C
  H17      1.0000 0.23870  0.94510  0.69480  Biso   1.000  H
  H18      1.0000 0.26130  0.05490  0.19480  Biso   1.000  H
  H19      1.0000 0.76130  0.44510  0.80520  Biso   1.000  H
  H20      1.0000 0.73870  0.55490  0.30520  Biso   1.000  H
  C45      1.0000 0.01280  0.80910  0.68064  Biso   1.000  C
  C46      1.0000 0.48720  0.19090  0.18064  Biso   1.000  C
  C47      1.0000 0.98720  0.30910  0.81936  Biso   1.000  C
  C48      1.0000 0.51280  0.69090  0.31936  Biso   1.000  C
  H21      1.0000 0.08850  0.76340  0.66690  Biso   1.000  H
  H22      1.0000 0.41150  0.23660  0.16690  Biso   1.000  H
  H23      1.0000 0.91150  0.26340  0.83310  Biso   1.000  H
  H24      1.0000 0.58850  0.73660  0.33310  Biso   1.000  H
  H25      1.0000 0.00350  0.84160  0.64270  Biso   1.000  H
  H26      1.0000 0.49650  0.15840  0.14270  Biso   1.000  H
  H27      1.0000 0.99650  0.34160  0.85730  Biso   1.000  H
  H28      1.0000 0.50350  0.65840  0.35730  Biso   1.000  H
  C49      1.0000 0.76790  0.79088  0.70339  Biso   1.000  C
  C50      1.0000 0.73210  0.20912  0.20339  Biso   1.000  C
  C51      1.0000 0.23210  0.29088  0.79661  Biso   1.000  C
  C52      1.0000 0.26790  0.70912  0.29661  Biso   1.000  C
  H29      1.0000 0.70220  0.83480  0.72390  Biso   1.000  H
  H30      1.0000 0.79780  0.16520  0.22390  Biso   1.000  H
  H31      1.0000 0.29780  0.33480  0.77610  Biso   1.000  H
  H32      1.0000 0.20220  0.66520  0.27610  Biso   1.000  H
  H33      1.0000 0.67370  0.77950  0.66520  Biso   1.000  H
  H34      1.0000 0.82630  0.22050  0.16520  Biso   1.000  H
  H35      1.0000 0.32630  0.27950  0.83480  Biso   1.000  H
  H36      1.0000 0.17370  0.72050  0.33480  Biso   1.000  H
  C53      1.0000 0.74970  0.72641  0.75121  Biso   1.000  C
  C54      1.0000 0.75030  0.27359  0.25121  Biso   1.000  C
  C55      1.0000 0.25030  0.22641  0.74879  Biso   1.000  C
  C56      1.0000 0.24970  0.77359  0.24879  Biso   1.000  C
  H37      1.0000 0.82680  0.73960  0.79190  Biso   1.000  H
  H38      1.0000 0.67320  0.26040  0.29190  Biso   1.000  H
  H39      1.0000 0.17320  0.23960  0.70810  Biso   1.000  H
  H40      1.0000 0.32680  0.76040  0.20810  Biso   1.000  H
  H41      1.0000 0.58720  0.71680  0.76090  Biso   1.000  H
  H42      1.0000 0.91280  0.28320  0.26090  Biso   1.000  H
  H43      1.0000 0.41280  0.21680  0.73910  Biso   1.000  H
  H44      1.0000 0.08720  0.78320  0.23910  Biso   1.000  H
  C57      1.0000 0.05160  0.62648  0.74079  Biso   1.000  C
  C58      1.0000 0.44840  0.37352  0.24079  Biso   1.000  C
  C59      1.0000 0.94840  0.12648  0.75921  Biso   1.000  C
  C60      1.0000 0.55160  0.87352  0.25921  Biso   1.000  C
  H45      1.0000 0.14740  0.64140  0.77510  Biso   1.000  H
  H46      1.0000 0.35260  0.35860  0.27510  Biso   1.000  H
  H47      1.0000 0.85260  0.14140  0.72490  Biso   1.000  H
  H48      1.0000 0.64740  0.85860  0.22490  Biso   1.000  H
  C61      1.0000 0.90580  0.57026  0.66010  Biso   1.000  C
  C62      1.0000 0.59420  0.42974  0.16010  Biso   1.000  C
  C63      1.0000 0.09420  0.07026  0.83990  Biso   1.000  C
  C64      1.0000 0.40580  0.92974  0.33990  Biso   1.000  C
  H49      1.0000 0.88540  0.53600  0.62640  Biso   1.000  H
  H50      1.0000 0.61460  0.46400  0.12640  Biso   1.000  H
  H51      1.0000 0.11460  0.03600  0.87360  Biso   1.000  H
  H52      1.0000 0.38540  0.96400  0.37360  Biso   1.000  H
  O33      1.0000 0.37850  0.86046  0.56338  Biso   1.000  O
  O34      1.0000 0.12150  0.13954  0.06338  Biso   1.000  O
  O35      1.0000 0.62150  0.36046  0.93662  Biso   1.000  O
  O36      1.0000 0.87850  0.63954  0.43662  Biso   1.000  O
  H53      1.0000 0.51920  0.86970  0.55350  Biso   1.000  H
  H54      1.0000 0.98080  0.13030  0.05350  Biso   1.000  H
  H55      1.0000 0.48080  0.36970  0.94650  Biso   1.000  H
  H56      1.0000 0.01920  0.63030  0.44650  Biso   1.000  H
  H57      1.0000 0.36140  0.81380  0.55830  Biso   1.000  H
  H58      1.0000 0.13860  0.18620  0.05830  Biso   1.000  H
  H59      1.0000 0.63860  0.31380  0.94170  Biso   1.000  H
  H60      1.0000 0.86140  0.68620  0.44170  Biso   1.000  H
  O37      1.0000 0.88860  0.80231  0.41919  Biso   1.000  O
  O38      1.0000 0.61140  0.19769  0.91919  Biso   1.000  O
  O39      1.0000 0.11140  0.30231  0.08081  Biso   1.000  O
  O40      1.0000 0.38860  0.69769  0.58081  Biso   1.000  O
  H61      1.0000 0.89070  0.83500  0.44930  Biso   1.000  H
  H62      1.0000 0.60930  0.16500  0.94930  Biso   1.000  H
  H63      1.0000 0.10930  0.33500  0.05070  Biso   1.000  H
  H64      1.0000 0.39070  0.66500  0.55070  Biso   1.000  H
  H65      1.0000 0.95010  0.82170  0.38540  Biso   1.000  H
  H66      1.0000 0.54990  0.17830  0.88540  Biso   1.000  H
  H67      1.0000 0.04990  0.32170  0.11460  Biso   1.000  H
  H68      1.0000 0.45010  0.67830  0.61460  Biso   1.000  H
