data_image0
_cell_length_a       29.436
_cell_length_b       5.1576
_cell_length_c       16.398
_cell_angle_alpha    90
_cell_angle_beta     91.21
_cell_angle_gamma    90

_symmetry_space_group_name_H-M    "P 1"
_symmetry_int_tables_number       1

loop_
  _symmetry_equiv_pos_as_xyz
  'x, y, z'

loop_
  _atom_site_label
  _atom_site_occupancy
  _atom_site_fract_x
  _atom_site_fract_y
  _atom_site_fract_z
  _atom_site_thermal_displace_type
  _atom_site_B_iso_or_equiv
  _atom_site_type_symbol
  Cu1      1.0000 0.23000  0.03460  0.01770  Biso   1.000  Cu
  Cu2      1.0000 0.77000  0.03460  0.48230  Biso   1.000  Cu
  Cu3      1.0000 0.73000  0.53460  0.01770  Biso   1.000  Cu
  Cu4      1.0000 0.27000  0.53460  0.48230  Biso   1.000  Cu
  Cu5      1.0000 0.77000  0.96540  0.98230  Biso   1.000  Cu
  Cu6      1.0000 0.23000  0.96540  0.51770  Biso   1.000  Cu
  Cu7      1.0000 0.27000  0.46540  0.98230  Biso   1.000  Cu
  Cu8      1.0000 0.73000  0.46540  0.51770  Biso   1.000  Cu
  O1       1.0000 0.20780  0.05860  0.90590  Biso   1.000  O
  O2       1.0000 0.79220  0.05860  0.59410  Biso   1.000  O
  O3       1.0000 0.70780  0.55860  0.90590  Biso   1.000  O
  O4       1.0000 0.29220  0.55860  0.59410  Biso   1.000  O
  O5       1.0000 0.79220  0.94140  0.09410  Biso   1.000  O
  O6       1.0000 0.20780  0.94140  0.40590  Biso   1.000  O
  O7       1.0000 0.29220  0.44140  0.09410  Biso   1.000  O
  O8       1.0000 0.70780  0.44140  0.40590  Biso   1.000  O
  C1       1.0000 0.21720  0.24040  0.85740  Biso   1.000  C
  C2       1.0000 0.78280  0.24040  0.64260  Biso   1.000  C
  C3       1.0000 0.71720  0.74040  0.85740  Biso   1.000  C
  C4       1.0000 0.28280  0.74040  0.64260  Biso   1.000  C
  C5       1.0000 0.78280  0.75960  0.14260  Biso   1.000  C
  C6       1.0000 0.21720  0.75960  0.35740  Biso   1.000  C
  C7       1.0000 0.28280  0.25960  0.14260  Biso   1.000  C
  C8       1.0000 0.71720  0.25960  0.35740  Biso   1.000  C
  O9       1.0000 0.25730  0.07100  0.12570  Biso   1.000  O
  O10      1.0000 0.74270  0.07100  0.37430  Biso   1.000  O
  O11      1.0000 0.75730  0.57100  0.12570  Biso   1.000  O
  O12      1.0000 0.24270  0.57100  0.37430  Biso   1.000  O
  O13      1.0000 0.74270  0.92900  0.87430  Biso   1.000  O
  O14      1.0000 0.25730  0.92900  0.62570  Biso   1.000  O
  O15      1.0000 0.24270  0.42900  0.87430  Biso   1.000  O
  O16      1.0000 0.75730  0.42900  0.62570  Biso   1.000  O
  O17      1.0000 0.17800  0.24520  0.05020  Biso   1.000  O
  O18      1.0000 0.82200  0.24520  0.44980  Biso   1.000  O
  O19      1.0000 0.67800  0.74520  0.05020  Biso   1.000  O
  O20      1.0000 0.32200  0.74520  0.44980  Biso   1.000  O
  O21      1.0000 0.82200  0.75480  0.94980  Biso   1.000  O
  O22      1.0000 0.17800  0.75480  0.55020  Biso   1.000  O
  O23      1.0000 0.32200  0.25480  0.94980  Biso   1.000  O
  O24      1.0000 0.67800  0.25480  0.55020  Biso   1.000  O
  O25      1.0000 0.21160  0.61680  0.02210  Biso   1.000  O
  O26      1.0000 0.78840  0.61680  0.47790  Biso   1.000  O
  O27      1.0000 0.71160  0.11680  0.02210  Biso   1.000  O
  O28      1.0000 0.28840  0.11680  0.47790  Biso   1.000  O
  O29      1.0000 0.78840  0.38320  0.97790  Biso   1.000  O
  O30      1.0000 0.21160  0.38320  0.52210  Biso   1.000  O
  O31      1.0000 0.28840  0.88320  0.97790  Biso   1.000  O
  O32      1.0000 0.71160  0.88320  0.52210  Biso   1.000  O
  C9       1.0000 0.19620  0.22370  0.77310  Biso   1.000  C
  C10      1.0000 0.80380  0.22370  0.72690  Biso   1.000  C
  C11      1.0000 0.69620  0.72370  0.77310  Biso   1.000  C
  C12      1.0000 0.30380  0.72370  0.72690  Biso   1.000  C
  C13      1.0000 0.80380  0.77630  0.22690  Biso   1.000  C
  C14      1.0000 0.19620  0.77630  0.27310  Biso   1.000  C
  C15      1.0000 0.30380  0.27630  0.22690  Biso   1.000  C
  C16      1.0000 0.69620  0.27630  0.27310  Biso   1.000  C
  C17      1.0000 0.15580  0.04530  0.76910  Biso   1.000  C
  C18      1.0000 0.84420  0.04530  0.73090  Biso   1.000  C
  C19      1.0000 0.65580  0.54530  0.76910  Biso   1.000  C
  C20      1.0000 0.34420  0.54530  0.73090  Biso   1.000  C
  C21      1.0000 0.84420  0.95470  0.23090  Biso   1.000  C
  C22      1.0000 0.15580  0.95470  0.26910  Biso   1.000  C
  C23      1.0000 0.34420  0.45470  0.23090  Biso   1.000  C
  C24      1.0000 0.65580  0.45470  0.26910  Biso   1.000  C
  C25      1.0000 0.11580  0.14460  0.81470  Biso   1.000  C
  C26      1.0000 0.88420  0.14460  0.68530  Biso   1.000  C
  C27      1.0000 0.61580  0.64460  0.81470  Biso   1.000  C
  C28      1.0000 0.38420  0.64460  0.68530  Biso   1.000  C
  C29      1.0000 0.88420  0.85540  0.18530  Biso   1.000  C
  C30      1.0000 0.11580  0.85540  0.31470  Biso   1.000  C
  C31      1.0000 0.38420  0.35540  0.18530  Biso   1.000  C
  C32      1.0000 0.61580  0.35540  0.31470  Biso   1.000  C
  O33      1.0000 0.11500  0.36230  0.84130  Biso   1.000  O
  O34      1.0000 0.88500  0.36230  0.65870  Biso   1.000  O
  O35      1.0000 0.61500  0.86230  0.84130  Biso   1.000  O
  O36      1.0000 0.38500  0.86230  0.65870  Biso   1.000  O
  O37      1.0000 0.88500  0.63770  0.15870  Biso   1.000  O
  O38      1.0000 0.11500  0.63770  0.34130  Biso   1.000  O
  O39      1.0000 0.38500  0.13770  0.15870  Biso   1.000  O
  O40      1.0000 0.61500  0.13770  0.34130  Biso   1.000  O
  C33      1.0000 0.07720  0.96780  0.82570  Biso   1.000  C
  C34      1.0000 0.92280  0.96780  0.67430  Biso   1.000  C
  C35      1.0000 0.57720  0.46780  0.82570  Biso   1.000  C
  C36      1.0000 0.42280  0.46780  0.67430  Biso   1.000  C
  C37      1.0000 0.92280  0.03220  0.17430  Biso   1.000  C
  C38      1.0000 0.07720  0.03220  0.32570  Biso   1.000  C
  C39      1.0000 0.42280  0.53220  0.17430  Biso   1.000  C
  C40      1.0000 0.57720  0.53220  0.32570  Biso   1.000  C
  C41      1.0000 0.17810  0.48630  0.04240  Biso   1.000  C
  C42      1.0000 0.82190  0.48630  0.45760  Biso   1.000  C
  C43      1.0000 0.67810  0.98630  0.04240  Biso   1.000  C
  C44      1.0000 0.32190  0.98630  0.45760  Biso   1.000  C
  C45      1.0000 0.82190  0.51370  0.95760  Biso   1.000  C
  C46      1.0000 0.17810  0.51370  0.54240  Biso   1.000  C
  C47      1.0000 0.32190  0.01370  0.95760  Biso   1.000  C
  C48      1.0000 0.67810  0.01370  0.54240  Biso   1.000  C
  C49      1.0000 0.13470  0.62910  0.05570  Biso   1.000  C
  C50      1.0000 0.86530  0.62910  0.44430  Biso   1.000  C
  C51      1.0000 0.63470  0.12910  0.05570  Biso   1.000  C
  C52      1.0000 0.36530  0.12910  0.44430  Biso   1.000  C
  C53      1.0000 0.86530  0.37090  0.94430  Biso   1.000  C
  C54      1.0000 0.13470  0.37090  0.55570  Biso   1.000  C
  C55      1.0000 0.36530  0.87090  0.94430  Biso   1.000  C
  C56      1.0000 0.63470  0.87090  0.55570  Biso   1.000  C
  C57      1.0000 0.09560  0.47530  0.08190  Biso   1.000  C
  C58      1.0000 0.90440  0.47530  0.41810  Biso   1.000  C
  C59      1.0000 0.59560  0.97530  0.08190  Biso   1.000  C
  C60      1.0000 0.40440  0.97530  0.41810  Biso   1.000  C
  C61      1.0000 0.90440  0.52470  0.91810  Biso   1.000  C
  C62      1.0000 0.09560  0.52470  0.58190  Biso   1.000  C
  C63      1.0000 0.40440  0.02470  0.91810  Biso   1.000  C
  C64      1.0000 0.59560  0.02470  0.58190  Biso   1.000  C
  C65      1.0000 0.05360  0.62660  0.10190  Biso   1.000  C
  C66      1.0000 0.94640  0.62660  0.39810  Biso   1.000  C
  C67      1.0000 0.55360  0.12660  0.10190  Biso   1.000  C
  C68      1.0000 0.44640  0.12660  0.39810  Biso   1.000  C
  C69      1.0000 0.94640  0.37340  0.89810  Biso   1.000  C
  C70      1.0000 0.05360  0.37340  0.60190  Biso   1.000  C
  C71      1.0000 0.44640  0.87340  0.89810  Biso   1.000  C
  C72      1.0000 0.55360  0.87340  0.60190  Biso   1.000  C
  O41      1.0000 0.05170  0.84280  0.10090  Biso   1.000  O
  O42      1.0000 0.94830  0.84280  0.39910  Biso   1.000  O
  O43      1.0000 0.55170  0.34280  0.10090  Biso   1.000  O
  O44      1.0000 0.44830  0.34280  0.39910  Biso   1.000  O
  O45      1.0000 0.94830  0.15720  0.89910  Biso   1.000  O
  O46      1.0000 0.05170  0.15720  0.60090  Biso   1.000  O
  O47      1.0000 0.44830  0.65720  0.89910  Biso   1.000  O
  O48      1.0000 0.55170  0.65720  0.60090  Biso   1.000  O
  C73      1.0000 0.01740  0.48270  0.13540  Biso   1.000  C
  C74      1.0000 0.98260  0.48270  0.36460  Biso   1.000  C
  C75      1.0000 0.51740  0.98270  0.13540  Biso   1.000  C
  C76      1.0000 0.48260  0.98270  0.36460  Biso   1.000  C
  C77      1.0000 0.98260  0.51730  0.86460  Biso   1.000  C
  C78      1.0000 0.01740  0.51730  0.63540  Biso   1.000  C
  C79      1.0000 0.48260  0.01730  0.86460  Biso   1.000  C
  C80      1.0000 0.51740  0.01730  0.63540  Biso   1.000  C
  H1       1.0000 0.21880  0.16250  0.73550  Biso   1.000  H
  H2       1.0000 0.78120  0.16250  0.76450  Biso   1.000  H
  H3       1.0000 0.71880  0.66250  0.73550  Biso   1.000  H
  H4       1.0000 0.28120  0.66250  0.76450  Biso   1.000  H
  H5       1.0000 0.78120  0.83750  0.26450  Biso   1.000  H
  H6       1.0000 0.21880  0.83750  0.23550  Biso   1.000  H
  H7       1.0000 0.28120  0.33750  0.26450  Biso   1.000  H
  H8       1.0000 0.71880  0.33750  0.23550  Biso   1.000  H
  H9       1.0000 0.18680  0.39560  0.75570  Biso   1.000  H
  H10      1.0000 0.81320  0.39560  0.74430  Biso   1.000  H
  H11      1.0000 0.68680  0.89560  0.75570  Biso   1.000  H
  H12      1.0000 0.31320  0.89560  0.74430  Biso   1.000  H
  H13      1.0000 0.81320  0.60440  0.24430  Biso   1.000  H
  H14      1.0000 0.18680  0.60440  0.25570  Biso   1.000  H
  H15      1.0000 0.31320  0.10440  0.24430  Biso   1.000  H
  H16      1.0000 0.68680  0.10440  0.25570  Biso   1.000  H
  H17      1.0000 0.16460  0.87790  0.79120  Biso   1.000  H
  H18      1.0000 0.83540  0.87790  0.70880  Biso   1.000  H
  H19      1.0000 0.66460  0.37790  0.79120  Biso   1.000  H
  H20      1.0000 0.33540  0.37790  0.70880  Biso   1.000  H
  H21      1.0000 0.83540  0.12210  0.20880  Biso   1.000  H
  H22      1.0000 0.16460  0.12210  0.29120  Biso   1.000  H
  H23      1.0000 0.33540  0.62210  0.20880  Biso   1.000  H
  H24      1.0000 0.66460  0.62210  0.29120  Biso   1.000  H
  H25      1.0000 0.14680  0.02000  0.71240  Biso   1.000  H
  H26      1.0000 0.85320  0.02000  0.78760  Biso   1.000  H
  H27      1.0000 0.64680  0.52000  0.71240  Biso   1.000  H
  H28      1.0000 0.35320  0.52000  0.78760  Biso   1.000  H
  H29      1.0000 0.85320  0.98000  0.28760  Biso   1.000  H
  H30      1.0000 0.14680  0.98000  0.21240  Biso   1.000  H
  H31      1.0000 0.35320  0.48000  0.28760  Biso   1.000  H
  H32      1.0000 0.64680  0.48000  0.21240  Biso   1.000  H
  H33      1.0000 0.05400  0.05450  0.85570  Biso   1.000  H
  H34      1.0000 0.94600  0.05450  0.64430  Biso   1.000  H
  H35      1.0000 0.55400  0.55450  0.85570  Biso   1.000  H
  H36      1.0000 0.44600  0.55450  0.64430  Biso   1.000  H
  H37      1.0000 0.94600  0.94550  0.14430  Biso   1.000  H
  H38      1.0000 0.05400  0.94550  0.35570  Biso   1.000  H
  H39      1.0000 0.44600  0.44550  0.14430  Biso   1.000  H
  H40      1.0000 0.55400  0.44550  0.35570  Biso   1.000  H
  H41      1.0000 0.06510  0.91640  0.77330  Biso   1.000  H
  H42      1.0000 0.93490  0.91640  0.72670  Biso   1.000  H
  H43      1.0000 0.56510  0.41640  0.77330  Biso   1.000  H
  H44      1.0000 0.43490  0.41640  0.72670  Biso   1.000  H
  H45      1.0000 0.93490  0.08360  0.22670  Biso   1.000  H
  H46      1.0000 0.06510  0.08360  0.27330  Biso   1.000  H
  H47      1.0000 0.43490  0.58360  0.22670  Biso   1.000  H
  H48      1.0000 0.56510  0.58360  0.27330  Biso   1.000  H
  H49      1.0000 0.08730  0.81710  0.85530  Biso   1.000  H
  H50      1.0000 0.91270  0.81710  0.64470  Biso   1.000  H
  H51      1.0000 0.58730  0.31710  0.85530  Biso   1.000  H
  H52      1.0000 0.41270  0.31710  0.64470  Biso   1.000  H
  H53      1.0000 0.91270  0.18290  0.14470  Biso   1.000  H
  H54      1.0000 0.08730  0.18290  0.35530  Biso   1.000  H
  H55      1.0000 0.41270  0.68290  0.14470  Biso   1.000  H
  H56      1.0000 0.58730  0.68290  0.35530  Biso   1.000  H
  H57      1.0000 0.14050  0.76210  0.09640  Biso   1.000  H
  H58      1.0000 0.85950  0.76210  0.40360  Biso   1.000  H
  H59      1.0000 0.64050  0.26210  0.09640  Biso   1.000  H
  H60      1.0000 0.35950  0.26210  0.40360  Biso   1.000  H
  H61      1.0000 0.85950  0.23790  0.90360  Biso   1.000  H
  H62      1.0000 0.14050  0.23790  0.59640  Biso   1.000  H
  H63      1.0000 0.35950  0.73790  0.90360  Biso   1.000  H
  H64      1.0000 0.64050  0.73790  0.59640  Biso   1.000  H
  H65      1.0000 0.12620  0.71640  0.00530  Biso   1.000  H
  H66      1.0000 0.87380  0.71640  0.49470  Biso   1.000  H
  H67      1.0000 0.62620  0.21640  0.00530  Biso   1.000  H
  H68      1.0000 0.37380  0.21640  0.49470  Biso   1.000  H
  H69      1.0000 0.87380  0.28360  0.99470  Biso   1.000  H
  H70      1.0000 0.12620  0.28360  0.50530  Biso   1.000  H
  H71      1.0000 0.37380  0.78360  0.99470  Biso   1.000  H
  H72      1.0000 0.62620  0.78360  0.50530  Biso   1.000  H
  H73      1.0000 0.10480  0.37590  0.12960  Biso   1.000  H
  H74      1.0000 0.89520  0.37590  0.37040  Biso   1.000  H
  H75      1.0000 0.60480  0.87590  0.12960  Biso   1.000  H
  H76      1.0000 0.39520  0.87590  0.37040  Biso   1.000  H
  H77      1.0000 0.89520  0.62410  0.87040  Biso   1.000  H
  H78      1.0000 0.10480  0.62410  0.62960  Biso   1.000  H
  H79      1.0000 0.39520  0.12410  0.87040  Biso   1.000  H
  H80      1.0000 0.60480  0.12410  0.62960  Biso   1.000  H
  H81      1.0000 0.08780  0.35270  0.03890  Biso   1.000  H
  H82      1.0000 0.91220  0.35270  0.46110  Biso   1.000  H
  H83      1.0000 0.58780  0.85270  0.03890  Biso   1.000  H
  H84      1.0000 0.41220  0.85270  0.46110  Biso   1.000  H
  H85      1.0000 0.91220  0.64730  0.96110  Biso   1.000  H
  H86      1.0000 0.08780  0.64730  0.53890  Biso   1.000  H
  H87      1.0000 0.41220  0.14730  0.96110  Biso   1.000  H
  H88      1.0000 0.58780  0.14730  0.53890  Biso   1.000  H
  H89      1.0000 0.99180  0.59360  0.14480  Biso   1.000  H
  H90      1.0000 0.00820  0.59360  0.35520  Biso   1.000  H
  H91      1.0000 0.49180  0.09360  0.14480  Biso   1.000  H
  H92      1.0000 0.50820  0.09360  0.35520  Biso   1.000  H
  H93      1.0000 0.00820  0.40640  0.85520  Biso   1.000  H
  H94      1.0000 0.99180  0.40640  0.64480  Biso   1.000  H
  H95      1.0000 0.50820  0.90640  0.85520  Biso   1.000  H
  H96      1.0000 0.49180  0.90640  0.64480  Biso   1.000  H
  H97      1.0000 0.00720  0.32720  0.10850  Biso   1.000  H
  H98      1.0000 0.99280  0.32720  0.39150  Biso   1.000  H
  H99      1.0000 0.50720  0.82720  0.10850  Biso   1.000  H
  H100     1.0000 0.49280  0.82720  0.39150  Biso   1.000  H
  H101     1.0000 0.99280  0.67280  0.89150  Biso   1.000  H
  H102     1.0000 0.00720  0.67280  0.60850  Biso   1.000  H
  H103     1.0000 0.49280  0.17280  0.89150  Biso   1.000  H
  H104     1.0000 0.50720  0.17280  0.60850  Biso   1.000  H
  H105     1.0000 0.03180  0.43890  0.18660  Biso   1.000  H
  H106     1.0000 0.96820  0.43890  0.31340  Biso   1.000  H
  H107     1.0000 0.53180  0.93890  0.18660  Biso   1.000  H
  H108     1.0000 0.46820  0.93890  0.31340  Biso   1.000  H
  H109     1.0000 0.96820  0.56110  0.81340  Biso   1.000  H
  H110     1.0000 0.03180  0.56110  0.68660  Biso   1.000  H
  H111     1.0000 0.46820  0.06110  0.81340  Biso   1.000  H
  H112     1.0000 0.53180  0.06110  0.68660  Biso   1.000  H
  C81      1.0000 0.00780  0.45950  0.08410  Biso   1.000  C
  C82      1.0000 0.99220  0.45950  0.41590  Biso   1.000  C
  C83      1.0000 0.50780  0.95950  0.08410  Biso   1.000  C
  C84      1.0000 0.49220  0.95950  0.41590  Biso   1.000  C
  C85      1.0000 0.99220  0.54050  0.91590  Biso   1.000  C
  C86      1.0000 0.00780  0.54050  0.58410  Biso   1.000  C
  C87      1.0000 0.49220  0.04050  0.91590  Biso   1.000  C
  C88      1.0000 0.50780  0.04050  0.58410  Biso   1.000  C
  H113     1.0000 0.98270  0.56830  0.09790  Biso   1.000  H
  H114     1.0000 0.01730  0.56830  0.40210  Biso   1.000  H
  H115     1.0000 0.48270  0.06830  0.09790  Biso   1.000  H
  H116     1.0000 0.51730  0.06830  0.40210  Biso   1.000  H
  H117     1.0000 0.01730  0.43170  0.90210  Biso   1.000  H
  H118     1.0000 0.98270  0.43170  0.59790  Biso   1.000  H
  H119     1.0000 0.51730  0.93170  0.90210  Biso   1.000  H
  H120     1.0000 0.48270  0.93170  0.59790  Biso   1.000  H
  H121     1.0000 0.00210  0.38220  0.03160  Biso   1.000  H
  H122     1.0000 0.99790  0.38220  0.46840  Biso   1.000  H
  H123     1.0000 0.50210  0.88220  0.03160  Biso   1.000  H
  H124     1.0000 0.49790  0.88220  0.46840  Biso   1.000  H
  H125     1.0000 0.99790  0.61780  0.96840  Biso   1.000  H
  H126     1.0000 0.00210  0.61780  0.53160  Biso   1.000  H
  H127     1.0000 0.49790  0.11780  0.96840  Biso   1.000  H
  H128     1.0000 0.50210  0.11780  0.53160  Biso   1.000  H
  H129     1.0000 0.01150  0.32570  0.12440  Biso   1.000  H
  H130     1.0000 0.98850  0.32570  0.37560  Biso   1.000  H
  H131     1.0000 0.51150  0.82570  0.12440  Biso   1.000  H
  H132     1.0000 0.48850  0.82570  0.37560  Biso   1.000  H
  H133     1.0000 0.98850  0.67430  0.87560  Biso   1.000  H
  H134     1.0000 0.01150  0.67430  0.62440  Biso   1.000  H
  H135     1.0000 0.48850  0.17430  0.87560  Biso   1.000  H
  H136     1.0000 0.51150  0.17430  0.62440  Biso   1.000  H
