data_image0
_cell_length_a       15.0645
_cell_length_b       15.0645
_cell_length_c       14.751
_cell_angle_alpha    90
_cell_angle_beta     90
_cell_angle_gamma    120

_symmetry_space_group_name_H-M    "P 1"
_symmetry_int_tables_number       1

loop_
  _symmetry_equiv_pos_as_xyz
  'x, y, z'

loop_
  _atom_site_label
  _atom_site_occupancy
  _atom_site_fract_x
  _atom_site_fract_y
  _atom_site_fract_z
  _atom_site_thermal_displace_type
  _atom_site_B_iso_or_equiv
  _atom_site_type_symbol
  Nd1      1.0000 0.66670  0.33330  0.75000  Biso   1.000  Nd
  Nd2      1.0000 0.33330  0.66660  0.75000  Biso   1.000  Nd
  Nd3      1.0000 0.66660  0.33330  0.25000  Biso   1.000  Nd
  Nd4      1.0000 0.33330  0.66670  0.25000  Biso   1.000  Nd
  Cu1      1.0000 0.50000  0.00000  0.00000  Biso   1.000  Cu
  Cu2      1.0000 0.00000  0.50000  0.00000  Biso   1.000  Cu
  Cu3      1.0000 0.50000  0.50000  0.00000  Biso   1.000  Cu
  Cu4      1.0000 0.50000  0.00000  0.50000  Biso   1.000  Cu
  Cu5      1.0000 0.50000  0.50000  0.50000  Biso   1.000  Cu
  Cu6      1.0000 0.00000  0.50000  0.50000  Biso   1.000  Cu
  O1       1.0000 0.80750  0.42190  0.64110  Biso   1.000  O
  O2       1.0000 0.57810  0.38560  0.64110  Biso   1.000  O
  O3       1.0000 0.61440  0.19250  0.64110  Biso   1.000  O
  O4       1.0000 0.42190  0.61440  0.64110  Biso   1.000  O
  O5       1.0000 0.38560  0.80750  0.64110  Biso   1.000  O
  O6       1.0000 0.61440  0.42190  0.14110  Biso   1.000  O
  O7       1.0000 0.80750  0.38560  0.14110  Biso   1.000  O
  O8       1.0000 0.42190  0.80750  0.14110  Biso   1.000  O
  O9       1.0000 0.38560  0.57810  0.14110  Biso   1.000  O
  O10      1.0000 0.19250  0.61440  0.14110  Biso   1.000  O
  O11      1.0000 0.80750  0.42190  0.35890  Biso   1.000  O
  O12      1.0000 0.42190  0.80750  0.85890  Biso   1.000  O
  O13      1.0000 0.19250  0.57810  0.35890  Biso   1.000  O
  O14      1.0000 0.42190  0.61440  0.35890  Biso   1.000  O
  O15      1.0000 0.38560  0.80750  0.35890  Biso   1.000  O
  O16      1.0000 0.57810  0.38560  0.35890  Biso   1.000  O
  O17      1.0000 0.61440  0.19250  0.35890  Biso   1.000  O
  O18      1.0000 0.38560  0.57810  0.85890  Biso   1.000  O
  O19      1.0000 0.19250  0.61440  0.85890  Biso   1.000  O
  O20      1.0000 0.57810  0.19250  0.85890  Biso   1.000  O
  O21      1.0000 0.61440  0.42190  0.85890  Biso   1.000  O
  O22      1.0000 0.80750  0.38560  0.85890  Biso   1.000  O
  O23      1.0000 0.19250  0.57810  0.64110  Biso   1.000  O
  O24      1.0000 0.57810  0.19250  0.14110  Biso   1.000  O
  O25      1.0000 0.95100  0.55810  0.59240  Biso   1.000  O
  O26      1.0000 0.44190  0.39290  0.59240  Biso   1.000  O
  O27      1.0000 0.60710  0.04900  0.59240  Biso   1.000  O
  O28      1.0000 0.55810  0.60710  0.59240  Biso   1.000  O
  O29      1.0000 0.39290  0.95100  0.59240  Biso   1.000  O
  O30      1.0000 0.60710  0.55810  0.09240  Biso   1.000  O
  O31      1.0000 0.95100  0.39290  0.09240  Biso   1.000  O
  O32      1.0000 0.55810  0.95100  0.09240  Biso   1.000  O
  O33      1.0000 0.39290  0.44190  0.09240  Biso   1.000  O
  O34      1.0000 0.04900  0.60710  0.09240  Biso   1.000  O
  O35      1.0000 0.95100  0.55810  0.40760  Biso   1.000  O
  O36      1.0000 0.55810  0.95100  0.90760  Biso   1.000  O
  O37      1.0000 0.04900  0.44190  0.40760  Biso   1.000  O
  O38      1.0000 0.55810  0.60710  0.40760  Biso   1.000  O
  O39      1.0000 0.39290  0.95100  0.40760  Biso   1.000  O
  O40      1.0000 0.44190  0.39290  0.40760  Biso   1.000  O
  O41      1.0000 0.60710  0.04900  0.40760  Biso   1.000  O
  O42      1.0000 0.39290  0.44190  0.90760  Biso   1.000  O
  O43      1.0000 0.04900  0.60710  0.90760  Biso   1.000  O
  O44      1.0000 0.44190  0.04900  0.90760  Biso   1.000  O
  O45      1.0000 0.60710  0.55810  0.90760  Biso   1.000  O
  O46      1.0000 0.95100  0.39290  0.90760  Biso   1.000  O
  O47      1.0000 0.04900  0.44190  0.59240  Biso   1.000  O
  O48      1.0000 0.44190  0.04900  0.09240  Biso   1.000  O
  O49      1.0000 0.23626  0.47250  0.25000  Biso   1.000  O
  O50      1.0000 0.52750  0.76376  0.25000  Biso   1.000  O
  O51      1.0000 0.23624  0.76374  0.25000  Biso   1.000  O
  O52      1.0000 0.47250  0.23624  0.25000  Biso   1.000  O
  O53      1.0000 0.76376  0.23626  0.25000  Biso   1.000  O
  O54      1.0000 0.23624  0.47250  0.75000  Biso   1.000  O
  O55      1.0000 0.23626  0.76376  0.75000  Biso   1.000  O
  O56      1.0000 0.47250  0.23626  0.75000  Biso   1.000  O
  O57      1.0000 0.76376  0.52750  0.75000  Biso   1.000  O
  O58      1.0000 0.76374  0.23624  0.75000  Biso   1.000  O
  O59      1.0000 0.52750  0.76376  0.75000  Biso   1.000  O
  O60      1.0000 0.76376  0.52750  0.25000  Biso   1.000  O
  C1       1.0000 0.87220  0.51580  0.63990  Biso   1.000  C
  C2       1.0000 0.48420  0.35640  0.63990  Biso   1.000  C
  C3       1.0000 0.64360  0.12780  0.63990  Biso   1.000  C
  C4       1.0000 0.51580  0.64360  0.63990  Biso   1.000  C
  C5       1.0000 0.35640  0.87220  0.63990  Biso   1.000  C
  C6       1.0000 0.64360  0.51580  0.13990  Biso   1.000  C
  C7       1.0000 0.87220  0.35640  0.13990  Biso   1.000  C
  C8       1.0000 0.51580  0.87220  0.13990  Biso   1.000  C
  C9       1.0000 0.35640  0.48420  0.13990  Biso   1.000  C
  C10      1.0000 0.12780  0.64360  0.13990  Biso   1.000  C
  C11      1.0000 0.87220  0.51580  0.36010  Biso   1.000  C
  C12      1.0000 0.51580  0.87220  0.86010  Biso   1.000  C
  C13      1.0000 0.12780  0.48420  0.36010  Biso   1.000  C
  C14      1.0000 0.51580  0.64360  0.36010  Biso   1.000  C
  C15      1.0000 0.35640  0.87220  0.36010  Biso   1.000  C
  C16      1.0000 0.48420  0.35640  0.36010  Biso   1.000  C
  C17      1.0000 0.64360  0.12780  0.36010  Biso   1.000  C
  C18      1.0000 0.35640  0.48420  0.86010  Biso   1.000  C
  C19      1.0000 0.12780  0.64360  0.86010  Biso   1.000  C
  C20      1.0000 0.48420  0.12780  0.86010  Biso   1.000  C
  C21      1.0000 0.64360  0.51580  0.86010  Biso   1.000  C
  C22      1.0000 0.87220  0.35640  0.86010  Biso   1.000  C
  C23      1.0000 0.12780  0.48420  0.63990  Biso   1.000  C
  C24      1.0000 0.48420  0.12780  0.13990  Biso   1.000  C
  C25      1.0000 0.14600  0.41410  0.30040  Biso   1.000  C
  C26      1.0000 0.58590  0.73190  0.30040  Biso   1.000  C
  C27      1.0000 0.26810  0.85400  0.30040  Biso   1.000  C
  C28      1.0000 0.41410  0.26810  0.30040  Biso   1.000  C
  C29      1.0000 0.73190  0.14600  0.30040  Biso   1.000  C
  C30      1.0000 0.26810  0.41410  0.80040  Biso   1.000  C
  C31      1.0000 0.14600  0.73190  0.80040  Biso   1.000  C
  C32      1.0000 0.41410  0.14600  0.80040  Biso   1.000  C
  C33      1.0000 0.73190  0.58590  0.80040  Biso   1.000  C
  C34      1.0000 0.85400  0.26810  0.80040  Biso   1.000  C
  C35      1.0000 0.14600  0.41410  0.69960  Biso   1.000  C
  C36      1.0000 0.41410  0.14600  0.19960  Biso   1.000  C
  C37      1.0000 0.85400  0.58590  0.69960  Biso   1.000  C
  C38      1.0000 0.41410  0.26810  0.69960  Biso   1.000  C
  C39      1.0000 0.73190  0.14600  0.69960  Biso   1.000  C
  C40      1.0000 0.58590  0.73190  0.69960  Biso   1.000  C
  C41      1.0000 0.26810  0.85400  0.69960  Biso   1.000  C
  C42      1.0000 0.73190  0.58590  0.19960  Biso   1.000  C
  C43      1.0000 0.85400  0.26810  0.19960  Biso   1.000  C
  C44      1.0000 0.58590  0.85400  0.19960  Biso   1.000  C
  C45      1.0000 0.26810  0.41410  0.19960  Biso   1.000  C
  C46      1.0000 0.14600  0.73190  0.19960  Biso   1.000  C
  C47      1.0000 0.85400  0.58590  0.30040  Biso   1.000  C
  C48      1.0000 0.58590  0.85400  0.80040  Biso   1.000  C
  H1       1.0000 0.21180  0.36440  0.16270  Biso   1.000  H
  H2       1.0000 0.63560  0.84740  0.16270  Biso   1.000  H
  H3       1.0000 0.15260  0.78820  0.16270  Biso   1.000  H
  H4       1.0000 0.36440  0.15260  0.16270  Biso   1.000  H
  H5       1.0000 0.84740  0.21180  0.16270  Biso   1.000  H
  H6       1.0000 0.15260  0.36440  0.66270  Biso   1.000  H
  H7       1.0000 0.21180  0.84740  0.66270  Biso   1.000  H
  H8       1.0000 0.36440  0.21180  0.66270  Biso   1.000  H
  H9       1.0000 0.84740  0.63560  0.66270  Biso   1.000  H
  H10      1.0000 0.78820  0.15260  0.66270  Biso   1.000  H
  H11      1.0000 0.21180  0.36440  0.83730  Biso   1.000  H
  H12      1.0000 0.36440  0.21180  0.33730  Biso   1.000  H
  H13      1.0000 0.78820  0.63560  0.83730  Biso   1.000  H
  H14      1.0000 0.36440  0.15260  0.83730  Biso   1.000  H
  H15      1.0000 0.84740  0.21180  0.83730  Biso   1.000  H
  H16      1.0000 0.63560  0.84740  0.83730  Biso   1.000  H
  H17      1.0000 0.15260  0.78820  0.83730  Biso   1.000  H
  H18      1.0000 0.84740  0.63560  0.33730  Biso   1.000  H
  H19      1.0000 0.78820  0.15260  0.33730  Biso   1.000  H
  H20      1.0000 0.63560  0.78820  0.33730  Biso   1.000  H
  H21      1.0000 0.15260  0.36440  0.33730  Biso   1.000  H
  H22      1.0000 0.21180  0.84740  0.33730  Biso   1.000  H
  H23      1.0000 0.78820  0.63560  0.16270  Biso   1.000  H
  H24      1.0000 0.63560  0.78820  0.66270  Biso   1.000  H
  H25      1.0000 0.28900  0.37730  0.24030  Biso   1.000  H
  H26      1.0000 0.62270  0.91170  0.24030  Biso   1.000  H
  H27      1.0000 0.08830  0.71100  0.24030  Biso   1.000  H
  H28      1.0000 0.37730  0.08830  0.24030  Biso   1.000  H
  H29      1.0000 0.91170  0.28900  0.24030  Biso   1.000  H
  H30      1.0000 0.08830  0.37730  0.74030  Biso   1.000  H
  H31      1.0000 0.28900  0.91170  0.74030  Biso   1.000  H
  H32      1.0000 0.37730  0.28900  0.74030  Biso   1.000  H
  H33      1.0000 0.91170  0.62270  0.74030  Biso   1.000  H
  H34      1.0000 0.71100  0.08830  0.74030  Biso   1.000  H
  H35      1.0000 0.28900  0.37730  0.75970  Biso   1.000  H
  H36      1.0000 0.37730  0.28900  0.25970  Biso   1.000  H
  H37      1.0000 0.71100  0.62270  0.75970  Biso   1.000  H
  H38      1.0000 0.37730  0.08830  0.75970  Biso   1.000  H
  H39      1.0000 0.91170  0.28900  0.75970  Biso   1.000  H
  H40      1.0000 0.62270  0.91170  0.75970  Biso   1.000  H
  H41      1.0000 0.08830  0.71100  0.75970  Biso   1.000  H
  H42      1.0000 0.91170  0.62270  0.25970  Biso   1.000  H
  H43      1.0000 0.71100  0.08830  0.25970  Biso   1.000  H
  H44      1.0000 0.62270  0.71100  0.25970  Biso   1.000  H
  H45      1.0000 0.08830  0.37730  0.25970  Biso   1.000  H
  H46      1.0000 0.28900  0.91170  0.25970  Biso   1.000  H
  H47      1.0000 0.71100  0.62270  0.24030  Biso   1.000  H
  H48      1.0000 0.62270  0.71100  0.74030  Biso   1.000  H
  O61      1.0000 0.84420  0.52350  0.00000  Biso   1.000  O
  O62      1.0000 0.47650  0.32070  0.00000  Biso   1.000  O
  O63      1.0000 0.67930  0.15580  0.00000  Biso   1.000  O
  O64      1.0000 0.52350  0.67930  0.00000  Biso   1.000  O
  O65      1.0000 0.32070  0.84420  0.00000  Biso   1.000  O
  O66      1.0000 0.67930  0.52350  0.50000  Biso   1.000  O
  O67      1.0000 0.84420  0.32070  0.50000  Biso   1.000  O
  O68      1.0000 0.52350  0.84420  0.50000  Biso   1.000  O
  O69      1.0000 0.32070  0.47650  0.50000  Biso   1.000  O
  O70      1.0000 0.15580  0.67930  0.50000  Biso   1.000  O
  O71      1.0000 0.15580  0.47650  0.00000  Biso   1.000  O
  O72      1.0000 0.47650  0.15580  0.50000  Biso   1.000  O
  H49      1.0000 0.82200  0.48100  0.04800  Biso   1.000  H
  H50      1.0000 0.51900  0.34100  0.04800  Biso   1.000  H
  H51      1.0000 0.65900  0.17800  0.04800  Biso   1.000  H
  H52      1.0000 0.48100  0.65900  0.04800  Biso   1.000  H
  H53      1.0000 0.34100  0.82200  0.04800  Biso   1.000  H
  H54      1.0000 0.65900  0.48100  0.54800  Biso   1.000  H
  H55      1.0000 0.82200  0.34100  0.54800  Biso   1.000  H
  H56      1.0000 0.48100  0.82200  0.54800  Biso   1.000  H
  H57      1.0000 0.34100  0.51900  0.54800  Biso   1.000  H
  H58      1.0000 0.17800  0.65900  0.54800  Biso   1.000  H
  H59      1.0000 0.82200  0.48100  0.95200  Biso   1.000  H
  H60      1.0000 0.48100  0.82200  0.45200  Biso   1.000  H
  H61      1.0000 0.17800  0.51900  0.95200  Biso   1.000  H
  H62      1.0000 0.48100  0.65900  0.95200  Biso   1.000  H
  H63      1.0000 0.34100  0.82200  0.95200  Biso   1.000  H
  H64      1.0000 0.51900  0.34100  0.95200  Biso   1.000  H
  H65      1.0000 0.65900  0.17800  0.95200  Biso   1.000  H
  H66      1.0000 0.34100  0.51900  0.45200  Biso   1.000  H
  H67      1.0000 0.17800  0.65900  0.45200  Biso   1.000  H
  H68      1.0000 0.51900  0.17800  0.45200  Biso   1.000  H
  H69      1.0000 0.65900  0.48100  0.45200  Biso   1.000  H
  H70      1.0000 0.82200  0.34100  0.45200  Biso   1.000  H
  H71      1.0000 0.17800  0.51900  0.04800  Biso   1.000  H
  H72      1.0000 0.51900  0.17800  0.54800  Biso   1.000  H
  O73      1.0000 0.27600  0.16400  0.00000  Biso   1.000  O
  O74      1.0000 0.83600  0.11200  0.00000  Biso   1.000  O
  O75      1.0000 0.88800  0.72400  0.00000  Biso   1.000  O
  O76      1.0000 0.16400  0.88800  0.00000  Biso   1.000  O
  O77      1.0000 0.11200  0.27600  0.00000  Biso   1.000  O
  O78      1.0000 0.88800  0.16400  0.50000  Biso   1.000  O
  O79      1.0000 0.27600  0.11200  0.50000  Biso   1.000  O
  O80      1.0000 0.16400  0.27600  0.50000  Biso   1.000  O
  O81      1.0000 0.11200  0.83600  0.50000  Biso   1.000  O
  O82      1.0000 0.72400  0.88800  0.50000  Biso   1.000  O
  O83      1.0000 0.72400  0.83600  0.00000  Biso   1.000  O
  O84      1.0000 0.83600  0.72400  0.50000  Biso   1.000  O
  O85      1.0000 0.20300  0.22500  0.00000  Biso   1.000  O
  O86      1.0000 0.77500  0.97800  0.00000  Biso   1.000  O
  O87      1.0000 0.02200  0.79700  0.00000  Biso   1.000  O
  O88      1.0000 0.22500  0.02200  0.00000  Biso   1.000  O
  O89      1.0000 0.97800  0.20300  0.00000  Biso   1.000  O
  O90      1.0000 0.02200  0.22500  0.50000  Biso   1.000  O
  O91      1.0000 0.20300  0.97800  0.50000  Biso   1.000  O
  O92      1.0000 0.22500  0.20300  0.50000  Biso   1.000  O
  O93      1.0000 0.97800  0.77500  0.50000  Biso   1.000  O
  O94      1.0000 0.79700  0.02200  0.50000  Biso   1.000  O
  O95      1.0000 0.79700  0.77500  0.00000  Biso   1.000  O
  O96      1.0000 0.77500  0.79700  0.50000  Biso   1.000  O
  O97      1.0000 0.84600  0.85800  0.28300  Biso   1.000  O
  O98      1.0000 0.14200  0.98800  0.28300  Biso   1.000  O
  O99      1.0000 0.01200  0.15400  0.28300  Biso   1.000  O
  O100     1.0000 0.85800  0.01200  0.28300  Biso   1.000  O
  O101     1.0000 0.98800  0.84600  0.28300  Biso   1.000  O
  O102     1.0000 0.01200  0.85800  0.78300  Biso   1.000  O
  O103     1.0000 0.84600  0.98800  0.78300  Biso   1.000  O
  O104     1.0000 0.85800  0.84600  0.78300  Biso   1.000  O
  O105     1.0000 0.98800  0.14200  0.78300  Biso   1.000  O
  O106     1.0000 0.15400  0.01200  0.78300  Biso   1.000  O
  O107     1.0000 0.84600  0.85800  0.71700  Biso   1.000  O
  O108     1.0000 0.85800  0.84600  0.21700  Biso   1.000  O
  O109     1.0000 0.15400  0.14200  0.71700  Biso   1.000  O
  O110     1.0000 0.85800  0.01200  0.71700  Biso   1.000  O
  O111     1.0000 0.98800  0.84600  0.71700  Biso   1.000  O
  O112     1.0000 0.14200  0.98800  0.71700  Biso   1.000  O
  O113     1.0000 0.01200  0.15400  0.71700  Biso   1.000  O
  O114     1.0000 0.98800  0.14200  0.21700  Biso   1.000  O
  O115     1.0000 0.15400  0.01200  0.21700  Biso   1.000  O
  O116     1.0000 0.14200  0.15400  0.21700  Biso   1.000  O
  O117     1.0000 0.01200  0.85800  0.21700  Biso   1.000  O
  O118     1.0000 0.84600  0.98800  0.21700  Biso   1.000  O
  O119     1.0000 0.15400  0.14200  0.28300  Biso   1.000  O
  O120     1.0000 0.14200  0.15400  0.78300  Biso   1.000  O
  O121     1.0000 0.84500  0.89100  0.38700  Biso   1.000  O
  O122     1.0000 0.10900  0.95400  0.38700  Biso   1.000  O
  O123     1.0000 0.04600  0.15500  0.38700  Biso   1.000  O
  O124     1.0000 0.89100  0.04600  0.38700  Biso   1.000  O
  O125     1.0000 0.95400  0.84500  0.38700  Biso   1.000  O
  O126     1.0000 0.04600  0.89100  0.88700  Biso   1.000  O
  O127     1.0000 0.84500  0.95400  0.88700  Biso   1.000  O
  O128     1.0000 0.89100  0.84500  0.88700  Biso   1.000  O
  O129     1.0000 0.95400  0.10900  0.88700  Biso   1.000  O
  O130     1.0000 0.15500  0.04600  0.88700  Biso   1.000  O
  O131     1.0000 0.84500  0.89100  0.61300  Biso   1.000  O
  O132     1.0000 0.89100  0.84500  0.11300  Biso   1.000  O
  O133     1.0000 0.15500  0.10900  0.61300  Biso   1.000  O
  O134     1.0000 0.89100  0.04600  0.61300  Biso   1.000  O
  O135     1.0000 0.95400  0.84500  0.61300  Biso   1.000  O
  O136     1.0000 0.10900  0.95400  0.61300  Biso   1.000  O
  O137     1.0000 0.04600  0.15500  0.61300  Biso   1.000  O
  O138     1.0000 0.95400  0.10900  0.11300  Biso   1.000  O
  O139     1.0000 0.15500  0.04600  0.11300  Biso   1.000  O
  O140     1.0000 0.10900  0.15500  0.11300  Biso   1.000  O
  O141     1.0000 0.04600  0.89100  0.11300  Biso   1.000  O
  O142     1.0000 0.84500  0.95400  0.11300  Biso   1.000  O
  O143     1.0000 0.15500  0.10900  0.38700  Biso   1.000  O
  O144     1.0000 0.10900  0.15500  0.88700  Biso   1.000  O
  O145     1.0000 0.25300  0.20800  0.96800  Biso   1.000  O
  O146     1.0000 0.79200  0.04500  0.96800  Biso   1.000  O
  O147     1.0000 0.95500  0.74700  0.96800  Biso   1.000  O
  O148     1.0000 0.20800  0.95500  0.96800  Biso   1.000  O
  O149     1.0000 0.04500  0.25300  0.96800  Biso   1.000  O
  O150     1.0000 0.95500  0.20800  0.46800  Biso   1.000  O
  O151     1.0000 0.25300  0.04500  0.46800  Biso   1.000  O
  O152     1.0000 0.20800  0.25300  0.46800  Biso   1.000  O
  O153     1.0000 0.04500  0.79200  0.46800  Biso   1.000  O
  O154     1.0000 0.74700  0.95500  0.46800  Biso   1.000  O
  O155     1.0000 0.25300  0.20800  0.03200  Biso   1.000  O
  O156     1.0000 0.20800  0.25300  0.53200  Biso   1.000  O
  O157     1.0000 0.74700  0.79200  0.03200  Biso   1.000  O
  O158     1.0000 0.20800  0.95500  0.03200  Biso   1.000  O
  O159     1.0000 0.04500  0.25300  0.03200  Biso   1.000  O
  O160     1.0000 0.79200  0.04500  0.03200  Biso   1.000  O
  O161     1.0000 0.95500  0.74700  0.03200  Biso   1.000  O
  O162     1.0000 0.04500  0.79200  0.53200  Biso   1.000  O
  O163     1.0000 0.74700  0.95500  0.53200  Biso   1.000  O
  O164     1.0000 0.79200  0.74700  0.53200  Biso   1.000  O
  O165     1.0000 0.95500  0.20800  0.53200  Biso   1.000  O
  O166     1.0000 0.25300  0.04500  0.53200  Biso   1.000  O
  O167     1.0000 0.74700  0.79200  0.96800  Biso   1.000  O
  O168     1.0000 0.79200  0.74700  0.46800  Biso   1.000  O
  O169     1.0000 0.82900  0.97200  0.33000  Biso   1.000  O
  O170     1.0000 0.02800  0.85700  0.33000  Biso   1.000  O
  O171     1.0000 0.14300  0.17100  0.33000  Biso   1.000  O
  O172     1.0000 0.97200  0.14300  0.33000  Biso   1.000  O
  O173     1.0000 0.85700  0.82900  0.33000  Biso   1.000  O
  O174     1.0000 0.14300  0.97200  0.83000  Biso   1.000  O
  O175     1.0000 0.82900  0.85700  0.83000  Biso   1.000  O
  O176     1.0000 0.97200  0.82900  0.83000  Biso   1.000  O
  O177     1.0000 0.85700  0.02800  0.83000  Biso   1.000  O
  O178     1.0000 0.17100  0.14300  0.83000  Biso   1.000  O
  O179     1.0000 0.82900  0.97200  0.67000  Biso   1.000  O
  O180     1.0000 0.97200  0.82900  0.17000  Biso   1.000  O
  O181     1.0000 0.17100  0.02800  0.67000  Biso   1.000  O
  O182     1.0000 0.97200  0.14300  0.67000  Biso   1.000  O
  O183     1.0000 0.85700  0.82900  0.67000  Biso   1.000  O
  O184     1.0000 0.02800  0.85700  0.67000  Biso   1.000  O
  O185     1.0000 0.14300  0.17100  0.67000  Biso   1.000  O
  O186     1.0000 0.85700  0.02800  0.17000  Biso   1.000  O
  O187     1.0000 0.17100  0.14300  0.17000  Biso   1.000  O
  O188     1.0000 0.02800  0.17100  0.17000  Biso   1.000  O
  O189     1.0000 0.14300  0.97200  0.17000  Biso   1.000  O
  O190     1.0000 0.82900  0.85700  0.17000  Biso   1.000  O
  O191     1.0000 0.17100  0.02800  0.33000  Biso   1.000  O
  O192     1.0000 0.02800  0.17100  0.83000  Biso   1.000  O
