data_image0
_cell_length_a       7.675
_cell_length_b       8.225
_cell_length_c       10.845
_cell_angle_alpha    86.996
_cell_angle_beta     76.292
_cell_angle_gamma    68.89

_symmetry_space_group_name_H-M    "P 1"
_symmetry_int_tables_number       1

loop_
  _symmetry_equiv_pos_as_xyz
  'x, y, z'

loop_
  _atom_site_label
  _atom_site_occupancy
  _atom_site_fract_x
  _atom_site_fract_y
  _atom_site_fract_z
  _atom_site_thermal_displace_type
  _atom_site_B_iso_or_equiv
  _atom_site_type_symbol
  Cu1      1.0000 0.50000  0.00000  0.00000  Biso   1.000  Cu
  Cu2      1.0000 0.50000  0.50000  0.50000  Biso   1.000  Cu
  N1       1.0000 0.57060  0.75600  0.06600  Biso   1.000  N
  N2       1.0000 0.42940  0.24400  0.93400  Biso   1.000  N
  N3       1.0000 0.40200  0.51330  0.33400  Biso   1.000  N
  N4       1.0000 0.59800  0.48670  0.66600  Biso   1.000  N
  H1       1.0000 0.38760  0.41130  0.32370  Biso   1.000  H
  H2       1.0000 0.61240  0.58870  0.67630  Biso   1.000  H
  H3       1.0000 0.28410  0.59650  0.34780  Biso   1.000  H
  H4       1.0000 0.71590  0.40350  0.65220  Biso   1.000  H
  O1       1.0000 0.22640  0.02670  0.02720  Biso   1.000  O
  O2       1.0000 0.77360  0.97330  0.97280  Biso   1.000  O
  O3       1.0000 0.57150  0.87110  0.78380  Biso   1.000  O
  O4       1.0000 0.42850  0.12890  0.21620  Biso   1.000  O
  O5       1.0000 0.22960  0.54860  0.59530  Biso   1.000  O
  O6       1.0000 0.77040  0.45140  0.40470  Biso   1.000  O
  O7       1.0000 0.44290  0.78690  0.48610  Biso   1.000  O
  O8       1.0000 0.55710  0.21310  0.51390  Biso   1.000  O
  O9       1.0000 0.70170  0.92390  0.34390  Biso   1.000  O
  O10      1.0000 0.29830  0.07610  0.65610  Biso   1.000  O
  O11      1.0000 0.95390  0.91160  0.16150  Biso   1.000  O
  O12      1.0000 0.04610  0.08840  0.83850  Biso   1.000  O
  O13      1.0000 0.02870  0.82870  0.36150  Biso   1.000  O
  O14      1.0000 0.97130  0.17130  0.63850  Biso   1.000  O
  O15      1.0000 0.92490  0.64860  0.25080  Biso   1.000  O
  O16      1.0000 0.07510  0.35140  0.74920  Biso   1.000  O
  O17      1.0000 0.92280  0.85350  0.62290  Biso   1.000  O
  O18      1.0000 0.07720  0.14650  0.37710  Biso   1.000  O
  S1       1.0000 0.90236  0.82685  0.27967  Biso   1.000  S
  S2       1.0000 0.09764  0.17315  0.72033  Biso   1.000  S
  C1       1.0000 0.47020  0.71660  0.17440  Biso   1.000  C
  C2       1.0000 0.52980  0.28340  0.82560  Biso   1.000  C
  H5       1.0000 0.36870  0.80600  0.22370  Biso   1.000  H
  H6       1.0000 0.63130  0.19400  0.77630  Biso   1.000  H
  C3       1.0000 0.51180  0.54740  0.21590  Biso   1.000  C
  C4       1.0000 0.48820  0.45260  0.78410  Biso   1.000  C
  C5       1.0000 0.66280  0.41440  0.14160  Biso   1.000  C
  C6       1.0000 0.33720  0.58560  0.85840  Biso   1.000  C
  H7       1.0000 0.69330  0.29950  0.16650  Biso   1.000  H
  H8       1.0000 0.30670  0.70050  0.83350  Biso   1.000  H
  C7       1.0000 0.76620  0.45500  0.03110  Biso   1.000  C
  C8       1.0000 0.23380  0.54500  0.96890  Biso   1.000  C
  H9       1.0000 0.86910  0.36810  0.98060  Biso   1.000  H
  H10      1.0000 0.13090  0.63190  0.01940  Biso   1.000  H
  C9       1.0000 0.71640  0.62560  0.99570  Biso   1.000  C
  C10      1.0000 0.28360  0.37440  0.00430  Biso   1.000  C
  H11      1.0000 0.78650  0.65160  0.92000  Biso   1.000  H
  H12      1.0000 0.21350  0.34840  0.08000  Biso   1.000  H
  H13      1.0000 0.17200  0.98500  0.07400  Biso   1.000  H
  H14      1.0000 0.82800  0.01500  0.92600  Biso   1.000  H
  H15      1.0000 0.18700  0.04100  0.97000  Biso   1.000  H
  H16      1.0000 0.81300  0.95900  0.03000  Biso   1.000  H
  H17      1.0000 0.49500  0.92800  0.74800  Biso   1.000  H
  H18      1.0000 0.50500  0.07200  0.25200  Biso   1.000  H
  H19      1.0000 0.66100  0.86000  0.74200  Biso   1.000  H
  H20      1.0000 0.33900  0.14000  0.25800  Biso   1.000  H
  H21      1.0000 0.15400  0.64100  0.60700  Biso   1.000  H
  H22      1.0000 0.84600  0.35900  0.39300  Biso   1.000  H
  H23      1.0000 0.20300  0.48700  0.62700  Biso   1.000  H
  H24      1.0000 0.79700  0.51300  0.37300  Biso   1.000  H
  H25      1.0000 0.51500  0.81600  0.44900  Biso   1.000  H
  H26      1.0000 0.48500  0.18400  0.55100  Biso   1.000  H
  H27      1.0000 0.39100  0.85500  0.53000  Biso   1.000  H
  H28      1.0000 0.60900  0.14500  0.47000  Biso   1.000  H
  H29      1.0000 0.91700  0.85500  0.55400  Biso   1.000  H
  H30      1.0000 0.08300  0.14500  0.44600  Biso   1.000  H
  H31      1.0000 0.93700  0.94500  0.63200  Biso   1.000  H
  H32      1.0000 0.06300  0.05500  0.36800  Biso   1.000  H
