data_image0
_cell_length_a       9.7003
_cell_length_b       10.0093
_cell_length_c       10.7582
_cell_angle_alpha    70.432
_cell_angle_beta     65.339
_cell_angle_gamma    62.375

_symmetry_space_group_name_H-M    "P 1"
_symmetry_int_tables_number       1

loop_
  _symmetry_equiv_pos_as_xyz
  'x, y, z'

loop_
  _atom_site_label
  _atom_site_occupancy
  _atom_site_fract_x
  _atom_site_fract_y
  _atom_site_fract_z
  _atom_site_thermal_displace_type
  _atom_site_B_iso_or_equiv
  _atom_site_type_symbol
  C1       1.0000 0.50290  0.43250  0.41050  Biso   1.000  C
  C2       1.0000 0.49710  0.56750  0.58950  Biso   1.000  C
  H1       1.0000 0.50900  0.38340  0.34550  Biso   1.000  H
  H2       1.0000 0.49100  0.61660  0.65450  Biso   1.000  H
  O1       1.0000 0.14430  0.60810  0.30000  Biso   1.000  O
  O2       1.0000 0.85570  0.39190  0.70000  Biso   1.000  O
  O3       1.0000 0.98350  0.71220  0.54980  Biso   1.000  O
  O4       1.0000 0.01650  0.28780  0.45020  Biso   1.000  O
  C3       1.0000 0.45850  0.10280  0.69840  Biso   1.000  C
  C4       1.0000 0.54150  0.89720  0.30160  Biso   1.000  C
  H3       1.0000 0.34330  0.14150  0.71750  Biso   1.000  H
  H4       1.0000 0.65670  0.85850  0.28250  Biso   1.000  H
  C5       1.0000 0.52770  0.18200  0.72170  Biso   1.000  C
  C6       1.0000 0.47230  0.81800  0.27830  Biso   1.000  C
  H5       1.0000 0.45940  0.27290  0.76010  Biso   1.000  H
  H6       1.0000 0.54060  0.72710  0.23990  Biso   1.000  H
  C7       1.0000 0.69600  0.12950  0.68950  Biso   1.000  C
  C8       1.0000 0.30400  0.87050  0.31050  Biso   1.000  C
  H7       1.0000 0.74310  0.18590  0.70340  Biso   1.000  H
  H8       1.0000 0.25690  0.81410  0.29660  Biso   1.000  H
  C9       1.0000 0.79580  0.99470  0.63690  Biso   1.000  C
  C10      1.0000 0.20420  0.00530  0.36310  Biso   1.000  C
  H9       1.0000 0.91140  0.95930  0.61370  Biso   1.000  H
  H10      1.0000 0.08860  0.04070  0.38630  Biso   1.000  H
  C11      1.0000 0.72680  0.91090  0.61790  Biso   1.000  C
  C12      1.0000 0.27320  0.08910  0.38210  Biso   1.000  C
  C13      1.0000 0.83230  0.75940  0.57120  Biso   1.000  C
  C14      1.0000 0.16770  0.24060  0.42880  Biso   1.000  C
  O5       1.0000 0.76190  0.69000  0.55800  Biso   1.000  O
  O6       1.0000 0.23810  0.31000  0.44200  Biso   1.000  O
  C15      1.0000 0.04200  0.62700  0.24680  Biso   1.000  C
  C16      1.0000 0.95800  0.37300  0.75320  Biso   1.000  C
  O7       1.0000 0.92380  0.58410  0.30900  Biso   1.000  O
  O8       1.0000 0.07620  0.41590  0.69100  Biso   1.000  O
  Cu1      1.0000 0.13000  0.51241  0.49491  Biso   1.000  Cu
  Cu2      1.0000 0.87000  0.48759  0.50509  Biso   1.000  Cu
  C17      1.0000 0.06140  0.70630  0.09950  Biso   1.000  C
  C18      1.0000 0.93860  0.29370  0.90050  Biso   1.000  C
  C19      1.0000 0.16710  0.78450  0.03500  Biso   1.000  C
  C20      1.0000 0.83290  0.21550  0.96500  Biso   1.000  C
  H11      1.0000 0.22770  0.78610  0.08430  Biso   1.000  H
  H12      1.0000 0.77230  0.21390  0.91570  Biso   1.000  H
  C21      1.0000 0.18430  0.86040  0.89790  Biso   1.000  C
  C22      1.0000 0.81570  0.13960  0.10210  Biso   1.000  C
  H13      1.0000 0.25530  0.91500  0.85400  Biso   1.000  H
  H14      1.0000 0.74470  0.08500  0.14600  Biso   1.000  H
  C23      1.0000 0.09790  0.85600  0.82620  Biso   1.000  C
  C24      1.0000 0.90210  0.14400  0.17380  Biso   1.000  C
  H15      1.0000 0.11000  0.90720  0.73250  Biso   1.000  H
  H16      1.0000 0.89000  0.09280  0.26750  Biso   1.000  H
  C25      1.0000 0.99380  0.77740  0.88980  Biso   1.000  C
  C26      1.0000 0.00620  0.22260  0.11020  Biso   1.000  C
  H17      1.0000 0.93550  0.77380  0.83940  Biso   1.000  H
  H18      1.0000 0.06450  0.22620  0.16060  Biso   1.000  H
  C27      1.0000 0.55650  0.96730  0.64730  Biso   1.000  C
  C28      1.0000 0.44350  0.03270  0.35270  Biso   1.000  C
  H19      1.0000 0.50860  0.91250  0.63220  Biso   1.000  H
  H20      1.0000 0.49140  0.08750  0.36780  Biso   1.000  H
  C29      1.0000 0.64610  0.42610  0.41590  Biso   1.000  C
  C30      1.0000 0.35390  0.57390  0.58410  Biso   1.000  C
  H21      1.0000 0.74830  0.37240  0.35480  Biso   1.000  H
  H22      1.0000 0.25170  0.62760  0.64520  Biso   1.000  H
  N1       1.0000 0.35660  0.50590  0.49440  Biso   1.000  N
  N2       1.0000 0.64340  0.49410  0.50560  Biso   1.000  N
  C31      1.0000 0.97400  0.70380  0.02670  Biso   1.000  C
  C32      1.0000 0.02600  0.29620  0.97330  Biso   1.000  C
  H23      1.0000 0.90050  0.65170  0.07060  Biso   1.000  H
  H24      1.0000 0.09950  0.34830  0.92940  Biso   1.000  H
  C33      1.0000 0.64020  0.67190  0.94550  Biso   1.000  C
  C34      1.0000 0.35980  0.32810  0.05450  Biso   1.000  C
  H25      1.0000 0.55750  0.68320  0.90890  Biso   1.000  H
  H26      1.0000 0.44250  0.31680  0.09110  Biso   1.000  H
  H27      1.0000 0.74980  0.62820  0.88080  Biso   1.000  H
  H28      1.0000 0.25020  0.37180  0.11920  Biso   1.000  H
  H29      1.0000 0.62290  0.77240  0.95630  Biso   1.000  H
  H30      1.0000 0.37710  0.22760  0.04370  Biso   1.000  H
  O9       1.0000 0.62610  0.57220  0.07760  Biso   1.000  O
  O10      1.0000 0.37390  0.42780  0.92240  Biso   1.000  O
  H31      1.0000 0.62560  0.49120  0.07100  Biso   1.000  H
  H32      1.0000 0.37440  0.50880  0.92900  Biso   1.000  H
  C35      1.0000 0.59000  0.65630  0.95930  Biso   1.000  C
  C36      1.0000 0.41000  0.34370  0.04070  Biso   1.000  C
  H33      1.0000 0.53600  0.76800  0.95060  Biso   1.000  H
  H34      1.0000 0.46400  0.23200  0.04940  Biso   1.000  H
  H35      1.0000 0.70920  0.62710  0.92870  Biso   1.000  H
  H36      1.0000 0.29080  0.37290  0.07130  Biso   1.000  H
  H37      1.0000 0.55350  0.60880  0.05660  Biso   1.000  H
  H38      1.0000 0.44650  0.39120  0.94340  Biso   1.000  H
  O11      1.0000 0.54980  0.60580  0.87580  Biso   1.000  O
  O12      1.0000 0.45020  0.39420  0.12420  Biso   1.000  O
  H39      1.0000 0.61400  0.51520  0.86640  Biso   1.000  H
  H40      1.0000 0.38600  0.48480  0.13360  Biso   1.000  H
