data_image0
_cell_length_a       10.597
_cell_length_b       11.317
_cell_length_c       17.63
_cell_angle_alpha    90
_cell_angle_beta     90
_cell_angle_gamma    90

_symmetry_space_group_name_H-M    "P 1"
_symmetry_int_tables_number       1

loop_
  _symmetry_equiv_pos_as_xyz
  'x, y, z'

loop_
  _atom_site_label
  _atom_site_occupancy
  _atom_site_fract_x
  _atom_site_fract_y
  _atom_site_fract_z
  _atom_site_thermal_displace_type
  _atom_site_B_iso_or_equiv
  _atom_site_type_symbol
  Cu1      1.0000 0.24930  0.30598  0.89777  Biso   1.000  Cu
  Cu2      1.0000 0.25070  0.69402  0.39777  Biso   1.000  Cu
  Cu3      1.0000 0.74930  0.19402  0.10223  Biso   1.000  Cu
  Cu4      1.0000 0.75070  0.80598  0.60223  Biso   1.000  Cu
  O1       1.0000 0.07920  0.37450  0.05362  Biso   1.000  O
  O2       1.0000 0.42080  0.62550  0.55362  Biso   1.000  O
  O3       1.0000 0.57920  0.12550  0.94638  Biso   1.000  O
  O4       1.0000 0.92080  0.87450  0.44638  Biso   1.000  O
  O5       1.0000 0.14220  0.46020  0.91317  Biso   1.000  O
  O6       1.0000 0.35780  0.53980  0.41317  Biso   1.000  O
  O7       1.0000 0.64220  0.03980  0.08683  Biso   1.000  O
  O8       1.0000 0.85780  0.96020  0.58683  Biso   1.000  O
  H1       1.0000 0.19070  0.51150  0.91890  Biso   1.000  H
  H2       1.0000 0.30930  0.48850  0.41890  Biso   1.000  H
  H3       1.0000 0.69070  0.98850  0.08110  Biso   1.000  H
  H4       1.0000 0.80930  0.01150  0.58110  Biso   1.000  H
  H5       1.0000 0.10930  0.44380  0.95410  Biso   1.000  H
  H6       1.0000 0.39070  0.55620  0.45410  Biso   1.000  H
  H7       1.0000 0.60930  0.05620  0.04590  Biso   1.000  H
  H8       1.0000 0.89070  0.94380  0.54590  Biso   1.000  H
  O9       1.0000 0.22010  0.24730  0.00644  Biso   1.000  O
  O10      1.0000 0.27990  0.75270  0.50644  Biso   1.000  O
  O11      1.0000 0.72010  0.25270  0.99356  Biso   1.000  O
  O12      1.0000 0.77990  0.74730  0.49356  Biso   1.000  O
  O13      1.0000 0.34410  0.14210  0.89060  Biso   1.000  O
  O14      1.0000 0.15590  0.85790  0.39060  Biso   1.000  O
  O15      1.0000 0.84410  0.35790  0.10940  Biso   1.000  O
  O16      1.0000 0.65590  0.64210  0.60940  Biso   1.000  O
  H9       1.0000 0.41230  0.14860  0.89930  Biso   1.000  H
  H10      1.0000 0.08770  0.85140  0.39930  Biso   1.000  H
  H11      1.0000 0.91230  0.35140  0.10070  Biso   1.000  H
  H12      1.0000 0.58770  0.64860  0.60070  Biso   1.000  H
  H13      1.0000 0.30750  0.09740  0.91980  Biso   1.000  H
  H14      1.0000 0.19250  0.90260  0.41980  Biso   1.000  H
  H15      1.0000 0.80750  0.40260  0.08020  Biso   1.000  H
  H16      1.0000 0.69250  0.59740  0.58020  Biso   1.000  H
  O17      1.0000 0.91570  0.11010  0.07384  Biso   1.000  O
  O18      1.0000 0.58430  0.88990  0.57384  Biso   1.000  O
  O19      1.0000 0.41570  0.38990  0.92616  Biso   1.000  O
  O20      1.0000 0.08430  0.61010  0.42616  Biso   1.000  O
  O21      1.0000 0.85380  0.92150  0.06536  Biso   1.000  O
  O22      1.0000 0.64620  0.07850  0.56536  Biso   1.000  O
  O23      1.0000 0.35380  0.57850  0.93464  Biso   1.000  O
  O24      1.0000 0.14620  0.42150  0.43464  Biso   1.000  O
  N1       1.0000 0.09310  0.21690  0.85512  Biso   1.000  N
  N2       1.0000 0.40690  0.78310  0.35512  Biso   1.000  N
  N3       1.0000 0.59310  0.28310  0.14488  Biso   1.000  N
  N4       1.0000 0.90690  0.71690  0.64488  Biso   1.000  N
  N5       1.0000 0.27610  0.32630  0.78231  Biso   1.000  N
  N6       1.0000 0.22390  0.67370  0.28231  Biso   1.000  N
  N7       1.0000 0.77610  0.17370  0.21769  Biso   1.000  N
  N8       1.0000 0.72390  0.82630  0.71769  Biso   1.000  N
  C1       1.0000 0.17420  0.09690  0.13680  Biso   1.000  C
  C2       1.0000 0.32580  0.90310  0.63680  Biso   1.000  C
  C3       1.0000 0.67420  0.40310  0.86320  Biso   1.000  C
  C4       1.0000 0.82580  0.59690  0.36320  Biso   1.000  C
  C5       1.0000 0.15440  0.21820  0.13320  Biso   1.000  C
  C6       1.0000 0.34560  0.78180  0.63320  Biso   1.000  C
  C7       1.0000 0.65440  0.28180  0.86680  Biso   1.000  C
  C8       1.0000 0.84560  0.71820  0.36680  Biso   1.000  C
  C9       1.0000 0.14490  0.28350  0.19950  Biso   1.000  C
  C10      1.0000 0.35510  0.71650  0.69950  Biso   1.000  C
  C11      1.0000 0.64490  0.21650  0.80050  Biso   1.000  C
  C12      1.0000 0.85510  0.78350  0.30050  Biso   1.000  C
  H17      1.0000 0.12540  0.36340  0.19660  Biso   1.000  H
  H18      1.0000 0.37460  0.63660  0.69660  Biso   1.000  H
  H19      1.0000 0.62540  0.13660  0.80340  Biso   1.000  H
  H20      1.0000 0.87460  0.86340  0.30340  Biso   1.000  H
  C13      1.0000 0.16370  0.23250  0.26980  Biso   1.000  C
  C14      1.0000 0.33630  0.76750  0.76980  Biso   1.000  C
  C15      1.0000 0.66370  0.26750  0.73020  Biso   1.000  C
  C16      1.0000 0.83630  0.73250  0.23020  Biso   1.000  C
  H21      1.0000 0.15980  0.27800  0.31370  Biso   1.000  H
  H22      1.0000 0.34020  0.72200  0.81370  Biso   1.000  H
  H23      1.0000 0.65980  0.22200  0.68630  Biso   1.000  H
  H24      1.0000 0.84020  0.77800  0.18630  Biso   1.000  H
  C17      1.0000 0.18860  0.11200  0.27400  Biso   1.000  C
  C18      1.0000 0.31140  0.88800  0.77400  Biso   1.000  C
  C19      1.0000 0.68860  0.38800  0.72600  Biso   1.000  C
  C20      1.0000 0.81140  0.61200  0.22600  Biso   1.000  C
  H25      1.0000 0.20390  0.07650  0.32060  Biso   1.000  H
  H26      1.0000 0.29610  0.92350  0.82060  Biso   1.000  H
  H27      1.0000 0.70390  0.42350  0.67940  Biso   1.000  H
  H28      1.0000 0.79610  0.57650  0.17940  Biso   1.000  H
  C21      1.0000 0.19040  0.04600  0.20870  Biso   1.000  C
  C22      1.0000 0.30960  0.95400  0.70870  Biso   1.000  C
  C23      1.0000 0.69040  0.45400  0.79130  Biso   1.000  C
  C24      1.0000 0.80960  0.54600  0.29130  Biso   1.000  C
  H29      1.0000 0.20290  0.96490  0.21230  Biso   1.000  H
  H30      1.0000 0.29710  0.03510  0.71230  Biso   1.000  H
  H31      1.0000 0.70290  0.53510  0.78770  Biso   1.000  H
  H32      1.0000 0.79710  0.46490  0.28770  Biso   1.000  H
  C25      1.0000 0.14890  0.28450  0.05870  Biso   1.000  C
  C26      1.0000 0.35110  0.71550  0.55870  Biso   1.000  C
  C27      1.0000 0.64890  0.21550  0.94130  Biso   1.000  C
  C28      1.0000 0.85110  0.78450  0.44130  Biso   1.000  C
  C29      1.0000 0.17590  0.01380  0.06990  Biso   1.000  C
  C30      1.0000 0.32410  0.98620  0.56990  Biso   1.000  C
  C31      1.0000 0.67590  0.48620  0.93010  Biso   1.000  C
  C32      1.0000 0.82410  0.51380  0.43010  Biso   1.000  C
  C33      1.0000 0.06700  0.96480  0.03950  Biso   1.000  C
  C34      1.0000 0.43300  0.03520  0.53950  Biso   1.000  C
  C35      1.0000 0.56700  0.53520  0.96050  Biso   1.000  C
  C36      1.0000 0.93300  0.46480  0.46050  Biso   1.000  C
  C37      1.0000 0.07750  0.87500  0.98520  Biso   1.000  C
  C38      1.0000 0.42250  0.12500  0.48520  Biso   1.000  C
  C39      1.0000 0.57750  0.62500  0.01480  Biso   1.000  C
  C40      1.0000 0.92250  0.37500  0.51480  Biso   1.000  C
  H33      1.0000 0.00480  0.84050  0.96560  Biso   1.000  H
  H34      1.0000 0.49520  0.15950  0.46560  Biso   1.000  H
  H35      1.0000 0.50480  0.65950  0.03440  Biso   1.000  H
  H36      1.0000 0.99520  0.34050  0.53440  Biso   1.000  H
  C41      1.0000 0.19370  0.83700  0.96030  Biso   1.000  C
  C42      1.0000 0.30630  0.16300  0.46030  Biso   1.000  C
  C43      1.0000 0.69370  0.66300  0.03970  Biso   1.000  C
  C44      1.0000 0.80630  0.33700  0.53970  Biso   1.000  C
  H37      1.0000 0.19910  0.77790  0.92380  Biso   1.000  H
  H38      1.0000 0.30090  0.22210  0.42380  Biso   1.000  H
  H39      1.0000 0.69910  0.72210  0.07620  Biso   1.000  H
  H40      1.0000 0.80090  0.27790  0.57620  Biso   1.000  H
  C45      1.0000 0.30160  0.88650  0.98950  Biso   1.000  C
  C46      1.0000 0.19840  0.11350  0.48950  Biso   1.000  C
  C47      1.0000 0.80160  0.61350  0.01050  Biso   1.000  C
  C48      1.0000 0.69840  0.38650  0.51050  Biso   1.000  C
  H41      1.0000 0.38000  0.86130  0.97220  Biso   1.000  H
  H42      1.0000 0.12000  0.13870  0.47220  Biso   1.000  H
  H43      1.0000 0.88000  0.63870  0.02780  Biso   1.000  H
  H44      1.0000 0.62000  0.36130  0.52780  Biso   1.000  H
  C49      1.0000 0.29430  0.97450  0.04480  Biso   1.000  C
  C50      1.0000 0.20570  0.02550  0.54480  Biso   1.000  C
  C51      1.0000 0.79430  0.52550  0.95520  Biso   1.000  C
  C52      1.0000 0.70570  0.47450  0.45520  Biso   1.000  C
  H45      1.0000 0.36760  0.00690  0.06490  Biso   1.000  H
  H46      1.0000 0.13240  0.99310  0.56490  Biso   1.000  H
  H47      1.0000 0.86760  0.49310  0.93510  Biso   1.000  H
  H48      1.0000 0.63240  0.50690  0.43510  Biso   1.000  H
  C53      1.0000 0.93420  0.00140  0.06240  Biso   1.000  C
  C54      1.0000 0.56580  0.99860  0.56240  Biso   1.000  C
  C55      1.0000 0.43420  0.49860  0.93760  Biso   1.000  C
  C56      1.0000 0.06580  0.50140  0.43760  Biso   1.000  C
  C57      1.0000 0.09300  0.20270  0.77930  Biso   1.000  C
  C58      1.0000 0.40700  0.79730  0.27930  Biso   1.000  C
  C59      1.0000 0.59300  0.29730  0.22070  Biso   1.000  C
  C60      1.0000 0.90700  0.70270  0.72070  Biso   1.000  C
  C61      1.0000 0.00660  0.12830  0.74380  Biso   1.000  C
  C62      1.0000 0.49340  0.87170  0.24380  Biso   1.000  C
  C63      1.0000 0.50660  0.37170  0.25620  Biso   1.000  C
  C64      1.0000 0.99340  0.62830  0.75620  Biso   1.000  C
  H49      1.0000 0.00910  0.11720  0.69160  Biso   1.000  H
  H50      1.0000 0.49090  0.88280  0.19160  Biso   1.000  H
  H51      1.0000 0.50910  0.38280  0.30840  Biso   1.000  H
  H52      1.0000 0.99090  0.61720  0.80840  Biso   1.000  H
  C65      1.0000 0.91740  0.07130  0.78720  Biso   1.000  C
  C66      1.0000 0.58260  0.92870  0.28720  Biso   1.000  C
  C67      1.0000 0.41740  0.42870  0.21280  Biso   1.000  C
  C68      1.0000 0.08260  0.57130  0.71280  Biso   1.000  C
  H53      1.0000 0.85960  0.02070  0.76440  Biso   1.000  H
  H54      1.0000 0.64040  0.97930  0.26440  Biso   1.000  H
  H55      1.0000 0.35960  0.47930  0.23560  Biso   1.000  H
  H56      1.0000 0.14040  0.52070  0.73560  Biso   1.000  H
  C69      1.0000 0.91410  0.08940  0.86470  Biso   1.000  C
  C70      1.0000 0.58590  0.91060  0.36470  Biso   1.000  C
  C71      1.0000 0.41410  0.41060  0.13530  Biso   1.000  C
  C72      1.0000 0.08590  0.58940  0.63530  Biso   1.000  C
  H57      1.0000 0.85340  0.05280  0.89480  Biso   1.000  H
  H58      1.0000 0.64660  0.94720  0.39480  Biso   1.000  H
  H59      1.0000 0.35340  0.44720  0.10520  Biso   1.000  H
  H60      1.0000 0.14660  0.55280  0.60520  Biso   1.000  H
  C73      1.0000 0.00440  0.16400  0.89650  Biso   1.000  C
  C74      1.0000 0.49560  0.83600  0.39650  Biso   1.000  C
  C75      1.0000 0.50440  0.33600  0.10350  Biso   1.000  C
  C76      1.0000 0.99560  0.66400  0.60350  Biso   1.000  C
  H61      1.0000 0.00270  0.17740  0.94860  Biso   1.000  H
  H62      1.0000 0.49730  0.82260  0.44860  Biso   1.000  H
  H63      1.0000 0.50270  0.32260  0.05140  Biso   1.000  H
  H64      1.0000 0.99730  0.67740  0.55140  Biso   1.000  H
  C77      1.0000 0.19120  0.26980  0.73850  Biso   1.000  C
  C78      1.0000 0.30880  0.73020  0.23850  Biso   1.000  C
  C79      1.0000 0.69120  0.23020  0.26150  Biso   1.000  C
  C80      1.0000 0.80880  0.76980  0.76150  Biso   1.000  C
  C81      1.0000 0.19780  0.27600  0.65970  Biso   1.000  C
  C82      1.0000 0.30220  0.72400  0.15970  Biso   1.000  C
  C83      1.0000 0.69780  0.22400  0.34030  Biso   1.000  C
  C84      1.0000 0.80220  0.77600  0.84030  Biso   1.000  C
  H65      1.0000 0.13800  0.23730  0.63010  Biso   1.000  H
  H66      1.0000 0.36200  0.76270  0.13010  Biso   1.000  H
  H67      1.0000 0.63800  0.26270  0.36990  Biso   1.000  H
  H68      1.0000 0.86200  0.73730  0.86990  Biso   1.000  H
  C85      1.0000 0.29270  0.33930  0.62560  Biso   1.000  C
  C86      1.0000 0.20730  0.66070  0.12560  Biso   1.000  C
  C87      1.0000 0.79270  0.16070  0.37440  Biso   1.000  C
  C88      1.0000 0.70730  0.83930  0.87440  Biso   1.000  C
  H69      1.0000 0.29750  0.34460  0.57300  Biso   1.000  H
  H70      1.0000 0.20250  0.65540  0.07300  Biso   1.000  H
  H71      1.0000 0.79750  0.15540  0.42700  Biso   1.000  H
  H72      1.0000 0.70250  0.84460  0.92700  Biso   1.000  H
  C89      1.0000 0.38090  0.39480  0.67080  Biso   1.000  C
  C90      1.0000 0.11910  0.60520  0.17080  Biso   1.000  C
  C91      1.0000 0.88090  0.10520  0.32920  Biso   1.000  C
  C92      1.0000 0.61910  0.89480  0.82920  Biso   1.000  C
  H73      1.0000 0.44670  0.43750  0.64920  Biso   1.000  H
  H74      1.0000 0.05330  0.56250  0.14920  Biso   1.000  H
  H75      1.0000 0.94670  0.06250  0.35080  Biso   1.000  H
  H76      1.0000 0.55330  0.93750  0.85080  Biso   1.000  H
  C93      1.0000 0.36990  0.38600  0.74850  Biso   1.000  C
  C94      1.0000 0.13010  0.61400  0.24850  Biso   1.000  C
  C95      1.0000 0.86990  0.11400  0.25150  Biso   1.000  C
  C96      1.0000 0.63010  0.88600  0.75150  Biso   1.000  C
  H77      1.0000 0.43010  0.42300  0.77870  Biso   1.000  H
  H78      1.0000 0.06990  0.57700  0.27870  Biso   1.000  H
  H79      1.0000 0.93010  0.07700  0.22130  Biso   1.000  H
  H80      1.0000 0.56990  0.92300  0.72130  Biso   1.000  H
