data_image0
_cell_length_a       12.615
_cell_length_b       9.514
_cell_length_c       13.721
_cell_angle_alpha    90
_cell_angle_beta     116.58
_cell_angle_gamma    90

_symmetry_space_group_name_H-M    "P 1"
_symmetry_int_tables_number       1

loop_
  _symmetry_equiv_pos_as_xyz
  'x, y, z'

loop_
  _atom_site_label
  _atom_site_occupancy
  _atom_site_fract_x
  _atom_site_fract_y
  _atom_site_fract_z
  _atom_site_thermal_displace_type
  _atom_site_B_iso_or_equiv
  _atom_site_type_symbol
  Cu1      1.0000 0.23252  0.24655  0.45955  Biso   1.000  Cu
  Cu2      1.0000 0.26748  0.74655  0.04045  Biso   1.000  Cu
  Cu3      1.0000 0.76748  0.75345  0.54045  Biso   1.000  Cu
  Cu4      1.0000 0.73252  0.25345  0.95955  Biso   1.000  Cu
  N1       1.0000 0.37020  0.46890  0.38450  Biso   1.000  N
  N2       1.0000 0.12980  0.96890  0.11550  Biso   1.000  N
  N3       1.0000 0.62980  0.53110  0.61550  Biso   1.000  N
  N4       1.0000 0.87020  0.03110  0.88450  Biso   1.000  N
  N5       1.0000 0.34520  0.22520  0.39884  Biso   1.000  N
  N6       1.0000 0.15480  0.72520  0.10116  Biso   1.000  N
  N7       1.0000 0.65480  0.77480  0.60116  Biso   1.000  N
  N8       1.0000 0.84520  0.27480  0.89884  Biso   1.000  N
  N9       1.0000 0.21220  0.44870  0.43063  Biso   1.000  N
  N10      1.0000 0.28780  0.94870  0.06937  Biso   1.000  N
  N11      1.0000 0.78780  0.55130  0.56937  Biso   1.000  N
  N12      1.0000 0.71220  0.05130  0.93063  Biso   1.000  N
  N13      1.0000 0.49850  0.29840  0.73080  Biso   1.000  N
  N14      1.0000 0.00150  0.79840  0.76920  Biso   1.000  N
  N15      1.0000 0.50150  0.70160  0.26920  Biso   1.000  N
  N16      1.0000 0.99850  0.20160  0.23080  Biso   1.000  N
  O1       1.0000 0.45460  0.21200  0.76640  Biso   1.000  O
  O2       1.0000 0.04540  0.71200  0.73360  Biso   1.000  O
  O3       1.0000 0.54540  0.78800  0.23360  Biso   1.000  O
  O4       1.0000 0.95460  0.28800  0.26640  Biso   1.000  O
  O5       1.0000 0.45360  0.33060  0.63201  Biso   1.000  O
  O6       1.0000 0.04640  0.83060  0.86799  Biso   1.000  O
  O7       1.0000 0.54640  0.66940  0.36799  Biso   1.000  O
  O8       1.0000 0.95360  0.16940  0.13201  Biso   1.000  O
  O9       1.0000 0.59150  0.36090  0.79250  Biso   1.000  O
  O10      1.0000 0.90850  0.86090  0.70750  Biso   1.000  O
  O11      1.0000 0.40850  0.63910  0.20750  Biso   1.000  O
  O12      1.0000 0.09150  0.13910  0.29250  Biso   1.000  O
  O13      1.0000 0.14440  0.22520  0.54840  Biso   1.000  O
  O14      1.0000 0.35560  0.72520  0.95160  Biso   1.000  O
  O15      1.0000 0.85560  0.77480  0.45160  Biso   1.000  O
  O16      1.0000 0.64440  0.27480  0.04840  Biso   1.000  O
  O17      1.0000 0.24595  0.05570  0.52834  Biso   1.000  O
  O18      1.0000 0.25405  0.55570  0.97166  Biso   1.000  O
  O19      1.0000 0.75405  0.94430  0.47166  Biso   1.000  O
  O20      1.0000 0.74595  0.44430  0.02834  Biso   1.000  O
  C1       1.0000 0.37860  0.09250  0.38820  Biso   1.000  C
  C2       1.0000 0.12140  0.59250  0.11180  Biso   1.000  C
  C3       1.0000 0.62140  0.90750  0.61180  Biso   1.000  C
  C4       1.0000 0.87860  0.40750  0.88820  Biso   1.000  C
  C5       1.0000 0.46710  0.06450  0.36040  Biso   1.000  C
  C6       1.0000 0.03290  0.56450  0.13960  Biso   1.000  C
  C7       1.0000 0.53290  0.93550  0.63960  Biso   1.000  C
  C8       1.0000 0.96710  0.43550  0.86040  Biso   1.000  C
  C9       1.0000 0.52610  0.17380  0.34260  Biso   1.000  C
  C10      1.0000 0.97390  0.67380  0.15740  Biso   1.000  C
  C11      1.0000 0.47390  0.82620  0.65740  Biso   1.000  C
  C12      1.0000 0.02610  0.32620  0.84260  Biso   1.000  C
  C13      1.0000 0.49390  0.30840  0.35090  Biso   1.000  C
  C14      1.0000 0.00610  0.80840  0.14910  Biso   1.000  C
  C15      1.0000 0.50610  0.69160  0.64910  Biso   1.000  C
  C16      1.0000 0.99390  0.19160  0.85090  Biso   1.000  C
  C17      1.0000 0.40100  0.33180  0.37840  Biso   1.000  C
  C18      1.0000 0.09900  0.83180  0.12160  Biso   1.000  C
  C19      1.0000 0.59900  0.66820  0.62160  Biso   1.000  C
  C20      1.0000 0.90100  0.16820  0.87840  Biso   1.000  C
  C21      1.0000 0.28260  0.52780  0.40440  Biso   1.000  C
  C22      1.0000 0.21740  0.02780  0.09560  Biso   1.000  C
  C23      1.0000 0.71740  0.47220  0.59560  Biso   1.000  C
  C24      1.0000 0.78260  0.97220  0.90440  Biso   1.000  C
  C25      1.0000 0.26990  0.67500  0.39650  Biso   1.000  C
  C26      1.0000 0.23010  0.17500  0.10350  Biso   1.000  C
  C27      1.0000 0.73010  0.32500  0.60350  Biso   1.000  C
  C28      1.0000 0.76990  0.82500  0.89650  Biso   1.000  C
  C29      1.0000 0.18500  0.73710  0.41590  Biso   1.000  C
  C30      1.0000 0.31500  0.23710  0.08410  Biso   1.000  C
  C31      1.0000 0.81500  0.26290  0.58410  Biso   1.000  C
  C32      1.0000 0.68500  0.76290  0.91590  Biso   1.000  C
  C33      1.0000 0.10990  0.65570  0.44100  Biso   1.000  C
  C34      1.0000 0.39010  0.15570  0.05900  Biso   1.000  C
  C35      1.0000 0.89010  0.34430  0.55900  Biso   1.000  C
  C36      1.0000 0.60990  0.84430  0.94100  Biso   1.000  C
  C37      1.0000 0.12590  0.51380  0.44750  Biso   1.000  C
  C38      1.0000 0.37410  0.01380  0.05250  Biso   1.000  C
  C39      1.0000 0.87410  0.48620  0.55250  Biso   1.000  C
  C40      1.0000 0.62590  0.98620  0.94750  Biso   1.000  C
  C41      1.0000 0.18140  0.10060  0.56940  Biso   1.000  C
  C42      1.0000 0.31860  0.60060  0.93060  Biso   1.000  C
  C43      1.0000 0.81860  0.89940  0.43060  Biso   1.000  C
  C44      1.0000 0.68140  0.39940  0.06940  Biso   1.000  C
  C45      1.0000 0.14940  0.00960  0.64200  Biso   1.000  C
  C46      1.0000 0.35060  0.50960  0.85800  Biso   1.000  C
  C47      1.0000 0.85060  0.99040  0.35800  Biso   1.000  C
  C48      1.0000 0.64940  0.49040  0.14200  Biso   1.000  C
  H1       1.0000 0.15240  0.91290  0.62340  Biso   1.000  H
  H2       1.0000 0.34760  0.41290  0.87660  Biso   1.000  H
  H3       1.0000 0.84760  0.08710  0.37660  Biso   1.000  H
  H4       1.0000 0.65240  0.58710  0.12340  Biso   1.000  H
  H5       1.0000 0.06920  0.03040  0.62730  Biso   1.000  H
  H6       1.0000 0.43080  0.53040  0.87270  Biso   1.000  H
  H7       1.0000 0.93080  0.96960  0.37270  Biso   1.000  H
  H8       1.0000 0.56920  0.46960  0.12730  Biso   1.000  H
  C49      1.0000 0.22330  0.02680  0.75390  Biso   1.000  C
  C50      1.0000 0.27670  0.52680  0.74610  Biso   1.000  C
  C51      1.0000 0.77670  0.97320  0.24610  Biso   1.000  C
  C52      1.0000 0.72330  0.47320  0.25390  Biso   1.000  C
  H9       1.0000 0.19840  0.96640  0.79580  Biso   1.000  H
  H10      1.0000 0.30160  0.46640  0.70420  Biso   1.000  H
  H11      1.0000 0.80160  0.03360  0.20420  Biso   1.000  H
  H12      1.0000 0.69840  0.53360  0.29580  Biso   1.000  H
  H13      1.0000 0.30320  0.00420  0.76860  Biso   1.000  H
  H14      1.0000 0.19680  0.50420  0.73140  Biso   1.000  H
  H15      1.0000 0.69680  0.99580  0.23140  Biso   1.000  H
  H16      1.0000 0.80320  0.49580  0.26860  Biso   1.000  H
  H17      1.0000 0.21950  0.12290  0.77340  Biso   1.000  H
  H18      1.0000 0.28050  0.62290  0.72660  Biso   1.000  H
  H19      1.0000 0.78050  0.87710  0.22660  Biso   1.000  H
  H20      1.0000 0.71950  0.37710  0.27340  Biso   1.000  H
  H21      1.0000 0.33860  0.02120  0.39670  Biso   1.000  H
  H22      1.0000 0.16140  0.52120  0.10330  Biso   1.000  H
  H23      1.0000 0.66140  0.97880  0.60330  Biso   1.000  H
  H24      1.0000 0.83860  0.47880  0.89670  Biso   1.000  H
  H25      1.0000 0.48170  0.98740  0.35640  Biso   1.000  H
  H26      1.0000 0.01830  0.48740  0.14360  Biso   1.000  H
  H27      1.0000 0.51830  0.01260  0.64360  Biso   1.000  H
  H28      1.0000 0.98170  0.51260  0.85640  Biso   1.000  H
  H29      1.0000 0.58710  0.17190  0.32450  Biso   1.000  H
  H30      1.0000 0.91290  0.67190  0.17550  Biso   1.000  H
  H31      1.0000 0.41290  0.82810  0.67550  Biso   1.000  H
  H32      1.0000 0.08710  0.32810  0.82450  Biso   1.000  H
  H33      1.0000 0.53040  0.37130  0.34180  Biso   1.000  H
  H34      1.0000 0.96960  0.87130  0.15820  Biso   1.000  H
  H35      1.0000 0.46960  0.62870  0.65820  Biso   1.000  H
  H36      1.0000 0.03040  0.12870  0.84180  Biso   1.000  H
  H37      1.0000 0.31830  0.72860  0.38540  Biso   1.000  H
  H38      1.0000 0.18170  0.22860  0.11460  Biso   1.000  H
  H39      1.0000 0.68170  0.27140  0.61460  Biso   1.000  H
  H40      1.0000 0.81830  0.77140  0.88540  Biso   1.000  H
  H41      1.0000 0.17880  0.82360  0.41250  Biso   1.000  H
  H42      1.0000 0.32120  0.32360  0.08750  Biso   1.000  H
  H43      1.0000 0.82120  0.17640  0.58750  Biso   1.000  H
  H44      1.0000 0.67880  0.67640  0.91250  Biso   1.000  H
  H45      1.0000 0.05600  0.68410  0.45700  Biso   1.000  H
  H46      1.0000 0.44400  0.18410  0.04300  Biso   1.000  H
  H47      1.0000 0.94400  0.31590  0.54300  Biso   1.000  H
  H48      1.0000 0.55600  0.81590  0.95700  Biso   1.000  H
  H49      1.0000 0.07810  0.45380  0.46440  Biso   1.000  H
  H50      1.0000 0.42190  0.95380  0.03560  Biso   1.000  H
  H51      1.0000 0.92190  0.54620  0.53560  Biso   1.000  H
  H52      1.0000 0.57810  0.04620  0.96440  Biso   1.000  H
  H53      1.0000 0.40660  0.51860  0.37390  Biso   1.000  H
  H54      1.0000 0.09340  0.01860  0.12610  Biso   1.000  H
  H55      1.0000 0.59340  0.48140  0.62610  Biso   1.000  H
  H56      1.0000 0.90660  0.98140  0.87390  Biso   1.000  H
