data_image0
_cell_length_a       11.253
_cell_length_b       13.033
_cell_length_c       17.563
_cell_angle_alpha    90
_cell_angle_beta     90
_cell_angle_gamma    90

_symmetry_space_group_name_H-M    "P 1"
_symmetry_int_tables_number       1

loop_
  _symmetry_equiv_pos_as_xyz
  'x, y, z'

loop_
  _atom_site_label
  _atom_site_occupancy
  _atom_site_fract_x
  _atom_site_fract_y
  _atom_site_fract_z
  _atom_site_thermal_displace_type
  _atom_site_B_iso_or_equiv
  _atom_site_type_symbol
  H1       1.0000 0.10160  0.87370  0.22680  Biso   1.000  H
  H2       1.0000 0.39840  0.62630  0.72680  Biso   1.000  H
  H3       1.0000 0.89840  0.87370  0.27320  Biso   1.000  H
  H4       1.0000 0.60160  0.62630  0.77320  Biso   1.000  H
  H5       1.0000 0.89840  0.12630  0.77320  Biso   1.000  H
  H6       1.0000 0.60160  0.37370  0.27320  Biso   1.000  H
  H7       1.0000 0.10160  0.12630  0.72680  Biso   1.000  H
  H8       1.0000 0.39840  0.37370  0.22680  Biso   1.000  H
  H9       1.0000 0.19690  0.78850  0.12950  Biso   1.000  H
  H10      1.0000 0.30310  0.71150  0.62950  Biso   1.000  H
  H11      1.0000 0.80310  0.78850  0.37050  Biso   1.000  H
  H12      1.0000 0.69690  0.71150  0.87050  Biso   1.000  H
  H13      1.0000 0.80310  0.21150  0.87050  Biso   1.000  H
  H14      1.0000 0.69690  0.28850  0.37050  Biso   1.000  H
  H15      1.0000 0.19690  0.21150  0.62950  Biso   1.000  H
  H16      1.0000 0.30310  0.28850  0.12950  Biso   1.000  H
  H17      1.0000 0.19660  0.03000  0.93190  Biso   1.000  H
  H18      1.0000 0.30340  0.47000  0.43190  Biso   1.000  H
  H19      1.0000 0.80340  0.03000  0.56810  Biso   1.000  H
  H20      1.0000 0.69660  0.47000  0.06810  Biso   1.000  H
  H21      1.0000 0.80340  0.97000  0.06810  Biso   1.000  H
  H22      1.0000 0.69660  0.53000  0.56810  Biso   1.000  H
  H23      1.0000 0.19660  0.97000  0.43190  Biso   1.000  H
  H24      1.0000 0.30340  0.53000  0.93190  Biso   1.000  H
  H25      1.0000 0.12540  0.19070  0.92110  Biso   1.000  H
  H26      1.0000 0.37460  0.30930  0.42110  Biso   1.000  H
  H27      1.0000 0.87460  0.19070  0.57890  Biso   1.000  H
  H28      1.0000 0.62540  0.30930  0.07890  Biso   1.000  H
  H29      1.0000 0.87460  0.80930  0.07890  Biso   1.000  H
  H30      1.0000 0.62540  0.69070  0.57890  Biso   1.000  H
  H31      1.0000 0.12540  0.80930  0.42110  Biso   1.000  H
  H32      1.0000 0.37460  0.69070  0.92110  Biso   1.000  H
  H33      1.0000 0.01790  0.34580  0.98330  Biso   1.000  H
  H34      1.0000 0.48210  0.15420  0.48330  Biso   1.000  H
  H35      1.0000 0.98210  0.34580  0.51670  Biso   1.000  H
  H36      1.0000 0.51790  0.15420  0.01670  Biso   1.000  H
  H37      1.0000 0.98210  0.65420  0.01670  Biso   1.000  H
  H38      1.0000 0.51790  0.84580  0.51670  Biso   1.000  H
  H39      1.0000 0.01790  0.65420  0.48330  Biso   1.000  H
  H40      1.0000 0.48210  0.84580  0.98330  Biso   1.000  H
  H41      1.0000 0.92630  0.41250  0.08850  Biso   1.000  H
  H42      1.0000 0.57370  0.08750  0.58850  Biso   1.000  H
  H43      1.0000 0.07370  0.41250  0.41150  Biso   1.000  H
  H44      1.0000 0.42630  0.08750  0.91150  Biso   1.000  H
  H45      1.0000 0.07370  0.58750  0.91150  Biso   1.000  H
  H46      1.0000 0.42630  0.91250  0.41150  Biso   1.000  H
  H47      1.0000 0.92630  0.58750  0.58850  Biso   1.000  H
  H48      1.0000 0.57370  0.91250  0.08850  Biso   1.000  H
  H49      1.0000 0.92210  0.31940  0.19950  Biso   1.000  H
  H50      1.0000 0.57790  0.18060  0.69950  Biso   1.000  H
  H51      1.0000 0.07790  0.31940  0.30050  Biso   1.000  H
  H52      1.0000 0.42210  0.18060  0.80050  Biso   1.000  H
  H53      1.0000 0.07790  0.68060  0.80050  Biso   1.000  H
  H54      1.0000 0.42210  0.81940  0.30050  Biso   1.000  H
  H55      1.0000 0.92210  0.68060  0.69950  Biso   1.000  H
  H56      1.0000 0.57790  0.81940  0.19950  Biso   1.000  H
  H57      1.0000 0.22620  0.86900  0.01470  Biso   1.000  H
  H58      1.0000 0.27380  0.63100  0.51470  Biso   1.000  H
  H59      1.0000 0.77380  0.86900  0.48530  Biso   1.000  H
  H60      1.0000 0.72620  0.63100  0.98530  Biso   1.000  H
  H61      1.0000 0.77380  0.13100  0.98530  Biso   1.000  H
  H62      1.0000 0.72620  0.36900  0.48530  Biso   1.000  H
  H63      1.0000 0.22620  0.13100  0.51470  Biso   1.000  H
  H64      1.0000 0.27380  0.36900  0.01470  Biso   1.000  H
  N1       1.0000 0.07100  0.00290  0.17280  Biso   1.000  N
  N2       1.0000 0.42900  0.49710  0.67280  Biso   1.000  N
  N3       1.0000 0.92900  0.00290  0.32720  Biso   1.000  N
  N4       1.0000 0.57100  0.49710  0.82720  Biso   1.000  N
  N5       1.0000 0.92900  0.99710  0.82720  Biso   1.000  N
  N6       1.0000 0.57100  0.50290  0.32720  Biso   1.000  N
  N7       1.0000 0.07100  0.99710  0.67280  Biso   1.000  N
  N8       1.0000 0.42900  0.50290  0.17280  Biso   1.000  N
  N9       1.0000 0.00070  0.19620  0.16230  Biso   1.000  N
  N10      1.0000 0.49930  0.30380  0.66230  Biso   1.000  N
  N11      1.0000 0.99930  0.19620  0.33770  Biso   1.000  N
  N12      1.0000 0.50070  0.30380  0.83770  Biso   1.000  N
  N13      1.0000 0.99930  0.80380  0.83770  Biso   1.000  N
  N14      1.0000 0.50070  0.69620  0.33770  Biso   1.000  N
  N15      1.0000 0.00070  0.80380  0.66230  Biso   1.000  N
  N16      1.0000 0.49930  0.69620  0.16230  Biso   1.000  N
  C1       1.0000 0.11220  0.90700  0.18050  Biso   1.000  C
  C2       1.0000 0.38780  0.59300  0.68050  Biso   1.000  C
  C3       1.0000 0.88780  0.90700  0.31950  Biso   1.000  C
  C4       1.0000 0.61220  0.59300  0.81950  Biso   1.000  C
  C5       1.0000 0.88780  0.09300  0.81950  Biso   1.000  C
  C6       1.0000 0.61220  0.40700  0.31950  Biso   1.000  C
  C7       1.0000 0.11220  0.09300  0.68050  Biso   1.000  C
  C8       1.0000 0.38780  0.40700  0.18050  Biso   1.000  C
  C9       1.0000 0.17020  0.85530  0.12220  Biso   1.000  C
  C10      1.0000 0.32980  0.64470  0.62220  Biso   1.000  C
  C11      1.0000 0.82980  0.85530  0.37780  Biso   1.000  C
  C12      1.0000 0.67020  0.64470  0.87780  Biso   1.000  C
  C13      1.0000 0.82980  0.14470  0.87780  Biso   1.000  C
  C14      1.0000 0.67020  0.35530  0.37780  Biso   1.000  C
  C15      1.0000 0.17020  0.14470  0.62220  Biso   1.000  C
  C16      1.0000 0.32980  0.35530  0.12220  Biso   1.000  C
  C17      1.0000 0.18780  0.90330  0.05410  Biso   1.000  C
  C18      1.0000 0.31220  0.59670  0.55410  Biso   1.000  C
  C19      1.0000 0.81220  0.90330  0.44590  Biso   1.000  C
  C20      1.0000 0.68780  0.59670  0.94590  Biso   1.000  C
  C21      1.0000 0.81220  0.09670  0.94590  Biso   1.000  C
  C22      1.0000 0.68780  0.40330  0.44590  Biso   1.000  C
  C23      1.0000 0.18780  0.09670  0.55410  Biso   1.000  C
  C24      1.0000 0.31220  0.40330  0.05410  Biso   1.000  C
  C25      1.0000 0.14830  0.00380  0.04350  Biso   1.000  C
  C26      1.0000 0.35170  0.49620  0.54350  Biso   1.000  C
  C27      1.0000 0.85170  0.00380  0.45650  Biso   1.000  C
  C28      1.0000 0.64830  0.49620  0.95650  Biso   1.000  C
  C29      1.0000 0.85170  0.99620  0.95650  Biso   1.000  C
  C30      1.0000 0.64830  0.50380  0.45650  Biso   1.000  C
  C31      1.0000 0.14830  0.99620  0.54350  Biso   1.000  C
  C32      1.0000 0.35170  0.50380  0.04350  Biso   1.000  C
  C33      1.0000 0.15960  0.06040  0.97350  Biso   1.000  C
  C34      1.0000 0.34040  0.43960  0.47350  Biso   1.000  C
  C35      1.0000 0.84040  0.06040  0.52650  Biso   1.000  C
  C36      1.0000 0.65960  0.43960  0.02650  Biso   1.000  C
  C37      1.0000 0.84040  0.93960  0.02650  Biso   1.000  C
  C38      1.0000 0.65960  0.56040  0.52650  Biso   1.000  C
  C39      1.0000 0.15960  0.93960  0.47350  Biso   1.000  C
  C40      1.0000 0.34040  0.56040  0.97350  Biso   1.000  C
  C41      1.0000 0.11750  0.15610  0.96720  Biso   1.000  C
  C42      1.0000 0.38250  0.34390  0.46720  Biso   1.000  C
  C43      1.0000 0.88250  0.15610  0.53280  Biso   1.000  C
  C44      1.0000 0.61750  0.34390  0.03280  Biso   1.000  C
  C45      1.0000 0.88250  0.84390  0.03280  Biso   1.000  C
  C46      1.0000 0.61750  0.65610  0.53280  Biso   1.000  C
  C47      1.0000 0.11750  0.84390  0.46720  Biso   1.000  C
  C48      1.0000 0.38250  0.65610  0.96720  Biso   1.000  C
  C49      1.0000 0.06170  0.20700  0.02990  Biso   1.000  C
  C50      1.0000 0.43830  0.29300  0.52990  Biso   1.000  C
  C51      1.0000 0.93830  0.20700  0.47010  Biso   1.000  C
  C52      1.0000 0.56170  0.29300  0.97010  Biso   1.000  C
  C53      1.0000 0.93830  0.79300  0.97010  Biso   1.000  C
  C54      1.0000 0.56170  0.70700  0.47010  Biso   1.000  C
  C55      1.0000 0.06170  0.79300  0.52990  Biso   1.000  C
  C56      1.0000 0.43830  0.70700  0.02990  Biso   1.000  C
  C57      1.0000 0.01320  0.30720  0.02780  Biso   1.000  C
  C58      1.0000 0.48680  0.19280  0.52780  Biso   1.000  C
  C59      1.0000 0.98680  0.30720  0.47220  Biso   1.000  C
  C60      1.0000 0.51320  0.19280  0.97220  Biso   1.000  C
  C61      1.0000 0.98680  0.69280  0.97220  Biso   1.000  C
  C62      1.0000 0.51320  0.80720  0.47220  Biso   1.000  C
  C63      1.0000 0.01320  0.69280  0.52780  Biso   1.000  C
  C64      1.0000 0.48680  0.80720  0.02780  Biso   1.000  C
  C65      1.0000 0.95980  0.34740  0.09010  Biso   1.000  C
  C66      1.0000 0.54020  0.15260  0.59010  Biso   1.000  C
  C67      1.0000 0.04020  0.34740  0.40990  Biso   1.000  C
  C68      1.0000 0.45980  0.15260  0.90990  Biso   1.000  C
  C69      1.0000 0.04020  0.65260  0.90990  Biso   1.000  C
  C70      1.0000 0.45980  0.84740  0.40990  Biso   1.000  C
  C71      1.0000 0.95980  0.65260  0.59010  Biso   1.000  C
  C72      1.0000 0.54020  0.84740  0.09010  Biso   1.000  C
  C73      1.0000 0.95700  0.29020  0.15660  Biso   1.000  C
  C74      1.0000 0.54300  0.20980  0.65660  Biso   1.000  C
  C75      1.0000 0.04300  0.29020  0.34340  Biso   1.000  C
  C76      1.0000 0.45700  0.20980  0.84340  Biso   1.000  C
  C77      1.0000 0.04300  0.70980  0.84340  Biso   1.000  C
  C78      1.0000 0.45700  0.79020  0.34340  Biso   1.000  C
  C79      1.0000 0.95700  0.70980  0.65660  Biso   1.000  C
  C80      1.0000 0.54300  0.79020  0.15660  Biso   1.000  C
  C81      1.0000 0.05140  0.15440  0.09920  Biso   1.000  C
  C82      1.0000 0.44860  0.34560  0.59920  Biso   1.000  C
  C83      1.0000 0.94860  0.15440  0.40080  Biso   1.000  C
  C84      1.0000 0.55140  0.34560  0.90080  Biso   1.000  C
  C85      1.0000 0.94860  0.84560  0.90080  Biso   1.000  C
  C86      1.0000 0.55140  0.65440  0.40080  Biso   1.000  C
  C87      1.0000 0.05140  0.84560  0.59920  Biso   1.000  C
  C88      1.0000 0.44860  0.65440  0.09920  Biso   1.000  C
  C89      1.0000 0.09080  0.05050  0.10520  Biso   1.000  C
  C90      1.0000 0.40920  0.44950  0.60520  Biso   1.000  C
  C91      1.0000 0.90920  0.05050  0.39480  Biso   1.000  C
  C92      1.0000 0.59080  0.44950  0.89480  Biso   1.000  C
  C93      1.0000 0.90920  0.94950  0.89480  Biso   1.000  C
  C94      1.0000 0.59080  0.55050  0.39480  Biso   1.000  C
  C95      1.0000 0.09080  0.94950  0.60520  Biso   1.000  C
  C96      1.0000 0.40920  0.55050  0.10520  Biso   1.000  C
  Cu1      1.0000 0.00000  0.09810  0.25000  Biso   1.000  Cu
  Cu2      1.0000 0.50000  0.40190  0.75000  Biso   1.000  Cu
  Cu3      1.0000 0.00000  0.90190  0.75000  Biso   1.000  Cu
  Cu4      1.0000 0.50000  0.59810  0.25000  Biso   1.000  Cu
  S1       1.0000 0.67850  0.12930  0.19761  Biso   1.000  S
  S2       1.0000 0.82150  0.37070  0.69761  Biso   1.000  S
  S3       1.0000 0.32150  0.12930  0.30239  Biso   1.000  S
  S4       1.0000 0.17850  0.37070  0.80239  Biso   1.000  S
  S5       1.0000 0.32150  0.87070  0.80239  Biso   1.000  S
  S6       1.0000 0.17850  0.62930  0.30239  Biso   1.000  S
  S7       1.0000 0.67850  0.87070  0.69761  Biso   1.000  S
  S8       1.0000 0.82150  0.62930  0.19761  Biso   1.000  S
  S9       1.0000 0.58340  0.03058  0.27133  Biso   1.000  S
  S10      1.0000 0.91660  0.46942  0.77133  Biso   1.000  S
  S11      1.0000 0.41660  0.03058  0.22867  Biso   1.000  S
  S12      1.0000 0.08340  0.46942  0.72867  Biso   1.000  S
  S13      1.0000 0.41660  0.96942  0.72867  Biso   1.000  S
  S14      1.0000 0.08340  0.53058  0.22867  Biso   1.000  S
  S15      1.0000 0.58340  0.96942  0.77133  Biso   1.000  S
  S16      1.0000 0.91660  0.53058  0.27133  Biso   1.000  S
  O1       1.0000 0.78940  0.14270  0.23460  Biso   1.000  O
  O2       1.0000 0.71060  0.35730  0.73460  Biso   1.000  O
  O3       1.0000 0.21060  0.14270  0.26540  Biso   1.000  O
  O4       1.0000 0.28940  0.35730  0.76540  Biso   1.000  O
  O5       1.0000 0.21060  0.85730  0.76540  Biso   1.000  O
  O6       1.0000 0.28940  0.64270  0.26540  Biso   1.000  O
  O7       1.0000 0.78940  0.85730  0.73460  Biso   1.000  O
  O8       1.0000 0.71060  0.64270  0.23460  Biso   1.000  O
  O9       1.0000 0.60870  0.22280  0.19810  Biso   1.000  O
  O10      1.0000 0.89130  0.27720  0.69810  Biso   1.000  O
  O11      1.0000 0.39130  0.22280  0.30190  Biso   1.000  O
  O12      1.0000 0.10870  0.27720  0.80190  Biso   1.000  O
  O13      1.0000 0.39130  0.77720  0.80190  Biso   1.000  O
  O14      1.0000 0.10870  0.72280  0.30190  Biso   1.000  O
  O15      1.0000 0.60870  0.77720  0.69810  Biso   1.000  O
  O16      1.0000 0.89130  0.72280  0.19810  Biso   1.000  O
  O17      1.0000 0.67960  0.08130  0.12630  Biso   1.000  O
  O18      1.0000 0.82040  0.41870  0.62630  Biso   1.000  O
  O19      1.0000 0.32040  0.08130  0.37370  Biso   1.000  O
  O20      1.0000 0.17960  0.41870  0.87370  Biso   1.000  O
  O21      1.0000 0.32040  0.91870  0.87370  Biso   1.000  O
  O22      1.0000 0.17960  0.58130  0.37370  Biso   1.000  O
  O23      1.0000 0.67960  0.91870  0.62630  Biso   1.000  O
  O24      1.0000 0.82040  0.58130  0.12630  Biso   1.000  O
  O25      1.0000 0.79640  0.08360  0.19730  Biso   1.000  O
  O26      1.0000 0.70360  0.41640  0.69730  Biso   1.000  O
  O27      1.0000 0.20360  0.08360  0.30270  Biso   1.000  O
  O28      1.0000 0.29640  0.41640  0.80270  Biso   1.000  O
  O29      1.0000 0.20360  0.91640  0.80270  Biso   1.000  O
  O30      1.0000 0.29640  0.58360  0.30270  Biso   1.000  O
  O31      1.0000 0.79640  0.91640  0.69730  Biso   1.000  O
  O32      1.0000 0.70360  0.58360  0.19730  Biso   1.000  O
  O33      1.0000 0.67360  0.22680  0.23020  Biso   1.000  O
  O34      1.0000 0.82640  0.27320  0.73020  Biso   1.000  O
  O35      1.0000 0.32640  0.22680  0.26980  Biso   1.000  O
  O36      1.0000 0.17360  0.27320  0.76980  Biso   1.000  O
  O37      1.0000 0.32640  0.77320  0.76980  Biso   1.000  O
  O38      1.0000 0.17360  0.72680  0.26980  Biso   1.000  O
  O39      1.0000 0.67360  0.77320  0.73020  Biso   1.000  O
  O40      1.0000 0.82640  0.72680  0.23020  Biso   1.000  O
  O41      1.0000 0.62210  0.11770  0.12560  Biso   1.000  O
  O42      1.0000 0.87790  0.38230  0.62560  Biso   1.000  O
  O43      1.0000 0.37790  0.11770  0.37440  Biso   1.000  O
  O44      1.0000 0.12210  0.38230  0.87440  Biso   1.000  O
  O45      1.0000 0.37790  0.88230  0.87440  Biso   1.000  O
  O46      1.0000 0.12210  0.61770  0.37440  Biso   1.000  O
  O47      1.0000 0.62210  0.88230  0.62560  Biso   1.000  O
  O48      1.0000 0.87790  0.61770  0.12560  Biso   1.000  O
