data_image0
_cell_length_a       13.124
_cell_length_b       10.098
_cell_length_c       9.085
_cell_angle_alpha    90
_cell_angle_beta     97.56
_cell_angle_gamma    90

_symmetry_space_group_name_H-M    "P 1"
_symmetry_int_tables_number       1

loop_
  _symmetry_equiv_pos_as_xyz
  'x, y, z'

loop_
  _atom_site_label
  _atom_site_occupancy
  _atom_site_fract_x
  _atom_site_fract_y
  _atom_site_fract_z
  _atom_site_thermal_displace_type
  _atom_site_B_iso_or_equiv
  _atom_site_type_symbol
  Cu1      1.0000 0.00000  0.33836  0.25000  Biso   1.000  Cu
  Cu2      1.0000 0.50000  0.83836  0.25000  Biso   1.000  Cu
  Cu3      1.0000 0.00000  0.66164  0.75000  Biso   1.000  Cu
  Cu4      1.0000 0.50000  0.16164  0.75000  Biso   1.000  Cu
  O1       1.0000 0.08100  0.48160  0.16720  Biso   1.000  O
  O2       1.0000 0.58100  0.98160  0.16720  Biso   1.000  O
  O3       1.0000 0.91900  0.48160  0.33280  Biso   1.000  O
  O4       1.0000 0.41900  0.98160  0.33280  Biso   1.000  O
  O5       1.0000 0.91900  0.51840  0.83280  Biso   1.000  O
  O6       1.0000 0.41900  0.01840  0.83280  Biso   1.000  O
  O7       1.0000 0.08100  0.51840  0.66720  Biso   1.000  O
  O8       1.0000 0.58100  0.01840  0.66720  Biso   1.000  O
  O9       1.0000 0.09340  0.61920  0.98050  Biso   1.000  O
  O10      1.0000 0.59340  0.11920  0.98050  Biso   1.000  O
  O11      1.0000 0.90660  0.61920  0.51950  Biso   1.000  O
  O12      1.0000 0.40660  0.11920  0.51950  Biso   1.000  O
  O13      1.0000 0.90660  0.38080  0.01950  Biso   1.000  O
  O14      1.0000 0.40660  0.88080  0.01950  Biso   1.000  O
  O15      1.0000 0.09340  0.38080  0.48050  Biso   1.000  O
  O16      1.0000 0.59340  0.88080  0.48050  Biso   1.000  O
  N1       1.0000 0.09850  0.20760  0.19170  Biso   1.000  N
  N2       1.0000 0.59850  0.70760  0.19170  Biso   1.000  N
  N3       1.0000 0.90150  0.20760  0.30830  Biso   1.000  N
  N4       1.0000 0.40150  0.70760  0.30830  Biso   1.000  N
  N5       1.0000 0.90150  0.79240  0.80830  Biso   1.000  N
  N6       1.0000 0.40150  0.29240  0.80830  Biso   1.000  N
  N7       1.0000 0.09850  0.79240  0.69170  Biso   1.000  N
  N8       1.0000 0.59850  0.29240  0.69170  Biso   1.000  N
  C1       1.0000 0.18650  0.17730  0.25660  Biso   1.000  C
  C2       1.0000 0.68650  0.67730  0.25660  Biso   1.000  C
  C3       1.0000 0.81350  0.17730  0.24340  Biso   1.000  C
  C4       1.0000 0.31350  0.67730  0.24340  Biso   1.000  C
  C5       1.0000 0.81350  0.82270  0.74340  Biso   1.000  C
  C6       1.0000 0.31350  0.32270  0.74340  Biso   1.000  C
  C7       1.0000 0.18650  0.82270  0.75660  Biso   1.000  C
  C8       1.0000 0.68650  0.32270  0.75660  Biso   1.000  C
  H1       1.0000 0.21320  0.21750  0.34540  Biso   1.000  H
  H2       1.0000 0.71320  0.71750  0.34540  Biso   1.000  H
  H3       1.0000 0.78680  0.21750  0.15460  Biso   1.000  H
  H4       1.0000 0.28680  0.71750  0.15460  Biso   1.000  H
  H5       1.0000 0.78680  0.78250  0.65460  Biso   1.000  H
  H6       1.0000 0.28680  0.28250  0.65460  Biso   1.000  H
  H7       1.0000 0.21320  0.78250  0.84540  Biso   1.000  H
  H8       1.0000 0.71320  0.28250  0.84540  Biso   1.000  H
  N9       1.0000 0.23800  0.08910  0.19610  Biso   1.000  N
  N10      1.0000 0.73800  0.58910  0.19610  Biso   1.000  N
  N11      1.0000 0.76200  0.08910  0.30390  Biso   1.000  N
  N12      1.0000 0.26200  0.58910  0.30390  Biso   1.000  N
  N13      1.0000 0.76200  0.91090  0.80390  Biso   1.000  N
  N14      1.0000 0.26200  0.41090  0.80390  Biso   1.000  N
  N15      1.0000 0.23800  0.91090  0.69610  Biso   1.000  N
  N16      1.0000 0.73800  0.41090  0.69610  Biso   1.000  N
  C9       1.0000 0.19580  0.09390  0.05340  Biso   1.000  C
  C10      1.0000 0.69580  0.59390  0.05340  Biso   1.000  C
  C11      1.0000 0.80420  0.09390  0.44660  Biso   1.000  C
  C12      1.0000 0.30420  0.59390  0.44660  Biso   1.000  C
  C13      1.0000 0.80420  0.90610  0.94660  Biso   1.000  C
  C14      1.0000 0.30420  0.40610  0.94660  Biso   1.000  C
  C15      1.0000 0.19580  0.90610  0.55340  Biso   1.000  C
  C16      1.0000 0.69580  0.40610  0.55340  Biso   1.000  C
  H9       1.0000 0.22050  0.05280  0.97350  Biso   1.000  H
  H10      1.0000 0.72050  0.55280  0.97350  Biso   1.000  H
  H11      1.0000 0.77950  0.05280  0.52650  Biso   1.000  H
  H12      1.0000 0.27950  0.55280  0.52650  Biso   1.000  H
  H13      1.0000 0.77950  0.94720  0.02650  Biso   1.000  H
  H14      1.0000 0.27950  0.44720  0.02650  Biso   1.000  H
  H15      1.0000 0.22050  0.94720  0.47350  Biso   1.000  H
  H16      1.0000 0.72050  0.44720  0.47350  Biso   1.000  H
  C17      1.0000 0.10970  0.17070  0.04780  Biso   1.000  C
  C18      1.0000 0.60970  0.67070  0.04780  Biso   1.000  C
  C19      1.0000 0.89030  0.17070  0.45220  Biso   1.000  C
  C20      1.0000 0.39030  0.67070  0.45220  Biso   1.000  C
  C21      1.0000 0.89030  0.82930  0.95220  Biso   1.000  C
  C22      1.0000 0.39030  0.32930  0.95220  Biso   1.000  C
  C23      1.0000 0.10970  0.82930  0.54780  Biso   1.000  C
  C24      1.0000 0.60970  0.32930  0.54780  Biso   1.000  C
  H17      1.0000 0.06630  0.19410  0.96250  Biso   1.000  H
  H18      1.0000 0.56630  0.69410  0.96250  Biso   1.000  H
  H19      1.0000 0.93370  0.19410  0.53750  Biso   1.000  H
  H20      1.0000 0.43370  0.69410  0.53750  Biso   1.000  H
  H21      1.0000 0.93370  0.80590  0.03750  Biso   1.000  H
  H22      1.0000 0.43370  0.30590  0.03750  Biso   1.000  H
  H23      1.0000 0.06630  0.80590  0.46250  Biso   1.000  H
  H24      1.0000 0.56630  0.30590  0.46250  Biso   1.000  H
  C25      1.0000 0.05100  0.52960  0.04200  Biso   1.000  C
  C26      1.0000 0.55100  0.02960  0.04200  Biso   1.000  C
  C27      1.0000 0.94900  0.52960  0.45800  Biso   1.000  C
  C28      1.0000 0.44900  0.02960  0.45800  Biso   1.000  C
  C29      1.0000 0.94900  0.47040  0.95800  Biso   1.000  C
  C30      1.0000 0.44900  0.97040  0.95800  Biso   1.000  C
  C31      1.0000 0.05100  0.47040  0.54200  Biso   1.000  C
  C32      1.0000 0.55100  0.97040  0.54200  Biso   1.000  C
  H25      1.0000 0.30600  0.02800  0.24700  Biso   1.000  H
  H26      1.0000 0.80600  0.52800  0.24700  Biso   1.000  H
  H27      1.0000 0.69400  0.02800  0.25300  Biso   1.000  H
  H28      1.0000 0.19400  0.52800  0.25300  Biso   1.000  H
  H29      1.0000 0.69400  0.97200  0.75300  Biso   1.000  H
  H30      1.0000 0.19400  0.47200  0.75300  Biso   1.000  H
  H31      1.0000 0.30600  0.97200  0.74700  Biso   1.000  H
  H32      1.0000 0.80600  0.47200  0.74700  Biso   1.000  H
  C33      1.0000 0.14250  0.98000  0.15800  Biso   1.000  C
  C34      1.0000 0.64250  0.48000  0.15800  Biso   1.000  C
  C35      1.0000 0.85750  0.98000  0.34200  Biso   1.000  C
  C36      1.0000 0.35750  0.48000  0.34200  Biso   1.000  C
  C37      1.0000 0.85750  0.02000  0.84200  Biso   1.000  C
  C38      1.0000 0.35750  0.52000  0.84200  Biso   1.000  C
  C39      1.0000 0.14250  0.02000  0.65800  Biso   1.000  C
  C40      1.0000 0.64250  0.52000  0.65800  Biso   1.000  C
  C41      1.0000 0.06150  0.06800  0.15300  Biso   1.000  C
  C42      1.0000 0.56150  0.56800  0.15300  Biso   1.000  C
  C43      1.0000 0.93850  0.06800  0.34700  Biso   1.000  C
  C44      1.0000 0.43850  0.56800  0.34700  Biso   1.000  C
  C45      1.0000 0.93850  0.93200  0.84700  Biso   1.000  C
  C46      1.0000 0.43850  0.43200  0.84700  Biso   1.000  C
  C47      1.0000 0.06150  0.93200  0.65300  Biso   1.000  C
  C48      1.0000 0.56150  0.43200  0.65300  Biso   1.000  C
  H33      1.0000 0.14350  0.88890  0.14460  Biso   1.000  H
  H34      1.0000 0.64350  0.38890  0.14460  Biso   1.000  H
  H35      1.0000 0.85650  0.88890  0.35540  Biso   1.000  H
  H36      1.0000 0.35650  0.38890  0.35540  Biso   1.000  H
  H37      1.0000 0.85650  0.11110  0.85540  Biso   1.000  H
  H38      1.0000 0.35650  0.61110  0.85540  Biso   1.000  H
  H39      1.0000 0.14350  0.11110  0.64460  Biso   1.000  H
  H40      1.0000 0.64350  0.61110  0.64460  Biso   1.000  H
  H41      1.0000 0.99280  0.04440  0.12900  Biso   1.000  H
  H42      1.0000 0.49280  0.54440  0.12900  Biso   1.000  H
  H43      1.0000 0.00720  0.04440  0.37100  Biso   1.000  H
  H44      1.0000 0.50720  0.54440  0.37100  Biso   1.000  H
  H45      1.0000 0.00720  0.95560  0.87100  Biso   1.000  H
  H46      1.0000 0.50720  0.45560  0.87100  Biso   1.000  H
  H47      1.0000 0.99280  0.95560  0.62900  Biso   1.000  H
  H48      1.0000 0.49280  0.45560  0.62900  Biso   1.000  H
