data_image0
_cell_length_a       12.6212
_cell_length_b       10.6429
_cell_length_c       9.1104
_cell_angle_alpha    90
_cell_angle_beta     96.2
_cell_angle_gamma    90

_symmetry_space_group_name_H-M    "P 1"
_symmetry_int_tables_number       1

loop_
  _symmetry_equiv_pos_as_xyz
  'x, y, z'

loop_
  _atom_site_label
  _atom_site_occupancy
  _atom_site_fract_x
  _atom_site_fract_y
  _atom_site_fract_z
  _atom_site_thermal_displace_type
  _atom_site_B_iso_or_equiv
  _atom_site_type_symbol
  Cu1      1.0000 0.00000  0.65231  0.25000  Biso   1.000  Cu
  Cu2      1.0000 0.50000  0.15231  0.25000  Biso   1.000  Cu
  Cu3      1.0000 0.00000  0.34769  0.75000  Biso   1.000  Cu
  Cu4      1.0000 0.50000  0.84769  0.75000  Biso   1.000  Cu
  O1       1.0000 0.90295  0.61331  0.02352  Biso   1.000  O
  O2       1.0000 0.40295  0.11331  0.02352  Biso   1.000  O
  O3       1.0000 0.09705  0.61331  0.47648  Biso   1.000  O
  O4       1.0000 0.59705  0.11331  0.47648  Biso   1.000  O
  O5       1.0000 0.09705  0.38669  0.97648  Biso   1.000  O
  O6       1.0000 0.59705  0.88669  0.97648  Biso   1.000  O
  O7       1.0000 0.90295  0.38669  0.52352  Biso   1.000  O
  O8       1.0000 0.40295  0.88669  0.52352  Biso   1.000  O
  O9       1.0000 0.91591  0.48426  0.83517  Biso   1.000  O
  O10      1.0000 0.41591  0.98426  0.83517  Biso   1.000  O
  O11      1.0000 0.08409  0.48426  0.66483  Biso   1.000  O
  O12      1.0000 0.58409  0.98426  0.66483  Biso   1.000  O
  O13      1.0000 0.08409  0.51574  0.16483  Biso   1.000  O
  O14      1.0000 0.58409  0.01574  0.16483  Biso   1.000  O
  O15      1.0000 0.91591  0.51574  0.33517  Biso   1.000  O
  O16      1.0000 0.41591  0.01574  0.33517  Biso   1.000  O
  C1       1.0000 0.94744  0.52950  0.96000  Biso   1.000  C
  C2       1.0000 0.44744  0.02950  0.96000  Biso   1.000  C
  C3       1.0000 0.05256  0.52950  0.54000  Biso   1.000  C
  C4       1.0000 0.55256  0.02950  0.54000  Biso   1.000  C
  C5       1.0000 0.05256  0.47050  0.04000  Biso   1.000  C
  C6       1.0000 0.55256  0.97050  0.04000  Biso   1.000  C
  C7       1.0000 0.94744  0.47050  0.46000  Biso   1.000  C
  C8       1.0000 0.44744  0.97050  0.46000  Biso   1.000  C
  N1       1.0000 0.09894  0.77973  0.18440  Biso   1.000  N
  N2       1.0000 0.59894  0.27973  0.18440  Biso   1.000  N
  N3       1.0000 0.90106  0.77973  0.31560  Biso   1.000  N
  N4       1.0000 0.40106  0.27973  0.31560  Biso   1.000  N
  N5       1.0000 0.90106  0.22027  0.81560  Biso   1.000  N
  N6       1.0000 0.40106  0.72027  0.81560  Biso   1.000  N
  N7       1.0000 0.09894  0.22027  0.68440  Biso   1.000  N
  N8       1.0000 0.59894  0.72027  0.68440  Biso   1.000  N
  C9       1.0000 0.17860  0.92150  0.05910  Biso   1.000  C
  C10      1.0000 0.67860  0.42150  0.05910  Biso   1.000  C
  C11      1.0000 0.82140  0.92150  0.44090  Biso   1.000  C
  C12      1.0000 0.32140  0.42150  0.44090  Biso   1.000  C
  C13      1.0000 0.82140  0.07850  0.94090  Biso   1.000  C
  C14      1.0000 0.32140  0.57850  0.94090  Biso   1.000  C
  C15      1.0000 0.17860  0.07850  0.55910  Biso   1.000  C
  C16      1.0000 0.67860  0.57850  0.55910  Biso   1.000  C
  H1       1.0000 0.19400  0.97700  0.98540  Biso   1.000  H
  H2       1.0000 0.69400  0.47700  0.98540  Biso   1.000  H
  H3       1.0000 0.80600  0.97700  0.51460  Biso   1.000  H
  H4       1.0000 0.30600  0.47700  0.51460  Biso   1.000  H
  H5       1.0000 0.80600  0.02300  0.01460  Biso   1.000  H
  H6       1.0000 0.30600  0.52300  0.01460  Biso   1.000  H
  H7       1.0000 0.19400  0.02300  0.48540  Biso   1.000  H
  H8       1.0000 0.69400  0.52300  0.48540  Biso   1.000  H
  C17      1.0000 0.09200  0.84640  0.05610  Biso   1.000  C
  C18      1.0000 0.59200  0.34640  0.05610  Biso   1.000  C
  C19      1.0000 0.90800  0.84640  0.44390  Biso   1.000  C
  C20      1.0000 0.40800  0.34640  0.44390  Biso   1.000  C
  C21      1.0000 0.90800  0.15360  0.94390  Biso   1.000  C
  C22      1.0000 0.40800  0.65360  0.94390  Biso   1.000  C
  C23      1.0000 0.09200  0.15360  0.55610  Biso   1.000  C
  C24      1.0000 0.59200  0.65360  0.55610  Biso   1.000  C
  H9       1.0000 0.03710  0.84110  0.97960  Biso   1.000  H
  H10      1.0000 0.53710  0.34110  0.97960  Biso   1.000  H
  H11      1.0000 0.96290  0.84110  0.52040  Biso   1.000  H
  H12      1.0000 0.46290  0.34110  0.52040  Biso   1.000  H
  H13      1.0000 0.96290  0.15890  0.02040  Biso   1.000  H
  H14      1.0000 0.46290  0.65890  0.02040  Biso   1.000  H
  H15      1.0000 0.03710  0.15890  0.47960  Biso   1.000  H
  H16      1.0000 0.53710  0.65890  0.47960  Biso   1.000  H
  N9       1.0000 0.23750  0.90160  0.18610  Biso   1.000  N
  N10      1.0000 0.73750  0.40160  0.18610  Biso   1.000  N
  N11      1.0000 0.76250  0.90160  0.31390  Biso   1.000  N
  N12      1.0000 0.26250  0.40160  0.31390  Biso   1.000  N
  N13      1.0000 0.76250  0.09840  0.81390  Biso   1.000  N
  N14      1.0000 0.26250  0.59840  0.81390  Biso   1.000  N
  N15      1.0000 0.23750  0.09840  0.68610  Biso   1.000  N
  N16      1.0000 0.73750  0.59840  0.68610  Biso   1.000  N
  H17      1.0000 0.29640  0.93860  0.21650  Biso   1.000  H
  H18      1.0000 0.79640  0.43860  0.21650  Biso   1.000  H
  H19      1.0000 0.70360  0.93860  0.28350  Biso   1.000  H
  H20      1.0000 0.20360  0.43860  0.28350  Biso   1.000  H
  H21      1.0000 0.70360  0.06140  0.78350  Biso   1.000  H
  H22      1.0000 0.20360  0.56140  0.78350  Biso   1.000  H
  H23      1.0000 0.29640  0.06140  0.71650  Biso   1.000  H
  H24      1.0000 0.79640  0.56140  0.71650  Biso   1.000  H
  C25      1.0000 0.18922  0.81500  0.25720  Biso   1.000  C
  C26      1.0000 0.68922  0.31500  0.25720  Biso   1.000  C
  C27      1.0000 0.81078  0.81500  0.24280  Biso   1.000  C
  C28      1.0000 0.31078  0.31500  0.24280  Biso   1.000  C
  C29      1.0000 0.81078  0.18500  0.74280  Biso   1.000  C
  C30      1.0000 0.31078  0.68500  0.74280  Biso   1.000  C
  C31      1.0000 0.18922  0.18500  0.75720  Biso   1.000  C
  C32      1.0000 0.68922  0.68500  0.75720  Biso   1.000  C
  H25      1.0000 0.21600  0.78250  0.34850  Biso   1.000  H
  H26      1.0000 0.71600  0.28250  0.34850  Biso   1.000  H
  H27      1.0000 0.78400  0.78250  0.15150  Biso   1.000  H
  H28      1.0000 0.28400  0.28250  0.15150  Biso   1.000  H
  H29      1.0000 0.78400  0.21750  0.65150  Biso   1.000  H
  H30      1.0000 0.28400  0.71750  0.65150  Biso   1.000  H
  H31      1.0000 0.21600  0.21750  0.84850  Biso   1.000  H
  H32      1.0000 0.71600  0.71750  0.84850  Biso   1.000  H
