data_image0
_cell_length_a       5.66016
_cell_length_b       14.5908
_cell_length_c       16.7539
_cell_angle_alpha    90
_cell_angle_beta     94.97
_cell_angle_gamma    90

_symmetry_space_group_name_H-M    "P 1"
_symmetry_int_tables_number       1

loop_
  _symmetry_equiv_pos_as_xyz
  'x, y, z'

loop_
  _atom_site_label
  _atom_site_occupancy
  _atom_site_fract_x
  _atom_site_fract_y
  _atom_site_fract_z
  _atom_site_thermal_displace_type
  _atom_site_B_iso_or_equiv
  _atom_site_type_symbol
  Cu1      1.0000 0.16671  0.31139  0.50596  Biso   1.000  Cu
  Cu2      1.0000 0.33329  0.81139  0.99404  Biso   1.000  Cu
  Cu3      1.0000 0.83329  0.68861  0.49404  Biso   1.000  Cu
  Cu4      1.0000 0.66671  0.18861  0.00596  Biso   1.000  Cu
  N1       1.0000 0.07770  0.31251  0.38591  Biso   1.000  N
  N2       1.0000 0.42230  0.81251  0.11409  Biso   1.000  N
  N3       1.0000 0.92230  0.68749  0.61409  Biso   1.000  N
  N4       1.0000 0.57770  0.18749  0.88591  Biso   1.000  N
  N5       1.0000 0.89520  0.39206  0.50258  Biso   1.000  N
  N6       1.0000 0.60480  0.89206  0.99742  Biso   1.000  N
  N7       1.0000 0.10480  0.60794  0.49742  Biso   1.000  N
  N8       1.0000 0.39520  0.10794  0.00258  Biso   1.000  N
  O1       1.0000 0.18940  0.35691  0.61717  Biso   1.000  O
  O2       1.0000 0.31060  0.85691  0.88283  Biso   1.000  O
  O3       1.0000 0.81060  0.64309  0.38283  Biso   1.000  O
  O4       1.0000 0.68940  0.14309  0.11717  Biso   1.000  O
  N9       1.0000 0.46030  0.24380  0.51118  Biso   1.000  N
  N10      1.0000 0.03970  0.74380  0.98882  Biso   1.000  N
  N11      1.0000 0.53970  0.75620  0.48882  Biso   1.000  N
  N12      1.0000 0.96030  0.25620  0.01118  Biso   1.000  N
  S1       1.0000 0.90931  0.16444  0.54014  Biso   1.000  S
  S2       1.0000 0.59069  0.66444  0.95986  Biso   1.000  S
  S3       1.0000 0.09069  0.83556  0.45986  Biso   1.000  S
  S4       1.0000 0.40931  0.33556  0.04014  Biso   1.000  S
  C1       1.0000 0.18370  0.27122  0.32762  Biso   1.000  C
  C2       1.0000 0.31630  0.77122  0.17238  Biso   1.000  C
  C3       1.0000 0.81630  0.72878  0.67238  Biso   1.000  C
  C4       1.0000 0.68370  0.22878  0.82762  Biso   1.000  C
  C5       1.0000 0.87150  0.35910  0.36720  Biso   1.000  C
  C6       1.0000 0.62850  0.85910  0.13280  Biso   1.000  C
  C7       1.0000 0.12850  0.64090  0.63280  Biso   1.000  C
  C8       1.0000 0.37150  0.14090  0.86720  Biso   1.000  C
  C9       1.0000 0.77290  0.40386  0.43527  Biso   1.000  C
  C10      1.0000 0.72710  0.90386  0.06473  Biso   1.000  C
  C11      1.0000 0.22710  0.59614  0.56473  Biso   1.000  C
  C12      1.0000 0.27290  0.09614  0.93527  Biso   1.000  C
  N13      1.0000 0.83290  0.42643  0.57375  Biso   1.000  N
  N14      1.0000 0.66710  0.92643  0.92625  Biso   1.000  N
  N15      1.0000 0.16710  0.57357  0.42625  Biso   1.000  N
  N16      1.0000 0.33290  0.07357  0.07375  Biso   1.000  N
  C13      1.0000 0.00100  0.40126  0.63014  Biso   1.000  C
  C14      1.0000 0.49900  0.90126  0.86986  Biso   1.000  C
  C15      1.0000 0.99900  0.59874  0.36986  Biso   1.000  C
  C16      1.0000 0.50100  0.09874  0.13014  Biso   1.000  C
  C17      1.0000 0.64500  0.21008  0.52405  Biso   1.000  C
  C18      1.0000 0.85500  0.71008  0.97595  Biso   1.000  C
  C19      1.0000 0.35500  0.78992  0.47595  Biso   1.000  C
  C20      1.0000 0.14500  0.28992  0.02405  Biso   1.000  C
  H1       1.0000 0.32680  0.23850  0.34110  Biso   1.000  H
  H2       1.0000 0.17320  0.73850  0.15890  Biso   1.000  H
  H3       1.0000 0.67320  0.76150  0.65890  Biso   1.000  H
  H4       1.0000 0.82680  0.26150  0.84110  Biso   1.000  H
  C21      1.0000 0.09250  0.27429  0.24782  Biso   1.000  C
  C22      1.0000 0.40750  0.77429  0.25218  Biso   1.000  C
  C23      1.0000 0.90750  0.72571  0.75218  Biso   1.000  C
  C24      1.0000 0.59250  0.22571  0.74782  Biso   1.000  C
  C25      1.0000 0.76830  0.36214  0.28908  Biso   1.000  C
  C26      1.0000 0.73170  0.86214  0.21092  Biso   1.000  C
  C27      1.0000 0.23170  0.63786  0.71092  Biso   1.000  C
  C28      1.0000 0.26830  0.13786  0.78908  Biso   1.000  C
  H5       1.0000 0.63050  0.43860  0.43000  Biso   1.000  H
  H6       1.0000 0.86950  0.93860  0.07000  Biso   1.000  H
  H7       1.0000 0.36950  0.56140  0.57000  Biso   1.000  H
  H8       1.0000 0.13050  0.06140  0.93000  Biso   1.000  H
  C29      1.0000 0.96810  0.42722  0.71382  Biso   1.000  C
  C30      1.0000 0.53190  0.92722  0.78618  Biso   1.000  C
  C31      1.0000 0.03190  0.57278  0.28618  Biso   1.000  C
  C32      1.0000 0.46810  0.07278  0.21382  Biso   1.000  C
  H9       1.0000 0.17410  0.24580  0.20730  Biso   1.000  H
  H10      1.0000 0.32590  0.74580  0.29270  Biso   1.000  H
  H11      1.0000 0.82590  0.75420  0.79270  Biso   1.000  H
  H12      1.0000 0.67410  0.25420  0.70730  Biso   1.000  H
  C33      1.0000 0.88060  0.31971  0.22872  Biso   1.000  C
  C34      1.0000 0.61940  0.81971  0.27128  Biso   1.000  C
  C35      1.0000 0.11940  0.68029  0.77128  Biso   1.000  C
  C36      1.0000 0.38060  0.18029  0.72872  Biso   1.000  C
  H13      1.0000 0.62180  0.39300  0.27710  Biso   1.000  H
  H14      1.0000 0.87820  0.89300  0.22290  Biso   1.000  H
  H15      1.0000 0.37820  0.60700  0.72290  Biso   1.000  H
  H16      1.0000 0.12180  0.10700  0.77710  Biso   1.000  H
  C37      1.0000 0.75760  0.46717  0.73468  Biso   1.000  C
  C38      1.0000 0.74240  0.96717  0.76532  Biso   1.000  C
  C39      1.0000 0.24240  0.53283  0.26532  Biso   1.000  C
  C40      1.0000 0.25760  0.03283  0.23468  Biso   1.000  C
  C41      1.0000 0.15010  0.41069  0.77322  Biso   1.000  C
  C42      1.0000 0.34990  0.91069  0.72678  Biso   1.000  C
  C43      1.0000 0.84990  0.58931  0.22678  Biso   1.000  C
  C44      1.0000 0.65010  0.08931  0.27322  Biso   1.000  C
  H17      1.0000 0.81280  0.32180  0.17490  Biso   1.000  H
  H18      1.0000 0.68720  0.82180  0.32510  Biso   1.000  H
  H19      1.0000 0.18720  0.67820  0.82510  Biso   1.000  H
  H20      1.0000 0.31280  0.17820  0.67490  Biso   1.000  H
  H21      1.0000 0.63090  0.47800  0.69480  Biso   1.000  H
  H22      1.0000 0.86910  0.97800  0.80520  Biso   1.000  H
  H23      1.0000 0.36910  0.52200  0.30520  Biso   1.000  H
  H24      1.0000 0.13090  0.02200  0.19480  Biso   1.000  H
  C45      1.0000 0.73410  0.49096  0.81375  Biso   1.000  C
  C46      1.0000 0.76590  0.99096  0.68625  Biso   1.000  C
  C47      1.0000 0.26590  0.50904  0.18625  Biso   1.000  C
  C48      1.0000 0.23410  0.00904  0.31375  Biso   1.000  C
  C49      1.0000 0.12460  0.43504  0.85213  Biso   1.000  C
  C50      1.0000 0.37540  0.93504  0.64787  Biso   1.000  C
  C51      1.0000 0.87540  0.56496  0.14787  Biso   1.000  C
  C52      1.0000 0.62460  0.06496  0.35213  Biso   1.000  C
  H25      1.0000 0.29280  0.38260  0.75970  Biso   1.000  H
  H26      1.0000 0.20720  0.88260  0.74030  Biso   1.000  H
  H27      1.0000 0.70720  0.61740  0.24030  Biso   1.000  H
  H28      1.0000 0.79280  0.11740  0.25970  Biso   1.000  H
  H29      1.0000 0.59100  0.51820  0.82770  Biso   1.000  H
  H30      1.0000 0.90900  0.01820  0.67230  Biso   1.000  H
  H31      1.0000 0.40900  0.48180  0.17230  Biso   1.000  H
  H32      1.0000 0.09100  0.98180  0.32770  Biso   1.000  H
  C53      1.0000 0.91640  0.47540  0.87231  Biso   1.000  C
  C54      1.0000 0.58360  0.97540  0.62769  Biso   1.000  C
  C55      1.0000 0.08360  0.52460  0.12769  Biso   1.000  C
  C56      1.0000 0.41640  0.02460  0.37231  Biso   1.000  C
  H33      1.0000 0.25020  0.42400  0.89240  Biso   1.000  H
  H34      1.0000 0.24980  0.92400  0.60760  Biso   1.000  H
  H35      1.0000 0.74980  0.57600  0.10760  Biso   1.000  H
  H36      1.0000 0.75020  0.07600  0.39240  Biso   1.000  H
  H37      1.0000 0.89930  0.49230  0.92630  Biso   1.000  H
  H38      1.0000 0.60070  0.99230  0.57370  Biso   1.000  H
  H39      1.0000 0.10070  0.50770  0.07370  Biso   1.000  H
  H40      1.0000 0.39930  0.00770  0.42630  Biso   1.000  H
