data_image0
_cell_length_a       7.7252
_cell_length_b       14.7548
_cell_length_c       15.7701
_cell_angle_alpha    98.261
_cell_angle_beta     90.032
_cell_angle_gamma    93.629

_symmetry_space_group_name_H-M    "P 1"
_symmetry_int_tables_number       1

loop_
  _symmetry_equiv_pos_as_xyz
  'x, y, z'

loop_
  _atom_site_label
  _atom_site_occupancy
  _atom_site_fract_x
  _atom_site_fract_y
  _atom_site_fract_z
  _atom_site_thermal_displace_type
  _atom_site_B_iso_or_equiv
  _atom_site_type_symbol
  Cu1      1.0000 0.25270  0.10463  0.63542  Biso   1.000  Cu
  Cu2      1.0000 0.74730  0.89537  0.36458  Biso   1.000  Cu
  Cu3      1.0000 0.72670  0.89213  0.86471  Biso   1.000  Cu
  Cu4      1.0000 0.27330  0.10787  0.13529  Biso   1.000  Cu
  O1       1.0000 0.28900  0.99940  0.55270  Biso   1.000  O
  O2       1.0000 0.71100  0.00060  0.44730  Biso   1.000  O
  O3       1.0000 0.78220  0.99790  0.94770  Biso   1.000  O
  O4       1.0000 0.21780  0.00210  0.05230  Biso   1.000  O
  O5       1.0000 0.24500  0.22850  0.69780  Biso   1.000  O
  O6       1.0000 0.75500  0.77150  0.30220  Biso   1.000  O
  O7       1.0000 0.69370  0.76820  0.80200  Biso   1.000  O
  O8       1.0000 0.30630  0.23180  0.19800  Biso   1.000  O
  O9       1.0000 0.98100  0.04650  0.70670  Biso   1.000  O
  O10      1.0000 0.01900  0.95350  0.29330  Biso   1.000  O
  N1       1.0000 0.04820  0.23940  0.91860  Biso   1.000  N
  N2       1.0000 0.95180  0.76060  0.08140  Biso   1.000  N
  N3       1.0000 0.00500  0.29790  0.06180  Biso   1.000  N
  N4       1.0000 0.99500  0.70210  0.93820  Biso   1.000  N
  O11      1.0000 0.86360  0.93980  0.77740  Biso   1.000  O
  O12      1.0000 0.13640  0.06020  0.22260  Biso   1.000  O
  O13      1.0000 0.47400  0.95170  0.79330  Biso   1.000  O
  O14      1.0000 0.52600  0.04830  0.20670  Biso   1.000  O
  N5       1.0000 0.50250  0.75910  0.58130  Biso   1.000  N
  N6       1.0000 0.49750  0.24090  0.41870  Biso   1.000  N
  N7       1.0000 0.44520  0.70030  0.43870  Biso   1.000  N
  N8       1.0000 0.55480  0.29970  0.56130  Biso   1.000  N
  O15      1.0000 0.37730  0.05720  0.72340  Biso   1.000  O
  O16      1.0000 0.62270  0.94280  0.27660  Biso   1.000  O
  C1       1.0000 0.36040  0.92730  0.56440  Biso   1.000  C
  C2       1.0000 0.63960  0.07270  0.43560  Biso   1.000  C
  N9       1.0000 0.13780  0.15790  0.54260  Biso   1.000  N
  N10      1.0000 0.86220  0.84210  0.45740  Biso   1.000  N
  N11      1.0000 0.60180  0.83620  0.95760  Biso   1.000  N
  N12      1.0000 0.39820  0.16380  0.04240  Biso   1.000  N
  C3       1.0000 0.94170  0.08860  0.85580  Biso   1.000  C
  C4       1.0000 0.05830  0.91140  0.14420  Biso   1.000  C
  C5       1.0000 0.43790  0.77180  0.50120  Biso   1.000  C
  C6       1.0000 0.56210  0.22820  0.49880  Biso   1.000  C
  C7       1.0000 0.42910  0.91000  0.64450  Biso   1.000  C
  C8       1.0000 0.57090  0.09000  0.35550  Biso   1.000  C
  C9       1.0000 0.10650  0.24720  0.56860  Biso   1.000  C
  C10      1.0000 0.89350  0.75280  0.43140  Biso   1.000  C
  C11      1.0000 0.82800  0.13340  0.08930  Biso   1.000  C
  C12      1.0000 0.17200  0.86660  0.91070  Biso   1.000  C
  H1       1.0000 0.76883  0.07899  0.09893  Biso   1.000  H
  H2       1.0000 0.23117  0.92101  0.90107  Biso   1.000  H
  C13      1.0000 0.36950  0.85450  0.49220  Biso   1.000  C
  C14      1.0000 0.63050  0.14550  0.50780  Biso   1.000  C
  C15      1.0000 0.86950  0.07000  0.93540  Biso   1.000  C
  C16      1.0000 0.13050  0.93000  0.06460  Biso   1.000  C
  C17      1.0000 0.98160  0.22630  0.99840  Biso   1.000  C
  C18      1.0000 0.01840  0.77370  0.00160  Biso   1.000  C
  C19      1.0000 0.16680  0.28370  0.65350  Biso   1.000  C
  C20      1.0000 0.83320  0.71630  0.34650  Biso   1.000  C
  C21      1.0000 0.30480  0.86360  0.41100  Biso   1.000  C
  C22      1.0000 0.69520  0.13640  0.58900  Biso   1.000  C
  H3       1.0000 0.25918  0.91800  0.40117  Biso   1.000  H
  H4       1.0000 0.74082  0.08200  0.59883  Biso   1.000  H
  C23      1.0000 0.46500  0.69020  0.98460  Biso   1.000  C
  C24      1.0000 0.53500  0.30980  0.01540  Biso   1.000  C
  C25      1.0000 0.49690  0.82690  0.64770  Biso   1.000  C
  C26      1.0000 0.50310  0.17310  0.35230  Biso   1.000  C
  H5       1.0000 0.54246  0.81665  0.69987  Biso   1.000  H
  H6       1.0000 0.45754  0.18335  0.30013  Biso   1.000  H
  C27      1.0000 0.13960  0.37480  0.68080  Biso   1.000  C
  C28      1.0000 0.86040  0.62520  0.31920  Biso   1.000  C
  H7       1.0000 0.17744  0.40140  0.73527  Biso   1.000  H
  H8       1.0000 0.82256  0.59860  0.26473  Biso   1.000  H
  C29      1.0000 0.38180  0.71070  0.36210  Biso   1.000  C
  C30      1.0000 0.61820  0.28930  0.63790  Biso   1.000  C
  C31      1.0000 0.60700  0.71100  0.84650  Biso   1.000  C
  C32      1.0000 0.39300  0.28900  0.15350  Biso   1.000  C
  C33      1.0000 0.42730  0.97750  0.72630  Biso   1.000  C
  C34      1.0000 0.57270  0.02250  0.27370  Biso   1.000  C
  C35      1.0000 0.57420  0.67090  0.59240  Biso   1.000  C
  C36      1.0000 0.42580  0.32910  0.40760  Biso   1.000  C
  H9       1.0000 0.64592  0.67944  0.64381  Biso   1.000  H
  H10      1.0000 0.35408  0.32056  0.35619  Biso   1.000  H
  H11      1.0000 0.64705  0.65135  0.54400  Biso   1.000  H
  H12      1.0000 0.35295  0.34865  0.45600  Biso   1.000  H
  C37      1.0000 0.89610  0.14270  0.00760  Biso   1.000  C
  C38      1.0000 0.10390  0.85730  0.99240  Biso   1.000  C
  C39      1.0000 0.85050  0.20510  0.15340  Biso   1.000  C
  C40      1.0000 0.14950  0.79490  0.84660  Biso   1.000  C
  H13      1.0000 0.80642  0.20001  0.20747  Biso   1.000  H
  H14      1.0000 0.19358  0.79999  0.79253  Biso   1.000  H
  C41      1.0000 0.55390  0.74630  0.93180  Biso   1.000  C
  C42      1.0000 0.44610  0.25370  0.06820  Biso   1.000  C
  C43      1.0000 0.02820  0.17130  0.85250  Biso   1.000  C
  C44      1.0000 0.97180  0.82870  0.14750  Biso   1.000  C
  H15      1.0000 0.07705  0.18136  0.80046  Biso   1.000  H
  H16      1.0000 0.92295  0.81864  0.19954  Biso   1.000  H
  C45      1.0000 0.13730  0.32850  0.90790  Biso   1.000  C
  C46      1.0000 0.86270  0.67150  0.09210  Biso   1.000  C
  H17      1.0000 0.20878  0.32076  0.85717  Biso   1.000  H
  H18      1.0000 0.79122  0.67924  0.14283  Biso   1.000  H
  H19      1.0000 0.21300  0.34915  0.95695  Biso   1.000  H
  H20      1.0000 0.78700  0.65085  0.04305  Biso   1.000  H
  C47      1.0000 0.92700  0.02020  0.77420  Biso   1.000  C
  C48      1.0000 0.07300  0.97980  0.22580  Biso   1.000  C
  C49      1.0000 0.47590  0.56420  0.87180  Biso   1.000  C
  C50      1.0000 0.52410  0.43580  0.12820  Biso   1.000  C
  H21      1.0000 0.44891  0.50273  0.85102  Biso   1.000  H
  H22      1.0000 0.55109  0.49727  0.14898  Biso   1.000  H
  C51      1.0000 0.02360  0.30150  0.51560  Biso   1.000  C
  C52      1.0000 0.97640  0.69850  0.48440  Biso   1.000  C
  C53      1.0000 0.01110  0.40000  0.89970  Biso   1.000  C
  C54      1.0000 0.98890  0.60000  0.10030  Biso   1.000  C
  H23      1.0000 0.07347  0.45686  0.89291  Biso   1.000  H
  H24      1.0000 0.92653  0.54314  0.10709  Biso   1.000  H
  H25      1.0000 0.93739  0.38032  0.85064  Biso   1.000  H
  H26      1.0000 0.06261  0.61968  0.14936  Biso   1.000  H
  H27      1.0000 0.94160  0.40870  0.95034  Biso   1.000  H
  H28      1.0000 0.05840  0.59130  0.04966  Biso   1.000  H
  C55      1.0000 0.56720  0.61920  0.81860  Biso   1.000  C
  C56      1.0000 0.43280  0.38080  0.18140  Biso   1.000  C
  H29      1.0000 0.60067  0.59340  0.76423  Biso   1.000  H
  H30      1.0000 0.39933  0.40660  0.23577  Biso   1.000  H
  C57      1.0000 0.98120  0.25810  0.43100  Biso   1.000  C
  C58      1.0000 0.01880  0.74190  0.56900  Biso   1.000  C
  H31      1.0000 0.92747  0.29056  0.39320  Biso   1.000  H
  H32      1.0000 0.07253  0.70944  0.60680  Biso   1.000  H
  C59      1.0000 0.39150  0.63090  0.29300  Biso   1.000  C
  C60      1.0000 0.60850  0.36910  0.70700  Biso   1.000  C
  H33      1.0000 0.34284  0.64556  0.24097  Biso   1.000  H
  H34      1.0000 0.65716  0.35444  0.75903  Biso   1.000  H
  H35      1.0000 0.51050  0.61728  0.28385  Biso   1.000  H
  H36      1.0000 0.48950  0.38272  0.71615  Biso   1.000  H
  H37      1.0000 0.32741  0.57854  0.30963  Biso   1.000  H
  H38      1.0000 0.67259  0.42146  0.69037  Biso   1.000  H
  C61      1.0000 0.99620  0.39300  0.54740  Biso   1.000  C
  C62      1.0000 0.00380  0.60700  0.45260  Biso   1.000  C
  H39      1.0000 0.93869  0.42948  0.51454  Biso   1.000  H
  H40      1.0000 0.06131  0.57052  0.48546  Biso   1.000  H
  C63      1.0000 0.93960  0.28660  0.13850  Biso   1.000  C
  C64      1.0000 0.06040  0.71340  0.86150  Biso   1.000  C
  C65      1.0000 0.96600  0.36700  0.20810  Biso   1.000  C
  C66      1.0000 0.03400  0.63300  0.79190  Biso   1.000  C
  H41      1.0000 0.91451  0.35169  0.26005  Biso   1.000  H
  H42      1.0000 0.08549  0.64831  0.73995  Biso   1.000  H
  H43      1.0000 0.08793  0.38188  0.21738  Biso   1.000  H
  H44      1.0000 0.91207  0.61812  0.78262  Biso   1.000  H
  H45      1.0000 0.91242  0.41875  0.19150  Biso   1.000  H
  H46      1.0000 0.08758  0.58125  0.80850  Biso   1.000  H
  C67      1.0000 0.48220  0.82150  0.09490  Biso   1.000  C
  C68      1.0000 0.51780  0.17850  0.90510  Biso   1.000  C
  H47      1.0000 0.46081  0.84860  0.15052  Biso   1.000  H
  H48      1.0000 0.53919  0.15140  0.84948  Biso   1.000  H
  C69      1.0000 0.42540  0.59740  0.95290  Biso   1.000  C
  C70      1.0000 0.57460  0.40260  0.04710  Biso   1.000  C
  H49      1.0000 0.36577  0.55912  0.98638  Biso   1.000  H
  H50      1.0000 0.63423  0.44088  0.01362  Biso   1.000  H
  C71      1.0000 0.30970  0.79140  0.34660  Biso   1.000  C
  C72      1.0000 0.69030  0.20860  0.65340  Biso   1.000  C
  H51      1.0000 0.26532  0.79584  0.29261  Biso   1.000  H
  H52      1.0000 0.73468  0.20416  0.70739  Biso   1.000  H
  C73      1.0000 0.56810  0.87270  0.03730  Biso   1.000  C
  C74      1.0000 0.43190  0.12730  0.96270  Biso   1.000  C
  H53      1.0000 0.60247  0.93401  0.05546  Biso   1.000  H
  H54      1.0000 0.39753  0.06599  0.94454  Biso   1.000  H
  C75      1.0000 0.43060  0.73250  0.06880  Biso   1.000  C
  C76      1.0000 0.56940  0.26750  0.93120  Biso   1.000  C
  H55      1.0000 0.37189  0.69881  0.10655  Biso   1.000  H
  H56      1.0000 0.62811  0.30119  0.89345  Biso   1.000  H
  C77      1.0000 0.43280  0.59790  0.59930  Biso   1.000  C
  C78      1.0000 0.56720  0.40210  0.40070  Biso   1.000  C
  H57      1.0000 0.48329  0.54161  0.60645  Biso   1.000  H
  H58      1.0000 0.51671  0.45839  0.39355  Biso   1.000  H
  H59      1.0000 0.36171  0.61664  0.64779  Biso   1.000  H
  H60      1.0000 0.63829  0.38336  0.35221  Biso   1.000  H
  H61      1.0000 0.36284  0.58858  0.54807  Biso   1.000  H
  H62      1.0000 0.63716  0.41142  0.45193  Biso   1.000  H
  C79      1.0000 0.05660  0.42780  0.62880  Biso   1.000  C
  C80      1.0000 0.94340  0.57220  0.37120  Biso   1.000  C
  H63      1.0000 0.04136  0.48896  0.64963  Biso   1.000  H
  H64      1.0000 0.95864  0.51104  0.35037  Biso   1.000  H
  C81      1.0000 0.09660  0.12050  0.46230  Biso   1.000  C
  C82      1.0000 0.90340  0.87950  0.53770  Biso   1.000  C
  H65      1.0000 0.12074  0.05994  0.44384  Biso   1.000  H
  H66      1.0000 0.87926  0.94006  0.55616  Biso   1.000  H
  C83      1.0000 0.01800  0.17030  0.40510  Biso   1.000  C
  C84      1.0000 0.98200  0.82970  0.59490  Biso   1.000  C
  H67      1.0000 0.99127  0.14281  0.34939  Biso   1.000  H
  H68      1.0000 0.00873  0.85719  0.65061  Biso   1.000  H
