data_image0
_cell_length_a       18.604
_cell_length_b       18.604
_cell_length_c       19.756
_cell_angle_alpha    90
_cell_angle_beta     90
_cell_angle_gamma    120

_symmetry_space_group_name_H-M    "P 1"
_symmetry_int_tables_number       1

loop_
  _symmetry_equiv_pos_as_xyz
  'x, y, z'

loop_
  _atom_site_label
  _atom_site_occupancy
  _atom_site_fract_x
  _atom_site_fract_y
  _atom_site_fract_z
  _atom_site_thermal_displace_type
  _atom_site_B_iso_or_equiv
  _atom_site_type_symbol
  C1       1.0000 0.40040  0.55666  0.00059  Biso   1.000  C
  C2       1.0000 0.44334  0.84374  0.00059  Biso   1.000  C
  C3       1.0000 0.15626  0.59960  0.00059  Biso   1.000  C
  C4       1.0000 0.06707  0.88999  0.33392  Biso   1.000  C
  C5       1.0000 0.11001  0.17707  0.33392  Biso   1.000  C
  C6       1.0000 0.82293  0.93293  0.33392  Biso   1.000  C
  C7       1.0000 0.73373  0.22333  0.66726  Biso   1.000  C
  C8       1.0000 0.77667  0.51041  0.66726  Biso   1.000  C
  C9       1.0000 0.48959  0.26627  0.66726  Biso   1.000  C
  C10      1.0000 0.59960  0.44334  0.99941  Biso   1.000  C
  C11      1.0000 0.55666  0.15626  0.99941  Biso   1.000  C
  C12      1.0000 0.84374  0.40040  0.99941  Biso   1.000  C
  C13      1.0000 0.26627  0.77667  0.33274  Biso   1.000  C
  C14      1.0000 0.22333  0.48959  0.33274  Biso   1.000  C
  C15      1.0000 0.51041  0.73373  0.33274  Biso   1.000  C
  C16      1.0000 0.93293  0.11001  0.66608  Biso   1.000  C
  C17      1.0000 0.88999  0.82293  0.66608  Biso   1.000  C
  C18      1.0000 0.17707  0.06707  0.66608  Biso   1.000  C
  C19      1.0000 0.36564  0.61358  0.99721  Biso   1.000  C
  C20      1.0000 0.38642  0.75206  0.99721  Biso   1.000  C
  C21      1.0000 0.24794  0.63436  0.99721  Biso   1.000  C
  C22      1.0000 0.03231  0.94691  0.33054  Biso   1.000  C
  C23      1.0000 0.05309  0.08539  0.33054  Biso   1.000  C
  C24      1.0000 0.91461  0.96769  0.33054  Biso   1.000  C
  C25      1.0000 0.69897  0.28025  0.66388  Biso   1.000  C
  C26      1.0000 0.71975  0.41873  0.66388  Biso   1.000  C
  C27      1.0000 0.58127  0.30103  0.66388  Biso   1.000  C
  C28      1.0000 0.63436  0.38642  0.00279  Biso   1.000  C
  C29      1.0000 0.61358  0.24794  0.00279  Biso   1.000  C
  C30      1.0000 0.75206  0.36564  0.00279  Biso   1.000  C
  C31      1.0000 0.30103  0.71975  0.33612  Biso   1.000  C
  C32      1.0000 0.28025  0.58127  0.33612  Biso   1.000  C
  C33      1.0000 0.41873  0.69897  0.33612  Biso   1.000  C
  C34      1.0000 0.96769  0.05309  0.66946  Biso   1.000  C
  C35      1.0000 0.94691  0.91461  0.66946  Biso   1.000  C
  C36      1.0000 0.08539  0.03231  0.66946  Biso   1.000  C
  C37      1.0000 0.28033  0.58118  0.99710  Biso   1.000  C
  C38      1.0000 0.41882  0.69915  0.99710  Biso   1.000  C
  C39      1.0000 0.30085  0.71967  0.99710  Biso   1.000  C
  C40      1.0000 0.94700  0.91451  0.33043  Biso   1.000  C
  C41      1.0000 0.08549  0.03248  0.33043  Biso   1.000  C
  C42      1.0000 0.96752  0.05300  0.33043  Biso   1.000  C
  C43      1.0000 0.61366  0.24785  0.66377  Biso   1.000  C
  C44      1.0000 0.75215  0.36582  0.66377  Biso   1.000  C
  C45      1.0000 0.63418  0.38634  0.66377  Biso   1.000  C
  C46      1.0000 0.71967  0.41882  0.00290  Biso   1.000  C
  C47      1.0000 0.58118  0.30085  0.00290  Biso   1.000  C
  C48      1.0000 0.69915  0.28033  0.00290  Biso   1.000  C
  C49      1.0000 0.38634  0.75215  0.33623  Biso   1.000  C
  C50      1.0000 0.24785  0.63418  0.33623  Biso   1.000  C
  C51      1.0000 0.36582  0.61366  0.33623  Biso   1.000  C
  C52      1.0000 0.05300  0.08549  0.66957  Biso   1.000  C
  C53      1.0000 0.91451  0.96752  0.66957  Biso   1.000  C
  C54      1.0000 0.03248  0.94700  0.66957  Biso   1.000  C
  H1       1.0000 0.24480  0.52400  0.99690  Biso   1.000  H
  H2       1.0000 0.47600  0.72080  0.99690  Biso   1.000  H
  H3       1.0000 0.27920  0.75520  0.99690  Biso   1.000  H
  H4       1.0000 0.91147  0.85733  0.33023  Biso   1.000  H
  H5       1.0000 0.14267  0.05413  0.33023  Biso   1.000  H
  H6       1.0000 0.94587  0.08853  0.33023  Biso   1.000  H
  H7       1.0000 0.57813  0.19067  0.66357  Biso   1.000  H
  H8       1.0000 0.80933  0.38747  0.66357  Biso   1.000  H
  H9       1.0000 0.61253  0.42187  0.66357  Biso   1.000  H
  H10      1.0000 0.75520  0.47600  0.00310  Biso   1.000  H
  H11      1.0000 0.52400  0.27920  0.00310  Biso   1.000  H
  H12      1.0000 0.72080  0.24480  0.00310  Biso   1.000  H
  H13      1.0000 0.42187  0.80933  0.33643  Biso   1.000  H
  H14      1.0000 0.19067  0.61253  0.33643  Biso   1.000  H
  H15      1.0000 0.38747  0.57813  0.33643  Biso   1.000  H
  H16      1.0000 0.08853  0.14267  0.66977  Biso   1.000  H
  H17      1.0000 0.85733  0.94587  0.66977  Biso   1.000  H
  H18      1.0000 0.05413  0.91147  0.66977  Biso   1.000  H
  C55      1.0000 0.52380  0.54820  0.14400  Biso   1.000  C
  C56      1.0000 0.45180  0.97560  0.14400  Biso   1.000  C
  C57      1.0000 0.02440  0.47620  0.14400  Biso   1.000  C
  C58      1.0000 0.19047  0.88153  0.47733  Biso   1.000  C
  C59      1.0000 0.11847  0.30893  0.47733  Biso   1.000  C
  C60      1.0000 0.69107  0.80953  0.47733  Biso   1.000  C
  C61      1.0000 0.85713  0.21487  0.81067  Biso   1.000  C
  C62      1.0000 0.78513  0.64227  0.81067  Biso   1.000  C
  C63      1.0000 0.35773  0.14287  0.81067  Biso   1.000  C
  C64      1.0000 0.47620  0.45180  0.85600  Biso   1.000  C
  C65      1.0000 0.54820  0.02440  0.85600  Biso   1.000  C
  C66      1.0000 0.97560  0.52380  0.85600  Biso   1.000  C
  C67      1.0000 0.14287  0.78513  0.18933  Biso   1.000  C
  C68      1.0000 0.21487  0.35773  0.18933  Biso   1.000  C
  C69      1.0000 0.64227  0.85713  0.18933  Biso   1.000  C
  C70      1.0000 0.80953  0.11847  0.52267  Biso   1.000  C
  C71      1.0000 0.88153  0.69107  0.52267  Biso   1.000  C
  C72      1.0000 0.30893  0.19047  0.52267  Biso   1.000  C
  H19      1.0000 0.55560  0.60130  0.12620  Biso   1.000  H
  H20      1.0000 0.39870  0.95430  0.12620  Biso   1.000  H
  H21      1.0000 0.04570  0.44440  0.12620  Biso   1.000  H
  H22      1.0000 0.22227  0.93463  0.45953  Biso   1.000  H
  H23      1.0000 0.06537  0.28763  0.45953  Biso   1.000  H
  H24      1.0000 0.71237  0.77773  0.45953  Biso   1.000  H
  H25      1.0000 0.88893  0.26797  0.79287  Biso   1.000  H
  H26      1.0000 0.73203  0.62097  0.79287  Biso   1.000  H
  H27      1.0000 0.37903  0.11107  0.79287  Biso   1.000  H
  H28      1.0000 0.44440  0.39870  0.87380  Biso   1.000  H
  H29      1.0000 0.60130  0.04570  0.87380  Biso   1.000  H
  H30      1.0000 0.95430  0.55560  0.87380  Biso   1.000  H
  H31      1.0000 0.11107  0.73203  0.20713  Biso   1.000  H
  H32      1.0000 0.26797  0.37903  0.20713  Biso   1.000  H
  H33      1.0000 0.62097  0.88893  0.20713  Biso   1.000  H
  H34      1.0000 0.77773  0.06537  0.54047  Biso   1.000  H
  H35      1.0000 0.93463  0.71237  0.54047  Biso   1.000  H
  H36      1.0000 0.28763  0.22227  0.54047  Biso   1.000  H
  C73      1.0000 0.51580  0.53930  0.21340  Biso   1.000  C
  C74      1.0000 0.46070  0.97650  0.21340  Biso   1.000  C
  C75      1.0000 0.02350  0.48420  0.21340  Biso   1.000  C
  C76      1.0000 0.18247  0.87263  0.54673  Biso   1.000  C
  C77      1.0000 0.12737  0.30983  0.54673  Biso   1.000  C
  C78      1.0000 0.69017  0.81753  0.54673  Biso   1.000  C
  C79      1.0000 0.84913  0.20597  0.88007  Biso   1.000  C
  C80      1.0000 0.79403  0.64317  0.88007  Biso   1.000  C
  C81      1.0000 0.35683  0.15087  0.88007  Biso   1.000  C
  C82      1.0000 0.48420  0.46070  0.78660  Biso   1.000  C
  C83      1.0000 0.53930  0.02350  0.78660  Biso   1.000  C
  C84      1.0000 0.97650  0.51580  0.78660  Biso   1.000  C
  C85      1.0000 0.15087  0.79403  0.11993  Biso   1.000  C
  C86      1.0000 0.20597  0.35683  0.11993  Biso   1.000  C
  C87      1.0000 0.64317  0.84913  0.11993  Biso   1.000  C
  C88      1.0000 0.81753  0.12737  0.45327  Biso   1.000  C
  C89      1.0000 0.87263  0.69017  0.45327  Biso   1.000  C
  C90      1.0000 0.30983  0.18247  0.45327  Biso   1.000  C
  H37      1.0000 0.54150  0.58570  0.24130  Biso   1.000  H
  H38      1.0000 0.41430  0.95580  0.24130  Biso   1.000  H
  H39      1.0000 0.04420  0.45850  0.24130  Biso   1.000  H
  H40      1.0000 0.20817  0.91903  0.57463  Biso   1.000  H
  H41      1.0000 0.08097  0.28913  0.57463  Biso   1.000  H
  H42      1.0000 0.71087  0.79183  0.57463  Biso   1.000  H
  H43      1.0000 0.87483  0.25237  0.90797  Biso   1.000  H
  H44      1.0000 0.74763  0.62247  0.90797  Biso   1.000  H
  H45      1.0000 0.37753  0.12517  0.90797  Biso   1.000  H
  H46      1.0000 0.45850  0.41430  0.75870  Biso   1.000  H
  H47      1.0000 0.58570  0.04420  0.75870  Biso   1.000  H
  H48      1.0000 0.95580  0.54150  0.75870  Biso   1.000  H
  H49      1.0000 0.12517  0.74763  0.09203  Biso   1.000  H
  H50      1.0000 0.25237  0.37753  0.09203  Biso   1.000  H
  H51      1.0000 0.62247  0.87483  0.09203  Biso   1.000  H
  H52      1.0000 0.79183  0.08097  0.42537  Biso   1.000  H
  H53      1.0000 0.91903  0.71087  0.42537  Biso   1.000  H
  H54      1.0000 0.28913  0.20817  0.42537  Biso   1.000  H
  C91      1.0000 0.46990  0.46190  0.24086  Biso   1.000  C
  C92      1.0000 0.53810  0.00800  0.24086  Biso   1.000  C
  C93      1.0000 0.99200  0.53010  0.24086  Biso   1.000  C
  C94      1.0000 0.13657  0.79523  0.57419  Biso   1.000  C
  C95      1.0000 0.20477  0.34133  0.57419  Biso   1.000  C
  C96      1.0000 0.65867  0.86343  0.57419  Biso   1.000  C
  C97      1.0000 0.80323  0.12857  0.90753  Biso   1.000  C
  C98      1.0000 0.87143  0.67467  0.90753  Biso   1.000  C
  C99      1.0000 0.32533  0.19677  0.90753  Biso   1.000  C
  C100     1.0000 0.53010  0.53810  0.75914  Biso   1.000  C
  C101     1.0000 0.46190  0.99200  0.75914  Biso   1.000  C
  C102     1.0000 0.00800  0.46990  0.75914  Biso   1.000  C
  C103     1.0000 0.19677  0.87143  0.09247  Biso   1.000  C
  C104     1.0000 0.12857  0.32533  0.09247  Biso   1.000  C
  C105     1.0000 0.67467  0.80323  0.09247  Biso   1.000  C
  C106     1.0000 0.86343  0.20477  0.42581  Biso   1.000  C
  C107     1.0000 0.79523  0.65867  0.42581  Biso   1.000  C
  C108     1.0000 0.34133  0.13657  0.42581  Biso   1.000  C
  C109     1.0000 0.43370  0.39650  0.19655  Biso   1.000  C
  C110     1.0000 0.60350  0.03720  0.19655  Biso   1.000  C
  C111     1.0000 0.96280  0.56630  0.19655  Biso   1.000  C
  C112     1.0000 0.10037  0.72983  0.52988  Biso   1.000  C
  C113     1.0000 0.27017  0.37053  0.52988  Biso   1.000  C
  C114     1.0000 0.62947  0.89963  0.52988  Biso   1.000  C
  C115     1.0000 0.76703  0.06317  0.86322  Biso   1.000  C
  C116     1.0000 0.93683  0.70387  0.86322  Biso   1.000  C
  C117     1.0000 0.29613  0.23297  0.86322  Biso   1.000  C
  C118     1.0000 0.56630  0.60350  0.80345  Biso   1.000  C
  C119     1.0000 0.39650  0.96280  0.80345  Biso   1.000  C
  C120     1.0000 0.03720  0.43370  0.80345  Biso   1.000  C
  C121     1.0000 0.23297  0.93683  0.13678  Biso   1.000  C
  C122     1.0000 0.06317  0.29613  0.13678  Biso   1.000  C
  C123     1.0000 0.70387  0.76703  0.13678  Biso   1.000  C
  C124     1.0000 0.89963  0.27017  0.47012  Biso   1.000  C
  C125     1.0000 0.72983  0.62947  0.47012  Biso   1.000  C
  C126     1.0000 0.37053  0.10037  0.47012  Biso   1.000  C
  H55      1.0000 0.40190  0.34270  0.21290  Biso   1.000  H
  H56      1.0000 0.65730  0.05920  0.21290  Biso   1.000  H
  H57      1.0000 0.94080  0.59810  0.21290  Biso   1.000  H
  H58      1.0000 0.06857  0.67603  0.54623  Biso   1.000  H
  H59      1.0000 0.32397  0.39253  0.54623  Biso   1.000  H
  H60      1.0000 0.60747  0.93143  0.54623  Biso   1.000  H
  H61      1.0000 0.73523  0.00937  0.87957  Biso   1.000  H
  H62      1.0000 0.99063  0.72587  0.87957  Biso   1.000  H
  H63      1.0000 0.27413  0.26477  0.87957  Biso   1.000  H
  H64      1.0000 0.59810  0.65730  0.78710  Biso   1.000  H
  H65      1.0000 0.34270  0.94080  0.78710  Biso   1.000  H
  H66      1.0000 0.05920  0.40190  0.78710  Biso   1.000  H
  H67      1.0000 0.26477  0.99063  0.12043  Biso   1.000  H
  H68      1.0000 0.00937  0.27413  0.12043  Biso   1.000  H
  H69      1.0000 0.72587  0.73523  0.12043  Biso   1.000  H
  H70      1.0000 0.93143  0.32397  0.45377  Biso   1.000  H
  H71      1.0000 0.67603  0.60747  0.45377  Biso   1.000  H
  H72      1.0000 0.39253  0.06857  0.45377  Biso   1.000  H
  C127     1.0000 0.44440  0.41040  0.12816  Biso   1.000  C
  C128     1.0000 0.58960  0.03400  0.12816  Biso   1.000  C
  C129     1.0000 0.96600  0.55560  0.12816  Biso   1.000  C
  C130     1.0000 0.11107  0.74373  0.46149  Biso   1.000  C
  C131     1.0000 0.25627  0.36733  0.46149  Biso   1.000  C
  C132     1.0000 0.63267  0.88893  0.46149  Biso   1.000  C
  C133     1.0000 0.77773  0.07707  0.79483  Biso   1.000  C
  C134     1.0000 0.92293  0.70067  0.79483  Biso   1.000  C
  C135     1.0000 0.29933  0.22227  0.79483  Biso   1.000  C
  C136     1.0000 0.55560  0.58960  0.87184  Biso   1.000  C
  C137     1.0000 0.41040  0.96600  0.87184  Biso   1.000  C
  C138     1.0000 0.03400  0.44440  0.87184  Biso   1.000  C
  C139     1.0000 0.22227  0.92293  0.20517  Biso   1.000  C
  C140     1.0000 0.07707  0.29933  0.20517  Biso   1.000  C
  C141     1.0000 0.70067  0.77773  0.20517  Biso   1.000  C
  C142     1.0000 0.88893  0.25627  0.53851  Biso   1.000  C
  C143     1.0000 0.74373  0.63267  0.53851  Biso   1.000  C
  C144     1.0000 0.36733  0.11107  0.53851  Biso   1.000  C
  H73      1.0000 0.41940  0.36520  0.09890  Biso   1.000  H
  H74      1.0000 0.63480  0.05420  0.09890  Biso   1.000  H
  H75      1.0000 0.94580  0.58060  0.09890  Biso   1.000  H
  H76      1.0000 0.08607  0.69853  0.43223  Biso   1.000  H
  H77      1.0000 0.30147  0.38753  0.43223  Biso   1.000  H
  H78      1.0000 0.61247  0.91393  0.43223  Biso   1.000  H
  H79      1.0000 0.75273  0.03187  0.76557  Biso   1.000  H
  H80      1.0000 0.96813  0.72087  0.76557  Biso   1.000  H
  H81      1.0000 0.27913  0.24727  0.76557  Biso   1.000  H
  H82      1.0000 0.58060  0.63480  0.90110  Biso   1.000  H
  H83      1.0000 0.36520  0.94580  0.90110  Biso   1.000  H
  H84      1.0000 0.05420  0.41940  0.90110  Biso   1.000  H
  H85      1.0000 0.24727  0.96813  0.23443  Biso   1.000  H
  H86      1.0000 0.03187  0.27913  0.23443  Biso   1.000  H
  H87      1.0000 0.72087  0.75273  0.23443  Biso   1.000  H
  H88      1.0000 0.91393  0.30147  0.56777  Biso   1.000  H
  H89      1.0000 0.69853  0.61247  0.56777  Biso   1.000  H
  H90      1.0000 0.38753  0.08607  0.56777  Biso   1.000  H
  C145     1.0000 0.45590  0.44180  0.31541  Biso   1.000  C
  C146     1.0000 0.55820  0.01410  0.31541  Biso   1.000  C
  C147     1.0000 0.98590  0.54410  0.31541  Biso   1.000  C
  C148     1.0000 0.12257  0.77513  0.64874  Biso   1.000  C
  C149     1.0000 0.22487  0.34743  0.64874  Biso   1.000  C
  C150     1.0000 0.65257  0.87743  0.64874  Biso   1.000  C
  C151     1.0000 0.78923  0.10847  0.98208  Biso   1.000  C
  C152     1.0000 0.89153  0.68077  0.98208  Biso   1.000  C
  C153     1.0000 0.31923  0.21077  0.98208  Biso   1.000  C
  C154     1.0000 0.54410  0.55820  0.68459  Biso   1.000  C
  C155     1.0000 0.44180  0.98590  0.68459  Biso   1.000  C
  C156     1.0000 0.01410  0.45590  0.68459  Biso   1.000  C
  C157     1.0000 0.21077  0.89153  0.01792  Biso   1.000  C
  C158     1.0000 0.10847  0.31923  0.01792  Biso   1.000  C
  C159     1.0000 0.68077  0.78923  0.01792  Biso   1.000  C
  C160     1.0000 0.87743  0.22487  0.35126  Biso   1.000  C
  C161     1.0000 0.77513  0.65257  0.35126  Biso   1.000  C
  C162     1.0000 0.34743  0.12257  0.35126  Biso   1.000  C
  C163     1.0000 0.49490  0.50020  0.42956  Biso   1.000  C
  C164     1.0000 0.49980  0.99470  0.42956  Biso   1.000  C
  C165     1.0000 0.00530  0.50510  0.42956  Biso   1.000  C
  C166     1.0000 0.16157  0.83353  0.76289  Biso   1.000  C
  C167     1.0000 0.16647  0.32803  0.76289  Biso   1.000  C
  C168     1.0000 0.67197  0.83843  0.76289  Biso   1.000  C
  C169     1.0000 0.82823  0.16687  0.09623  Biso   1.000  C
  C170     1.0000 0.83313  0.66137  0.09623  Biso   1.000  C
  C171     1.0000 0.33863  0.17177  0.09623  Biso   1.000  C
  C172     1.0000 0.50510  0.49980  0.57044  Biso   1.000  C
  C173     1.0000 0.50020  0.00530  0.57044  Biso   1.000  C
  C174     1.0000 0.99470  0.49490  0.57044  Biso   1.000  C
  C175     1.0000 0.17177  0.83313  0.90377  Biso   1.000  C
  C176     1.0000 0.16687  0.33863  0.90377  Biso   1.000  C
  C177     1.0000 0.66137  0.82823  0.90377  Biso   1.000  C
  C178     1.0000 0.83843  0.16647  0.23711  Biso   1.000  C
  C179     1.0000 0.83353  0.67197  0.23711  Biso   1.000  C
  C180     1.0000 0.32803  0.16157  0.23711  Biso   1.000  C
  C181     1.0000 0.50910  0.56870  0.46648  Biso   1.000  C
  C182     1.0000 0.43130  0.94040  0.46648  Biso   1.000  C
  C183     1.0000 0.05960  0.49090  0.46648  Biso   1.000  C
  C184     1.0000 0.17577  0.90203  0.79981  Biso   1.000  C
  C185     1.0000 0.09797  0.27373  0.79981  Biso   1.000  C
  C186     1.0000 0.72627  0.82423  0.79981  Biso   1.000  C
  C187     1.0000 0.84243  0.23537  0.13315  Biso   1.000  C
  C188     1.0000 0.76463  0.60707  0.13315  Biso   1.000  C
  C189     1.0000 0.39293  0.15757  0.13315  Biso   1.000  C
  C190     1.0000 0.49090  0.43130  0.53352  Biso   1.000  C
  C191     1.0000 0.56870  0.05960  0.53352  Biso   1.000  C
  C192     1.0000 0.94040  0.50910  0.53352  Biso   1.000  C
  C193     1.0000 0.15757  0.76463  0.86685  Biso   1.000  C
  C194     1.0000 0.23537  0.39293  0.86685  Biso   1.000  C
  C195     1.0000 0.60707  0.84243  0.86685  Biso   1.000  C
  C196     1.0000 0.82423  0.09797  0.20019  Biso   1.000  C
  C197     1.0000 0.90203  0.72627  0.20019  Biso   1.000  C
  C198     1.0000 0.27373  0.17577  0.20019  Biso   1.000  C
  H91      1.0000 0.51540  0.61560  0.44420  Biso   1.000  H
  H92      1.0000 0.38440  0.89980  0.44420  Biso   1.000  H
  H93      1.0000 0.10020  0.48460  0.44420  Biso   1.000  H
  H94      1.0000 0.18207  0.94893  0.77753  Biso   1.000  H
  H95      1.0000 0.05107  0.23313  0.77753  Biso   1.000  H
  H96      1.0000 0.76687  0.81793  0.77753  Biso   1.000  H
  H97      1.0000 0.84873  0.28227  0.11087  Biso   1.000  H
  H98      1.0000 0.71773  0.56647  0.11087  Biso   1.000  H
  H99      1.0000 0.43353  0.15127  0.11087  Biso   1.000  H
  H100     1.0000 0.48460  0.38440  0.55580  Biso   1.000  H
  H101     1.0000 0.61560  0.10020  0.55580  Biso   1.000  H
  H102     1.0000 0.89980  0.51540  0.55580  Biso   1.000  H
  H103     1.0000 0.15127  0.71773  0.88913  Biso   1.000  H
  H104     1.0000 0.28227  0.43353  0.88913  Biso   1.000  H
  H105     1.0000 0.56647  0.84873  0.88913  Biso   1.000  H
  H106     1.0000 0.81793  0.05107  0.22247  Biso   1.000  H
  H107     1.0000 0.94893  0.76687  0.22247  Biso   1.000  H
  H108     1.0000 0.23313  0.18207  0.22247  Biso   1.000  H
  C199     1.0000 0.48580  0.43100  0.46379  Biso   1.000  C
  C200     1.0000 0.56900  0.05480  0.46379  Biso   1.000  C
  C201     1.0000 0.94520  0.51420  0.46379  Biso   1.000  C
  C202     1.0000 0.15247  0.76433  0.79712  Biso   1.000  C
  C203     1.0000 0.23567  0.38813  0.79712  Biso   1.000  C
  C204     1.0000 0.61187  0.84753  0.79712  Biso   1.000  C
  C205     1.0000 0.81913  0.09767  0.13046  Biso   1.000  C
  C206     1.0000 0.90233  0.72147  0.13046  Biso   1.000  C
  C207     1.0000 0.27853  0.18087  0.13046  Biso   1.000  C
  C208     1.0000 0.51420  0.56900  0.53621  Biso   1.000  C
  C209     1.0000 0.43100  0.94520  0.53621  Biso   1.000  C
  C210     1.0000 0.05480  0.48580  0.53621  Biso   1.000  C
  C211     1.0000 0.18087  0.90233  0.86954  Biso   1.000  C
  C212     1.0000 0.09767  0.27853  0.86954  Biso   1.000  C
  C213     1.0000 0.72147  0.81913  0.86954  Biso   1.000  C
  C214     1.0000 0.84753  0.23567  0.20288  Biso   1.000  C
  C215     1.0000 0.76433  0.61187  0.20288  Biso   1.000  C
  C216     1.0000 0.38813  0.15247  0.20288  Biso   1.000  C
  H109     1.0000 0.47620  0.38420  0.43960  Biso   1.000  H
  H110     1.0000 0.61580  0.09200  0.43960  Biso   1.000  H
  H111     1.0000 0.90800  0.52380  0.43960  Biso   1.000  H
  H112     1.0000 0.14287  0.71753  0.77293  Biso   1.000  H
  H113     1.0000 0.28247  0.42533  0.77293  Biso   1.000  H
  H114     1.0000 0.57467  0.85713  0.77293  Biso   1.000  H
  H115     1.0000 0.80953  0.05087  0.10627  Biso   1.000  H
  H116     1.0000 0.94913  0.75867  0.10627  Biso   1.000  H
  H117     1.0000 0.24133  0.19047  0.10627  Biso   1.000  H
  H118     1.0000 0.52380  0.61580  0.56040  Biso   1.000  H
  H119     1.0000 0.38420  0.90800  0.56040  Biso   1.000  H
  H120     1.0000 0.09200  0.47620  0.56040  Biso   1.000  H
  H121     1.0000 0.19047  0.94913  0.89373  Biso   1.000  H
  H122     1.0000 0.05087  0.24133  0.89373  Biso   1.000  H
  H123     1.0000 0.75867  0.80953  0.89373  Biso   1.000  H
  H124     1.0000 0.85713  0.28247  0.22707  Biso   1.000  H
  H125     1.0000 0.71753  0.57467  0.22707  Biso   1.000  H
  H126     1.0000 0.42533  0.14287  0.22707  Biso   1.000  H
  Cu1      1.0000 0.50000  0.50000  0.00000  Biso   1.000  Cu
  Cu2      1.0000 0.50000  0.00000  0.00000  Biso   1.000  Cu
  Cu3      1.0000 0.00000  0.50000  0.00000  Biso   1.000  Cu
  Cu4      1.0000 0.16667  0.83333  0.33333  Biso   1.000  Cu
  Cu5      1.0000 0.16667  0.33333  0.33333  Biso   1.000  Cu
  Cu6      1.0000 0.66667  0.83333  0.33333  Biso   1.000  Cu
  Cu7      1.0000 0.83333  0.16667  0.66667  Biso   1.000  Cu
  Cu8      1.0000 0.83333  0.66667  0.66667  Biso   1.000  Cu
  Cu9      1.0000 0.33333  0.16667  0.66667  Biso   1.000  Cu
  H127     1.0000 0.51400  0.55900  0.34100  Biso   1.000  H
  H128     1.0000 0.44100  0.95500  0.34100  Biso   1.000  H
  H129     1.0000 0.04500  0.48600  0.34100  Biso   1.000  H
  H130     1.0000 0.18067  0.89233  0.67433  Biso   1.000  H
  H131     1.0000 0.10767  0.28833  0.67433  Biso   1.000  H
  H132     1.0000 0.71167  0.81933  0.67433  Biso   1.000  H
  H133     1.0000 0.84733  0.22567  0.00767  Biso   1.000  H
  H134     1.0000 0.77433  0.62167  0.00767  Biso   1.000  H
  H135     1.0000 0.37833  0.15267  0.00767  Biso   1.000  H
  H136     1.0000 0.48600  0.44100  0.65900  Biso   1.000  H
  H137     1.0000 0.55900  0.04500  0.65900  Biso   1.000  H
  H138     1.0000 0.95500  0.51400  0.65900  Biso   1.000  H
  H139     1.0000 0.15267  0.77433  0.99233  Biso   1.000  H
  H140     1.0000 0.22567  0.37833  0.99233  Biso   1.000  H
  H141     1.0000 0.62167  0.84733  0.99233  Biso   1.000  H
  H142     1.0000 0.81933  0.10767  0.32567  Biso   1.000  H
  H143     1.0000 0.89233  0.71167  0.32567  Biso   1.000  H
  H144     1.0000 0.28833  0.18067  0.32567  Biso   1.000  H
  N1       1.0000 0.48894  0.48584  0.10218  Biso   1.000  N
  N2       1.0000 0.51416  0.00310  0.10218  Biso   1.000  N
  N3       1.0000 0.99690  0.51106  0.10218  Biso   1.000  N
  N4       1.0000 0.15561  0.81917  0.43551  Biso   1.000  N
  N5       1.0000 0.18083  0.33643  0.43551  Biso   1.000  N
  N6       1.0000 0.66357  0.84439  0.43551  Biso   1.000  N
  N7       1.0000 0.82227  0.15251  0.76885  Biso   1.000  N
  N8       1.0000 0.84749  0.66977  0.76885  Biso   1.000  N
  N9       1.0000 0.33023  0.17773  0.76885  Biso   1.000  N
  N10      1.0000 0.51106  0.51416  0.89782  Biso   1.000  N
  N11      1.0000 0.48584  0.99690  0.89782  Biso   1.000  N
  N12      1.0000 0.00310  0.48894  0.89782  Biso   1.000  N
  N13      1.0000 0.17773  0.84749  0.23115  Biso   1.000  N
  N14      1.0000 0.15251  0.33023  0.23115  Biso   1.000  N
  N15      1.0000 0.66977  0.82227  0.23115  Biso   1.000  N
  N16      1.0000 0.84439  0.18083  0.56449  Biso   1.000  N
  N17      1.0000 0.81917  0.66357  0.56449  Biso   1.000  N
  N18      1.0000 0.33643  0.15561  0.56449  Biso   1.000  N
  N19      1.0000 0.49440  0.50590  0.35835  Biso   1.000  N
  N20      1.0000 0.49410  0.98850  0.35835  Biso   1.000  N
  N21      1.0000 0.01150  0.50560  0.35835  Biso   1.000  N
  N22      1.0000 0.16107  0.83923  0.69168  Biso   1.000  N
  N23      1.0000 0.16077  0.32183  0.69168  Biso   1.000  N
  N24      1.0000 0.67817  0.83893  0.69168  Biso   1.000  N
  N25      1.0000 0.82773  0.17257  0.02502  Biso   1.000  N
  N26      1.0000 0.82743  0.65517  0.02502  Biso   1.000  N
  N27      1.0000 0.34483  0.17227  0.02502  Biso   1.000  N
  N28      1.0000 0.50560  0.49410  0.64165  Biso   1.000  N
  N29      1.0000 0.50590  0.01150  0.64165  Biso   1.000  N
  N30      1.0000 0.98850  0.49440  0.64165  Biso   1.000  N
  N31      1.0000 0.17227  0.82743  0.97498  Biso   1.000  N
  N32      1.0000 0.17257  0.34483  0.97498  Biso   1.000  N
  N33      1.0000 0.65517  0.82773  0.97498  Biso   1.000  N
  N34      1.0000 0.83893  0.16077  0.30832  Biso   1.000  N
  N35      1.0000 0.83923  0.67817  0.30832  Biso   1.000  N
  N36      1.0000 0.32183  0.16107  0.30832  Biso   1.000  N
  O1       1.0000 0.35405  0.48028  0.99938  Biso   1.000  O
  O2       1.0000 0.51972  0.87377  0.99938  Biso   1.000  O
  O3       1.0000 0.12623  0.64595  0.99938  Biso   1.000  O
  O4       1.0000 0.02072  0.81361  0.33271  Biso   1.000  O
  O5       1.0000 0.18639  0.20710  0.33271  Biso   1.000  O
  O6       1.0000 0.79290  0.97928  0.33271  Biso   1.000  O
  O7       1.0000 0.68738  0.14695  0.66605  Biso   1.000  O
  O8       1.0000 0.85305  0.54044  0.66605  Biso   1.000  O
  O9       1.0000 0.45956  0.31262  0.66605  Biso   1.000  O
  O10      1.0000 0.64595  0.51972  0.00062  Biso   1.000  O
  O11      1.0000 0.48028  0.12623  0.00062  Biso   1.000  O
  O12      1.0000 0.87377  0.35405  0.00062  Biso   1.000  O
  O13      1.0000 0.31262  0.85305  0.33395  Biso   1.000  O
  O14      1.0000 0.14695  0.45956  0.33395  Biso   1.000  O
  O15      1.0000 0.54044  0.68738  0.33395  Biso   1.000  O
  O16      1.0000 0.97928  0.18639  0.66729  Biso   1.000  O
  O17      1.0000 0.81361  0.79290  0.66729  Biso   1.000  O
  O18      1.0000 0.20710  0.02072  0.66729  Biso   1.000  O
  O19      1.0000 0.47928  0.59172  0.00489  Biso   1.000  O
  O20      1.0000 0.40828  0.88756  0.00489  Biso   1.000  O
  O21      1.0000 0.11244  0.52072  0.00489  Biso   1.000  O
  O22      1.0000 0.14595  0.92505  0.33822  Biso   1.000  O
  O23      1.0000 0.07495  0.22089  0.33822  Biso   1.000  O
  O24      1.0000 0.77911  0.85405  0.33822  Biso   1.000  O
  O25      1.0000 0.81261  0.25839  0.67156  Biso   1.000  O
  O26      1.0000 0.74161  0.55423  0.67156  Biso   1.000  O
  O27      1.0000 0.44577  0.18739  0.67156  Biso   1.000  O
  O28      1.0000 0.52072  0.40828  0.99511  Biso   1.000  O
  O29      1.0000 0.59172  0.11244  0.99511  Biso   1.000  O
  O30      1.0000 0.88756  0.47928  0.99511  Biso   1.000  O
  O31      1.0000 0.18739  0.74161  0.32844  Biso   1.000  O
  O32      1.0000 0.25839  0.44577  0.32844  Biso   1.000  O
  O33      1.0000 0.55423  0.81261  0.32844  Biso   1.000  O
  O34      1.0000 0.85405  0.07495  0.66178  Biso   1.000  O
  O35      1.0000 0.92505  0.77911  0.66178  Biso   1.000  O
  O36      1.0000 0.22089  0.14595  0.66178  Biso   1.000  O
  O37      1.0000 0.41140  0.37020  0.33325  Biso   1.000  O
  O38      1.0000 0.62980  0.04120  0.33325  Biso   1.000  O
  O39      1.0000 0.95880  0.58860  0.33325  Biso   1.000  O
  O40      1.0000 0.07807  0.70353  0.66658  Biso   1.000  O
  O41      1.0000 0.29647  0.37453  0.66658  Biso   1.000  O
  O42      1.0000 0.62547  0.92193  0.66658  Biso   1.000  O
  O43      1.0000 0.74473  0.03687  0.99992  Biso   1.000  O
  O44      1.0000 0.96313  0.70787  0.99992  Biso   1.000  O
  O45      1.0000 0.29213  0.25527  0.99992  Biso   1.000  O
  O46      1.0000 0.58860  0.62980  0.66675  Biso   1.000  O
  O47      1.0000 0.37020  0.95880  0.66675  Biso   1.000  O
  O48      1.0000 0.04120  0.41140  0.66675  Biso   1.000  O
  O49      1.0000 0.25527  0.96313  0.00008  Biso   1.000  O
  O50      1.0000 0.03687  0.29213  0.00008  Biso   1.000  O
  O51      1.0000 0.70787  0.74473  0.00008  Biso   1.000  O
  O52      1.0000 0.92193  0.29647  0.33342  Biso   1.000  O
  O53      1.0000 0.70353  0.62547  0.33342  Biso   1.000  O
  O54      1.0000 0.37453  0.07807  0.33342  Biso   1.000  O
  O55      1.0000 0.33330  0.66670  0.16670  Biso   1.000  O
  O56      1.0000 0.99997  0.00003  0.50003  Biso   1.000  O
  O57      1.0000 0.66663  0.33337  0.83337  Biso   1.000  O
  O58      1.0000 0.33330  0.66670  0.80220  Biso   1.000  O
  O59      1.0000 0.99997  0.00003  0.13553  Biso   1.000  O
  O60      1.0000 0.66663  0.33337  0.46887  Biso   1.000  O
  O61      1.0000 0.66670  0.33330  0.19780  Biso   1.000  O
  O62      1.0000 0.33337  0.66663  0.53113  Biso   1.000  O
  O63      1.0000 0.00003  0.99997  0.86447  Biso   1.000  O
  O64      1.0000 0.31600  0.74500  0.16640  Biso   1.000  O
  O65      1.0000 0.25500  0.57100  0.16640  Biso   1.000  O
  O66      1.0000 0.42900  0.68400  0.16640  Biso   1.000  O
  O67      1.0000 0.98267  0.07833  0.49973  Biso   1.000  O
  O68      1.0000 0.92167  0.90433  0.49973  Biso   1.000  O
  O69      1.0000 0.09567  0.01733  0.49973  Biso   1.000  O
  O70      1.0000 0.64933  0.41167  0.83307  Biso   1.000  O
  O71      1.0000 0.58833  0.23767  0.83307  Biso   1.000  O
  O72      1.0000 0.76233  0.35067  0.83307  Biso   1.000  O
  O73      1.0000 0.68400  0.25500  0.83360  Biso   1.000  O
  O74      1.0000 0.74500  0.42900  0.83360  Biso   1.000  O
  O75      1.0000 0.57100  0.31600  0.83360  Biso   1.000  O
  O76      1.0000 0.35067  0.58833  0.16693  Biso   1.000  O
  O77      1.0000 0.41167  0.76233  0.16693  Biso   1.000  O
  O78      1.0000 0.23767  0.64933  0.16693  Biso   1.000  O
  O79      1.0000 0.01733  0.92167  0.50027  Biso   1.000  O
  O80      1.0000 0.07833  0.09567  0.50027  Biso   1.000  O
  O81      1.0000 0.90433  0.98267  0.50027  Biso   1.000  O
  O82      1.0000 0.36140  0.75260  0.80380  Biso   1.000  O
  O83      1.0000 0.24740  0.60880  0.80380  Biso   1.000  O
  O84      1.0000 0.39120  0.63860  0.80380  Biso   1.000  O
  O85      1.0000 0.02807  0.08593  0.13713  Biso   1.000  O
  O86      1.0000 0.91407  0.94213  0.13713  Biso   1.000  O
  O87      1.0000 0.05787  0.97193  0.13713  Biso   1.000  O
  O88      1.0000 0.69473  0.41927  0.47047  Biso   1.000  O
  O89      1.0000 0.58073  0.27547  0.47047  Biso   1.000  O
  O90      1.0000 0.72453  0.30527  0.47047  Biso   1.000  O
  O91      1.0000 0.63860  0.24740  0.19620  Biso   1.000  O
  O92      1.0000 0.75260  0.39120  0.19620  Biso   1.000  O
  O93      1.0000 0.60880  0.36140  0.19620  Biso   1.000  O
  O94      1.0000 0.30527  0.58073  0.52953  Biso   1.000  O
  O95      1.0000 0.41927  0.72453  0.52953  Biso   1.000  O
  O96      1.0000 0.27547  0.69473  0.52953  Biso   1.000  O
  O97      1.0000 0.97193  0.91407  0.86287  Biso   1.000  O
  O98      1.0000 0.08593  0.05787  0.86287  Biso   1.000  O
  O99      1.0000 0.94213  0.02807  0.86287  Biso   1.000  O
