data_image0
_cell_length_a       10.427
_cell_length_b       8.876
_cell_length_c       13.777
_cell_angle_alpha    90
_cell_angle_beta     93.254
_cell_angle_gamma    90

_symmetry_space_group_name_H-M    "P 1"
_symmetry_int_tables_number       1

loop_
  _symmetry_equiv_pos_as_xyz
  'x, y, z'

loop_
  _atom_site_label
  _atom_site_occupancy
  _atom_site_fract_x
  _atom_site_fract_y
  _atom_site_fract_z
  _atom_site_thermal_displace_type
  _atom_site_B_iso_or_equiv
  _atom_site_type_symbol
  Cu1      1.0000 0.86940  0.03990  0.84670  Biso   1.000  Cu
  Cu2      1.0000 0.63060  0.53990  0.65330  Biso   1.000  Cu
  Cu3      1.0000 0.13060  0.96010  0.15330  Biso   1.000  Cu
  Cu4      1.0000 0.36940  0.46010  0.34670  Biso   1.000  Cu
  S1       1.0000 0.81030  0.87310  0.64990  Biso   1.000  S
  S2       1.0000 0.68970  0.37310  0.85010  Biso   1.000  S
  S3       1.0000 0.18970  0.12690  0.35010  Biso   1.000  S
  S4       1.0000 0.31030  0.62690  0.14990  Biso   1.000  S
  N1       1.0000 0.87010  0.11170  0.97900  Biso   1.000  N
  N2       1.0000 0.62990  0.61170  0.52100  Biso   1.000  N
  N3       1.0000 0.12990  0.88830  0.02100  Biso   1.000  N
  N4       1.0000 0.37010  0.38830  0.47900  Biso   1.000  N
  N5       1.0000 0.02240  0.18060  0.85110  Biso   1.000  N
  N6       1.0000 0.47760  0.68060  0.64890  Biso   1.000  N
  N7       1.0000 0.97760  0.81940  0.14890  Biso   1.000  N
  N8       1.0000 0.52240  0.31940  0.35110  Biso   1.000  N
  N9       1.0000 0.12890  0.36890  0.94500  Biso   1.000  N
  N10      1.0000 0.37110  0.86890  0.55500  Biso   1.000  N
  N11      1.0000 0.87110  0.63110  0.05500  Biso   1.000  N
  N12      1.0000 0.62890  0.13110  0.44500  Biso   1.000  N
  N13      1.0000 0.61190  0.86660  0.03510  Biso   1.000  N
  N14      1.0000 0.88810  0.36660  0.46490  Biso   1.000  N
  N15      1.0000 0.38810  0.13340  0.96490  Biso   1.000  N
  N16      1.0000 0.11190  0.63340  0.53510  Biso   1.000  N
  N17      1.0000 0.74180  0.89780  0.90350  Biso   1.000  N
  N18      1.0000 0.75820  0.39780  0.59650  Biso   1.000  N
  N19      1.0000 0.25820  0.10220  0.09650  Biso   1.000  N
  N20      1.0000 0.24180  0.60220  0.40350  Biso   1.000  N
  O1       1.0000 0.10440  0.22460  0.77890  Biso   1.000  O
  O2       1.0000 0.39560  0.72460  0.72110  Biso   1.000  O
  O3       1.0000 0.89560  0.77540  0.22110  Biso   1.000  O
  O4       1.0000 0.60440  0.27540  0.27890  Biso   1.000  O
  O5       1.0000 0.66610  0.78090  0.86330  Biso   1.000  O
  O6       1.0000 0.83390  0.28090  0.63670  Biso   1.000  O
  O7       1.0000 0.33390  0.21910  0.13670  Biso   1.000  O
  O8       1.0000 0.16610  0.71910  0.36330  Biso   1.000  O
  O9       1.0000 0.89360  0.96700  0.71930  Biso   1.000  O
  O10      1.0000 0.60640  0.46700  0.78070  Biso   1.000  O
  O11      1.0000 0.10640  0.03300  0.28070  Biso   1.000  O
  O12      1.0000 0.39360  0.53300  0.21930  Biso   1.000  O
  O13      1.0000 0.71500  0.22720  0.79950  Biso   1.000  O
  O14      1.0000 0.78500  0.72720  0.70050  Biso   1.000  O
  O15      1.0000 0.28500  0.77280  0.20050  Biso   1.000  O
  O16      1.0000 0.21500  0.27280  0.29950  Biso   1.000  O
  O17      1.0000 0.88610  0.84460  0.56550  Biso   1.000  O
  O18      1.0000 0.61390  0.34460  0.93450  Biso   1.000  O
  O19      1.0000 0.11390  0.15540  0.43450  Biso   1.000  O
  O20      1.0000 0.38610  0.65540  0.06550  Biso   1.000  O
  O21      1.0000 0.69040  0.95060  0.62480  Biso   1.000  O
  O22      1.0000 0.80960  0.45060  0.87520  Biso   1.000  O
  O23      1.0000 0.30960  0.04940  0.37520  Biso   1.000  O
  O24      1.0000 0.19040  0.54940  0.12480  Biso   1.000  O
  C1       1.0000 0.95400  0.21830  0.00810  Biso   1.000  C
  C2       1.0000 0.54600  0.71830  0.49190  Biso   1.000  C
  C3       1.0000 0.04600  0.78170  0.99190  Biso   1.000  C
  C4       1.0000 0.45400  0.28170  0.50810  Biso   1.000  C
  C5       1.0000 0.95440  0.27630  0.10150  Biso   1.000  C
  C6       1.0000 0.54560  0.77630  0.39850  Biso   1.000  C
  C7       1.0000 0.04560  0.72370  0.89850  Biso   1.000  C
  C8       1.0000 0.45440  0.22370  0.60150  Biso   1.000  C
  C9       1.0000 0.86380  0.22020  0.16300  Biso   1.000  C
  C10      1.0000 0.63620  0.72020  0.33700  Biso   1.000  C
  C11      1.0000 0.13620  0.77980  0.83700  Biso   1.000  C
  C12      1.0000 0.36380  0.27980  0.66300  Biso   1.000  C
  C13      1.0000 0.77690  0.10910  0.13160  Biso   1.000  C
  C14      1.0000 0.72310  0.60910  0.36840  Biso   1.000  C
  C15      1.0000 0.22310  0.89090  0.86840  Biso   1.000  C
  C16      1.0000 0.27690  0.39090  0.63160  Biso   1.000  C
  C17      1.0000 0.78340  0.05640  0.03730  Biso   1.000  C
  C18      1.0000 0.71660  0.55640  0.46270  Biso   1.000  C
  C19      1.0000 0.21660  0.94360  0.96270  Biso   1.000  C
  C20      1.0000 0.28340  0.44360  0.53730  Biso   1.000  C
  C21      1.0000 0.04160  0.25970  0.93040  Biso   1.000  C
  C22      1.0000 0.45840  0.75970  0.56960  Biso   1.000  C
  C23      1.0000 0.95840  0.74030  0.06960  Biso   1.000  C
  C24      1.0000 0.54160  0.24030  0.43040  Biso   1.000  C
  C25      1.0000 0.70540  0.93410  0.98970  Biso   1.000  C
  C26      1.0000 0.79460  0.43410  0.51030  Biso   1.000  C
  C27      1.0000 0.29460  0.06590  0.01030  Biso   1.000  C
  C28      1.0000 0.20540  0.56590  0.48970  Biso   1.000  C
  O25      1.0000 0.86980  0.96960  0.37420  Biso   1.000  O
  O26      1.0000 0.63020  0.46960  0.12580  Biso   1.000  O
  O27      1.0000 0.13020  0.03040  0.62580  Biso   1.000  O
  O28      1.0000 0.36980  0.53040  0.87420  Biso   1.000  O
  O29      1.0000 0.50350  0.96680  0.20630  Biso   1.000  O
  O30      1.0000 0.99650  0.46680  0.29370  Biso   1.000  O
  O31      1.0000 0.49650  0.03320  0.79370  Biso   1.000  O
  O32      1.0000 0.00350  0.53320  0.70630  Biso   1.000  O
  H1       1.0000 0.17880  0.39230  0.89970  Biso   1.000  H
  H2       1.0000 0.32120  0.89230  0.60030  Biso   1.000  H
  H3       1.0000 0.82120  0.60770  0.10030  Biso   1.000  H
  H4       1.0000 0.67880  0.10770  0.39970  Biso   1.000  H
  H5       1.0000 0.13520  0.41570  0.99970  Biso   1.000  H
  H6       1.0000 0.36480  0.91570  0.50030  Biso   1.000  H
  H7       1.0000 0.86480  0.58430  0.00030  Biso   1.000  H
  H8       1.0000 0.63520  0.08430  0.49970  Biso   1.000  H
  H9       1.0000 0.57030  0.79310  0.00770  Biso   1.000  H
  H10      1.0000 0.92970  0.29310  0.49230  Biso   1.000  H
  H11      1.0000 0.42970  0.20690  0.99230  Biso   1.000  H
  H12      1.0000 0.07030  0.70690  0.50770  Biso   1.000  H
  H13      1.0000 0.59310  0.89660  0.09200  Biso   1.000  H
  H14      1.0000 0.90690  0.39660  0.40800  Biso   1.000  H
  H15      1.0000 0.40690  0.10340  0.90800  Biso   1.000  H
  H16      1.0000 0.09310  0.60340  0.59200  Biso   1.000  H
  H17      1.0000 0.09770  0.16510  0.73340  Biso   1.000  H
  H18      1.0000 0.40230  0.66510  0.76660  Biso   1.000  H
  H19      1.0000 0.90230  0.83490  0.26660  Biso   1.000  H
  H20      1.0000 0.59770  0.33490  0.23340  Biso   1.000  H
  H21      1.0000 0.70100  0.74490  0.81670  Biso   1.000  H
  H22      1.0000 0.79900  0.24490  0.68330  Biso   1.000  H
  H23      1.0000 0.29900  0.25510  0.18330  Biso   1.000  H
  H24      1.0000 0.20100  0.75510  0.31670  Biso   1.000  H
  H25      1.0000 0.01300  0.35000  0.12250  Biso   1.000  H
  H26      1.0000 0.48700  0.85000  0.37750  Biso   1.000  H
  H27      1.0000 0.98700  0.65000  0.87750  Biso   1.000  H
  H28      1.0000 0.51300  0.15000  0.62250  Biso   1.000  H
  H29      1.0000 0.86140  0.25770  0.22590  Biso   1.000  H
  H30      1.0000 0.63860  0.75770  0.27410  Biso   1.000  H
  H31      1.0000 0.13860  0.74230  0.77410  Biso   1.000  H
  H32      1.0000 0.36140  0.24230  0.72590  Biso   1.000  H
  H33      1.0000 0.71660  0.07150  0.17250  Biso   1.000  H
  H34      1.0000 0.78340  0.57150  0.32750  Biso   1.000  H
  H35      1.0000 0.28340  0.92850  0.82750  Biso   1.000  H
  H36      1.0000 0.21660  0.42850  0.67250  Biso   1.000  H
  H37      1.0000 0.92930  0.01750  0.37460  Biso   1.000  H
  H38      1.0000 0.57070  0.51750  0.12540  Biso   1.000  H
  H39      1.0000 0.07070  0.98250  0.62540  Biso   1.000  H
  H40      1.0000 0.42930  0.48250  0.87460  Biso   1.000  H
  H41      1.0000 0.86720  0.92530  0.42170  Biso   1.000  H
  H42      1.0000 0.63280  0.42530  0.07830  Biso   1.000  H
  H43      1.0000 0.13280  0.07470  0.57830  Biso   1.000  H
  H44      1.0000 0.36720  0.57470  0.92170  Biso   1.000  H
  H45      1.0000 0.44040  0.92000  0.20510  Biso   1.000  H
  H46      1.0000 0.05960  0.42000  0.29490  Biso   1.000  H
  H47      1.0000 0.55960  0.08000  0.79490  Biso   1.000  H
  H48      1.0000 0.94040  0.58000  0.70510  Biso   1.000  H
  H49      1.0000 0.48610  0.05460  0.21240  Biso   1.000  H
  H50      1.0000 0.01390  0.55460  0.28760  Biso   1.000  H
  H51      1.0000 0.51390  0.94540  0.78760  Biso   1.000  H
  H52      1.0000 0.98610  0.44540  0.71240  Biso   1.000  H
