data_image0
_cell_length_a       17.076
_cell_length_b       9.703
_cell_length_c       16.988
_cell_angle_alpha    90
_cell_angle_beta     111.26
_cell_angle_gamma    90

_symmetry_space_group_name_H-M    "P 1"
_symmetry_int_tables_number       1

loop_
  _symmetry_equiv_pos_as_xyz
  'x, y, z'

loop_
  _atom_site_label
  _atom_site_occupancy
  _atom_site_fract_x
  _atom_site_fract_y
  _atom_site_fract_z
  _atom_site_thermal_displace_type
  _atom_site_B_iso_or_equiv
  _atom_site_type_symbol
  Cu1      1.0000 0.00000  0.92083  0.25000  Biso   1.000  Cu
  Cu2      1.0000 0.50000  0.42083  0.25000  Biso   1.000  Cu
  Cu3      1.0000 0.00000  0.07917  0.75000  Biso   1.000  Cu
  Cu4      1.0000 0.50000  0.57917  0.75000  Biso   1.000  Cu
  S1       1.0000 0.26154  0.42063  0.42426  Biso   1.000  S
  S2       1.0000 0.73846  0.42063  0.07574  Biso   1.000  S
  S3       1.0000 0.76154  0.92063  0.42426  Biso   1.000  S
  S4       1.0000 0.23846  0.92063  0.07574  Biso   1.000  S
  S5       1.0000 0.73846  0.57937  0.57574  Biso   1.000  S
  S6       1.0000 0.26154  0.57937  0.92426  Biso   1.000  S
  S7       1.0000 0.23846  0.07937  0.57574  Biso   1.000  S
  S8       1.0000 0.76154  0.07937  0.92426  Biso   1.000  S
  N1       1.0000 0.08390  0.06720  0.30970  Biso   1.000  N
  N2       1.0000 0.91610  0.06720  0.19030  Biso   1.000  N
  N3       1.0000 0.58390  0.56720  0.30970  Biso   1.000  N
  N4       1.0000 0.41610  0.56720  0.19030  Biso   1.000  N
  N5       1.0000 0.91610  0.93280  0.69030  Biso   1.000  N
  N6       1.0000 0.08390  0.93280  0.80970  Biso   1.000  N
  N7       1.0000 0.41610  0.43280  0.69030  Biso   1.000  N
  N8       1.0000 0.58390  0.43280  0.80970  Biso   1.000  N
  C1       1.0000 0.19120  0.55780  0.37960  Biso   1.000  C
  C2       1.0000 0.80880  0.55780  0.12040  Biso   1.000  C
  C3       1.0000 0.69120  0.05780  0.37960  Biso   1.000  C
  C4       1.0000 0.30880  0.05780  0.12040  Biso   1.000  C
  C5       1.0000 0.80880  0.44220  0.62040  Biso   1.000  C
  C6       1.0000 0.19120  0.44220  0.87960  Biso   1.000  C
  C7       1.0000 0.30880  0.94220  0.62040  Biso   1.000  C
  C8       1.0000 0.69120  0.94220  0.87960  Biso   1.000  C
  N9       1.0000 0.08280  0.77140  0.30750  Biso   1.000  N
  N10      1.0000 0.91720  0.77140  0.19250  Biso   1.000  N
  N11      1.0000 0.58280  0.27140  0.30750  Biso   1.000  N
  N12      1.0000 0.41720  0.27140  0.19250  Biso   1.000  N
  N13      1.0000 0.91720  0.22860  0.69250  Biso   1.000  N
  N14      1.0000 0.08280  0.22860  0.80750  Biso   1.000  N
  N15      1.0000 0.41720  0.72860  0.69250  Biso   1.000  N
  N16      1.0000 0.58280  0.72860  0.80750  Biso   1.000  N
  C9       1.0000 0.16250  0.06710  0.31130  Biso   1.000  C
  C10      1.0000 0.83750  0.06710  0.18870  Biso   1.000  C
  C11      1.0000 0.66250  0.56710  0.31130  Biso   1.000  C
  C12      1.0000 0.33750  0.56710  0.18870  Biso   1.000  C
  C13      1.0000 0.83750  0.93290  0.68870  Biso   1.000  C
  C14      1.0000 0.16250  0.93290  0.81130  Biso   1.000  C
  C15      1.0000 0.33750  0.43290  0.68870  Biso   1.000  C
  C16      1.0000 0.66250  0.43290  0.81130  Biso   1.000  C
  H1       1.0000 0.18010  0.99290  0.28720  Biso   1.000  H
  H2       1.0000 0.81990  0.99290  0.21280  Biso   1.000  H
  H3       1.0000 0.68010  0.49290  0.28720  Biso   1.000  H
  H4       1.0000 0.31990  0.49290  0.21280  Biso   1.000  H
  H5       1.0000 0.81990  0.00710  0.71280  Biso   1.000  H
  H6       1.0000 0.18010  0.00710  0.78720  Biso   1.000  H
  H7       1.0000 0.31990  0.50710  0.71280  Biso   1.000  H
  H8       1.0000 0.68010  0.50710  0.78720  Biso   1.000  H
  C17      1.0000 0.11960  0.76140  0.39040  Biso   1.000  C
  C18      1.0000 0.88040  0.76140  0.10960  Biso   1.000  C
  C19      1.0000 0.61960  0.26140  0.39040  Biso   1.000  C
  C20      1.0000 0.38040  0.26140  0.10960  Biso   1.000  C
  C21      1.0000 0.88040  0.23860  0.60960  Biso   1.000  C
  C22      1.0000 0.11960  0.23860  0.89040  Biso   1.000  C
  C23      1.0000 0.38040  0.73860  0.60960  Biso   1.000  C
  C24      1.0000 0.61960  0.73860  0.89040  Biso   1.000  C
  H9       1.0000 0.10860  0.82860  0.42400  Biso   1.000  H
  H10      1.0000 0.89140  0.82860  0.07600  Biso   1.000  H
  H11      1.0000 0.60860  0.32860  0.42400  Biso   1.000  H
  H12      1.0000 0.39140  0.32860  0.07600  Biso   1.000  H
  H13      1.0000 0.89140  0.17140  0.57600  Biso   1.000  H
  H14      1.0000 0.10860  0.17140  0.92400  Biso   1.000  H
  H15      1.0000 0.39140  0.67140  0.57600  Biso   1.000  H
  H16      1.0000 0.60860  0.67140  0.92400  Biso   1.000  H
  C25      1.0000 0.10010  0.67360  0.26070  Biso   1.000  C
  C26      1.0000 0.89990  0.67360  0.23930  Biso   1.000  C
  C27      1.0000 0.60010  0.17360  0.26070  Biso   1.000  C
  C28      1.0000 0.39990  0.17360  0.23930  Biso   1.000  C
  C29      1.0000 0.89990  0.32640  0.73930  Biso   1.000  C
  C30      1.0000 0.10010  0.32640  0.76070  Biso   1.000  C
  C31      1.0000 0.39990  0.82640  0.73930  Biso   1.000  C
  C32      1.0000 0.60010  0.82640  0.76070  Biso   1.000  C
  H17      1.0000 0.07390  0.67850  0.20230  Biso   1.000  H
  H18      1.0000 0.92610  0.67850  0.29770  Biso   1.000  H
  H19      1.0000 0.57390  0.17850  0.20230  Biso   1.000  H
  H20      1.0000 0.42610  0.17850  0.29770  Biso   1.000  H
  H21      1.0000 0.92610  0.32150  0.79770  Biso   1.000  H
  H22      1.0000 0.07390  0.32150  0.70230  Biso   1.000  H
  H23      1.0000 0.42610  0.82150  0.79770  Biso   1.000  H
  H24      1.0000 0.57390  0.82150  0.70230  Biso   1.000  H
  C33      1.0000 0.11210  0.28220  0.38050  Biso   1.000  C
  C34      1.0000 0.88790  0.28220  0.11950  Biso   1.000  C
  C35      1.0000 0.61210  0.78220  0.38050  Biso   1.000  C
  C36      1.0000 0.38790  0.78220  0.11950  Biso   1.000  C
  C37      1.0000 0.88790  0.71780  0.61950  Biso   1.000  C
  C38      1.0000 0.11210  0.71780  0.88050  Biso   1.000  C
  C39      1.0000 0.38790  0.21780  0.61950  Biso   1.000  C
  C40      1.0000 0.61210  0.21780  0.88050  Biso   1.000  C
  H25      1.0000 0.09300  0.35550  0.40390  Biso   1.000  H
  H26      1.0000 0.90700  0.35550  0.09610  Biso   1.000  H
  H27      1.0000 0.59300  0.85550  0.40390  Biso   1.000  H
  H28      1.0000 0.40700  0.85550  0.09610  Biso   1.000  H
  H29      1.0000 0.90700  0.64450  0.59610  Biso   1.000  H
  H30      1.0000 0.09300  0.64450  0.90390  Biso   1.000  H
  H31      1.0000 0.40700  0.14450  0.59610  Biso   1.000  H
  H32      1.0000 0.59300  0.14450  0.90390  Biso   1.000  H
  C41      1.0000 0.06140  0.17390  0.34630  Biso   1.000  C
  C42      1.0000 0.93860  0.17390  0.15370  Biso   1.000  C
  C43      1.0000 0.56140  0.67390  0.34630  Biso   1.000  C
  C44      1.0000 0.43860  0.67390  0.15370  Biso   1.000  C
  C45      1.0000 0.93860  0.82610  0.65370  Biso   1.000  C
  C46      1.0000 0.06140  0.82610  0.84630  Biso   1.000  C
  C47      1.0000 0.43860  0.32610  0.65370  Biso   1.000  C
  C48      1.0000 0.56140  0.32610  0.84630  Biso   1.000  C
  H33      1.0000 0.00780  0.17370  0.34850  Biso   1.000  H
  H34      1.0000 0.99220  0.17370  0.15150  Biso   1.000  H
  H35      1.0000 0.50780  0.67370  0.34850  Biso   1.000  H
  H36      1.0000 0.49220  0.67370  0.15150  Biso   1.000  H
  H37      1.0000 0.99220  0.82630  0.65150  Biso   1.000  H
  H38      1.0000 0.00780  0.82630  0.84850  Biso   1.000  H
  H39      1.0000 0.49220  0.32630  0.65150  Biso   1.000  H
  H40      1.0000 0.50780  0.32630  0.84850  Biso   1.000  H
  C49      1.0000 0.21780  0.16950  0.34620  Biso   1.000  C
  C50      1.0000 0.78220  0.16950  0.15380  Biso   1.000  C
  C51      1.0000 0.71780  0.66950  0.34620  Biso   1.000  C
  C52      1.0000 0.28220  0.66950  0.15380  Biso   1.000  C
  C53      1.0000 0.78220  0.83050  0.65380  Biso   1.000  C
  C54      1.0000 0.21780  0.83050  0.84620  Biso   1.000  C
  C55      1.0000 0.28220  0.33050  0.65380  Biso   1.000  C
  C56      1.0000 0.71780  0.33050  0.84620  Biso   1.000  C
  H41      1.0000 0.27260  0.16390  0.34740  Biso   1.000  H
  H42      1.0000 0.72740  0.16390  0.15260  Biso   1.000  H
  H43      1.0000 0.77260  0.66390  0.34740  Biso   1.000  H
  H44      1.0000 0.22740  0.66390  0.15260  Biso   1.000  H
  H45      1.0000 0.72740  0.83610  0.65260  Biso   1.000  H
  H46      1.0000 0.27260  0.83610  0.84740  Biso   1.000  H
  H47      1.0000 0.22740  0.33610  0.65260  Biso   1.000  H
  H48      1.0000 0.77260  0.33610  0.84740  Biso   1.000  H
  C57      1.0000 0.19230  0.28210  0.37990  Biso   1.000  C
  C58      1.0000 0.80770  0.28210  0.12010  Biso   1.000  C
  C59      1.0000 0.69230  0.78210  0.37990  Biso   1.000  C
  C60      1.0000 0.30770  0.78210  0.12010  Biso   1.000  C
  C61      1.0000 0.80770  0.71790  0.62010  Biso   1.000  C
  C62      1.0000 0.19230  0.71790  0.87990  Biso   1.000  C
  C63      1.0000 0.30770  0.21790  0.62010  Biso   1.000  C
  C64      1.0000 0.69230  0.21790  0.87990  Biso   1.000  C
  C65      1.0000 0.15350  0.56810  0.29350  Biso   1.000  C
  C66      1.0000 0.84650  0.56810  0.20650  Biso   1.000  C
  C67      1.0000 0.65350  0.06810  0.29350  Biso   1.000  C
  C68      1.0000 0.34650  0.06810  0.20650  Biso   1.000  C
  C69      1.0000 0.84650  0.43190  0.70650  Biso   1.000  C
  C70      1.0000 0.15350  0.43190  0.79350  Biso   1.000  C
  C71      1.0000 0.34650  0.93190  0.70650  Biso   1.000  C
  C72      1.0000 0.65350  0.93190  0.79350  Biso   1.000  C
  H49      1.0000 0.16440  0.50350  0.25840  Biso   1.000  H
  H50      1.0000 0.83560  0.50350  0.24160  Biso   1.000  H
  H51      1.0000 0.66440  0.00350  0.25840  Biso   1.000  H
  H52      1.0000 0.33560  0.00350  0.24160  Biso   1.000  H
  H53      1.0000 0.83560  0.49650  0.74160  Biso   1.000  H
  H54      1.0000 0.16440  0.49650  0.75840  Biso   1.000  H
  H55      1.0000 0.33560  0.99650  0.74160  Biso   1.000  H
  H56      1.0000 0.66440  0.99650  0.75840  Biso   1.000  H
  C73      1.0000 0.17370  0.65490  0.42920  Biso   1.000  C
  C74      1.0000 0.82630  0.65490  0.07080  Biso   1.000  C
  C75      1.0000 0.67370  0.15490  0.42920  Biso   1.000  C
  C76      1.0000 0.32630  0.15490  0.07080  Biso   1.000  C
  C77      1.0000 0.82630  0.34510  0.57080  Biso   1.000  C
  C78      1.0000 0.17370  0.34510  0.92920  Biso   1.000  C
  C79      1.0000 0.32630  0.84510  0.57080  Biso   1.000  C
  C80      1.0000 0.67370  0.84510  0.92920  Biso   1.000  C
  H57      1.0000 0.19770  0.64960  0.48780  Biso   1.000  H
  H58      1.0000 0.80230  0.64960  0.01220  Biso   1.000  H
  H59      1.0000 0.69770  0.14960  0.48780  Biso   1.000  H
  H60      1.0000 0.30230  0.14960  0.01220  Biso   1.000  H
  H61      1.0000 0.80230  0.35040  0.51220  Biso   1.000  H
  H62      1.0000 0.19770  0.35040  0.98780  Biso   1.000  H
  H63      1.0000 0.30230  0.85040  0.51220  Biso   1.000  H
  H64      1.0000 0.69770  0.85040  0.98780  Biso   1.000  H
  N17      1.0000 0.86930  0.69570  0.88290  Biso   1.000  N
  N18      1.0000 0.13070  0.69570  0.61710  Biso   1.000  N
  N19      1.0000 0.36930  0.19570  0.88290  Biso   1.000  N
  N20      1.0000 0.63070  0.19570  0.61710  Biso   1.000  N
  N21      1.0000 0.13070  0.30430  0.11710  Biso   1.000  N
  N22      1.0000 0.86930  0.30430  0.38290  Biso   1.000  N
  N23      1.0000 0.63070  0.80430  0.11710  Biso   1.000  N
  N24      1.0000 0.36930  0.80430  0.38290  Biso   1.000  N
  O1       1.0000 0.88620  0.81180  0.91220  Biso   1.000  O
  O2       1.0000 0.11380  0.81180  0.58780  Biso   1.000  O
  O3       1.0000 0.38620  0.31180  0.91220  Biso   1.000  O
  O4       1.0000 0.61380  0.31180  0.58780  Biso   1.000  O
  O5       1.0000 0.11380  0.18820  0.08780  Biso   1.000  O
  O6       1.0000 0.88620  0.18820  0.41220  Biso   1.000  O
  O7       1.0000 0.61380  0.68820  0.08780  Biso   1.000  O
  O8       1.0000 0.38620  0.68820  0.41220  Biso   1.000  O
  O9       1.0000 0.80120  0.66020  0.84210  Biso   1.000  O
  O10      1.0000 0.19880  0.66020  0.65790  Biso   1.000  O
  O11      1.0000 0.30120  0.16020  0.84210  Biso   1.000  O
  O12      1.0000 0.69880  0.16020  0.65790  Biso   1.000  O
  O13      1.0000 0.19880  0.33980  0.15790  Biso   1.000  O
  O14      1.0000 0.80120  0.33980  0.34210  Biso   1.000  O
  O15      1.0000 0.69880  0.83980  0.15790  Biso   1.000  O
  O16      1.0000 0.30120  0.83980  0.34210  Biso   1.000  O
  O17      1.0000 0.92810  0.61250  0.89840  Biso   1.000  O
  O18      1.0000 0.07190  0.61250  0.60160  Biso   1.000  O
  O19      1.0000 0.42810  0.11250  0.89840  Biso   1.000  O
  O20      1.0000 0.57190  0.11250  0.60160  Biso   1.000  O
  O21      1.0000 0.07190  0.38750  0.10160  Biso   1.000  O
  O22      1.0000 0.92810  0.38750  0.39840  Biso   1.000  O
  O23      1.0000 0.57190  0.88750  0.10160  Biso   1.000  O
  O24      1.0000 0.42810  0.88750  0.39840  Biso   1.000  O
  O25      1.0000 0.05900  0.67380  0.05480  Biso   1.000  O
  O26      1.0000 0.94100  0.67380  0.44520  Biso   1.000  O
  O27      1.0000 0.55900  0.17380  0.05480  Biso   1.000  O
  O28      1.0000 0.44100  0.17380  0.44520  Biso   1.000  O
  O29      1.0000 0.94100  0.32620  0.94520  Biso   1.000  O
  O30      1.0000 0.05900  0.32620  0.55480  Biso   1.000  O
  O31      1.0000 0.44100  0.82620  0.94520  Biso   1.000  O
  O32      1.0000 0.55900  0.82620  0.55480  Biso   1.000  O
  H65      1.0000 0.08050  0.59730  0.07680  Biso   1.000  H
  H66      1.0000 0.91950  0.59730  0.42320  Biso   1.000  H
  H67      1.0000 0.58050  0.09730  0.07680  Biso   1.000  H
  H68      1.0000 0.41950  0.09730  0.42320  Biso   1.000  H
  H69      1.0000 0.91950  0.40270  0.92320  Biso   1.000  H
  H70      1.0000 0.08050  0.40270  0.57680  Biso   1.000  H
  H71      1.0000 0.41950  0.90270  0.92320  Biso   1.000  H
  H72      1.0000 0.58050  0.90270  0.57680  Biso   1.000  H
  H73      1.0000 0.01110  0.67300  0.01320  Biso   1.000  H
  H74      1.0000 0.98890  0.67300  0.48680  Biso   1.000  H
  H75      1.0000 0.51110  0.17300  0.01320  Biso   1.000  H
  H76      1.0000 0.48890  0.17300  0.48680  Biso   1.000  H
  H77      1.0000 0.98890  0.32700  0.98680  Biso   1.000  H
  H78      1.0000 0.01110  0.32700  0.51320  Biso   1.000  H
  H79      1.0000 0.48890  0.82700  0.98680  Biso   1.000  H
  H80      1.0000 0.51110  0.82700  0.51320  Biso   1.000  H
  O33      1.0000 0.05100  0.92740  0.13090  Biso   1.000  O
  O34      1.0000 0.94900  0.92740  0.36910  Biso   1.000  O
  O35      1.0000 0.55100  0.42740  0.13090  Biso   1.000  O
  O36      1.0000 0.44900  0.42740  0.36910  Biso   1.000  O
  O37      1.0000 0.94900  0.07260  0.86910  Biso   1.000  O
  O38      1.0000 0.05100  0.07260  0.63090  Biso   1.000  O
  O39      1.0000 0.44900  0.57260  0.86910  Biso   1.000  O
  O40      1.0000 0.55100  0.57260  0.63090  Biso   1.000  O
  H81      1.0000 0.07220  0.99570  0.11640  Biso   1.000  H
  H82      1.0000 0.92780  0.99570  0.38360  Biso   1.000  H
  H83      1.0000 0.57220  0.49570  0.11640  Biso   1.000  H
  H84      1.0000 0.42780  0.49570  0.38360  Biso   1.000  H
  H85      1.0000 0.92780  0.00430  0.88360  Biso   1.000  H
  H86      1.0000 0.07220  0.00430  0.61640  Biso   1.000  H
  H87      1.0000 0.42780  0.50430  0.88360  Biso   1.000  H
  H88      1.0000 0.57220  0.50430  0.61640  Biso   1.000  H
  H89      1.0000 0.05440  0.85570  0.10490  Biso   1.000  H
  H90      1.0000 0.94560  0.85570  0.39510  Biso   1.000  H
  H91      1.0000 0.55440  0.35570  0.10490  Biso   1.000  H
  H92      1.0000 0.44560  0.35570  0.39510  Biso   1.000  H
  H93      1.0000 0.94560  0.14430  0.89510  Biso   1.000  H
  H94      1.0000 0.05440  0.14430  0.60490  Biso   1.000  H
  H95      1.0000 0.44560  0.64430  0.89510  Biso   1.000  H
  H96      1.0000 0.55440  0.64430  0.60490  Biso   1.000  H
