data_image0
_cell_length_a       9.583
_cell_length_b       9.583
_cell_length_c       25.28
_cell_angle_alpha    90
_cell_angle_beta     90
_cell_angle_gamma    120

_symmetry_space_group_name_H-M    "P 1"
_symmetry_int_tables_number       1

loop_
  _symmetry_equiv_pos_as_xyz
  'x, y, z'

loop_
  _atom_site_label
  _atom_site_occupancy
  _atom_site_fract_x
  _atom_site_fract_y
  _atom_site_fract_z
  _atom_site_thermal_displace_type
  _atom_site_B_iso_or_equiv
  _atom_site_type_symbol
  Cu1      1.0000 0.76825  0.66666  0.49498  Biso   1.000  Cu
  Cu2      1.0000 0.33334  0.10159  0.82831  Biso   1.000  Cu
  Cu3      1.0000 0.89841  0.23175  0.16165  Biso   1.000  Cu
  S1       1.0000 0.07886  0.28855  0.36725  Biso   1.000  S
  S2       1.0000 0.71145  0.79031  0.70058  Biso   1.000  S
  S3       1.0000 0.20969  0.92114  0.03392  Biso   1.000  S
  S4       1.0000 0.45715  0.04506  0.62262  Biso   1.000  S
  S5       1.0000 0.95494  0.41209  0.95595  Biso   1.000  S
  S6       1.0000 0.58791  0.54285  0.28929  Biso   1.000  S
  O1       1.0000 0.65650  0.45260  0.56124  Biso   1.000  O
  O2       1.0000 0.54740  0.20390  0.89457  Biso   1.000  O
  O3       1.0000 0.79610  0.34350  0.22791  Biso   1.000  O
  H1       1.0000 0.71800  0.42800  0.57700  Biso   1.000  H
  H2       1.0000 0.57200  0.29000  0.91033  Biso   1.000  H
  H3       1.0000 0.71000  0.28200  0.24367  Biso   1.000  H
  H4       1.0000 0.56000  0.38300  0.56600  Biso   1.000  H
  H5       1.0000 0.61700  0.17700  0.89933  Biso   1.000  H
  H6       1.0000 0.82300  0.44000  0.23267  Biso   1.000  H
  O4       1.0000 0.87110  0.88130  0.42876  Biso   1.000  O
  O5       1.0000 0.11870  0.98980  0.76209  Biso   1.000  O
  O6       1.0000 0.01020  0.12890  0.09543  Biso   1.000  O
  H7       1.0000 0.83200  0.93800  0.41800  Biso   1.000  H
  H8       1.0000 0.06200  0.89400  0.75133  Biso   1.000  H
  H9       1.0000 0.10600  0.16800  0.08467  Biso   1.000  H
  H10      1.0000 0.95300  0.91100  0.41000  Biso   1.000  H
  H11      1.0000 0.08900  0.04200  0.74333  Biso   1.000  H
  H12      1.0000 0.95800  0.04700  0.07667  Biso   1.000  H
  O7       1.0000 0.31290  0.29570  0.61030  Biso   1.000  O
  O8       1.0000 0.70430  0.01720  0.94363  Biso   1.000  O
  O9       1.0000 0.98280  0.68710  0.27697  Biso   1.000  O
  O10      1.0000 0.08630  0.26210  0.59180  Biso   1.000  O
  O11      1.0000 0.73790  0.82420  0.92513  Biso   1.000  O
  O12      1.0000 0.17580  0.91370  0.25847  Biso   1.000  O
  O13      1.0000 0.25770  0.30470  0.53380  Biso   1.000  O
  O14      1.0000 0.69530  0.95300  0.86713  Biso   1.000  O
  O15      1.0000 0.04700  0.74230  0.20047  Biso   1.000  O
  O16      1.0000 0.68280  0.03730  0.37920  Biso   1.000  O
  O17      1.0000 0.96270  0.64550  0.71253  Biso   1.000  O
  O18      1.0000 0.35450  0.31720  0.04587  Biso   1.000  O
  O19      1.0000 0.61870  0.02890  0.45580  Biso   1.000  O
  O20      1.0000 0.97110  0.58980  0.78913  Biso   1.000  O
  O21      1.0000 0.41020  0.38130  0.12247  Biso   1.000  O
  O22      1.0000 0.49050  0.07070  0.39810  Biso   1.000  O
  O23      1.0000 0.92930  0.41980  0.73143  Biso   1.000  O
  O24      1.0000 0.58020  0.50950  0.06477  Biso   1.000  O
  O25      1.0000 0.91030  0.42410  0.61096  Biso   1.000  O
  O26      1.0000 0.57590  0.48620  0.94429  Biso   1.000  O
  O27      1.0000 0.51380  0.08970  0.27763  Biso   1.000  O
  H13      1.0000 0.90600  0.43500  0.64360  Biso   1.000  H
  H14      1.0000 0.56500  0.47100  0.97693  Biso   1.000  H
  H15      1.0000 0.52900  0.09400  0.31027  Biso   1.000  H
  H16      1.0000 0.95700  0.37000  0.60800  Biso   1.000  H
  H17      1.0000 0.63000  0.58700  0.94133  Biso   1.000  H
  H18      1.0000 0.41300  0.04300  0.27467  Biso   1.000  H
  O28      1.0000 0.15190  0.90960  0.37883  Biso   1.000  O
  O29      1.0000 0.09040  0.24230  0.71216  Biso   1.000  O
  O30      1.0000 0.75770  0.84810  0.04550  Biso   1.000  O
  H19      1.0000 0.25230  0.95800  0.38400  Biso   1.000  H
  H20      1.0000 0.04200  0.29430  0.71733  Biso   1.000  H
  H21      1.0000 0.70570  0.74770  0.05067  Biso   1.000  H
  H22      1.0000 0.12400  0.86600  0.34900  Biso   1.000  H
  H23      1.0000 0.13400  0.25800  0.68233  Biso   1.000  H
  H24      1.0000 0.74200  0.87600  0.01567  Biso   1.000  H
  N1       1.0000 0.56260  0.55130  0.45131  Biso   1.000  N
  N2       1.0000 0.44870  0.01130  0.78464  Biso   1.000  N
  N3       1.0000 0.98870  0.43740  0.11798  Biso   1.000  N
  N4       1.0000 0.85880  0.54790  0.45393  Biso   1.000  N
  N5       1.0000 0.45210  0.31090  0.78726  Biso   1.000  N
  N6       1.0000 0.68910  0.14120  0.12060  Biso   1.000  N
  N7       1.0000 0.67810  0.78200  0.53800  Biso   1.000  N
  N8       1.0000 0.21800  0.89610  0.87133  Biso   1.000  N
  N9       1.0000 0.10390  0.32190  0.20467  Biso   1.000  N
  N10      1.0000 0.97800  0.78570  0.53581  Biso   1.000  N
  N11      1.0000 0.21430  0.19230  0.86914  Biso   1.000  N
  N12      1.0000 0.80770  0.02200  0.20248  Biso   1.000  N
  N13      1.0000 0.21720  0.29000  0.57838  Biso   1.000  N
  N14      1.0000 0.71000  0.92720  0.91171  Biso   1.000  N
  N15      1.0000 0.07280  0.78280  0.24505  Biso   1.000  N
  N16      1.0000 0.59410  0.04340  0.41169  Biso   1.000  N
  N17      1.0000 0.95660  0.55070  0.74502  Biso   1.000  N
  N18      1.0000 0.44930  0.40590  0.07836  Biso   1.000  N
  C1       1.0000 0.49130  0.39310  0.44190  Biso   1.000  C
  C2       1.0000 0.60690  0.09820  0.77523  Biso   1.000  C
  C3       1.0000 0.90180  0.50870  0.10857  Biso   1.000  C
  H25      1.0000 0.54150  0.33510  0.45400  Biso   1.000  H
  H26      1.0000 0.66490  0.20640  0.78733  Biso   1.000  H
  H27      1.0000 0.79360  0.45850  0.12067  Biso   1.000  H
  C4       1.0000 0.34550  0.31050  0.41470  Biso   1.000  C
  C5       1.0000 0.68950  0.03500  0.74803  Biso   1.000  C
  C6       1.0000 0.96500  0.65450  0.08137  Biso   1.000  C
  H28      1.0000 0.29800  0.19840  0.40780  Biso   1.000  H
  H29      1.0000 0.80160  0.09960  0.74113  Biso   1.000  H
  H30      1.0000 0.90040  0.70200  0.07447  Biso   1.000  H
  C7       1.0000 0.27160  0.39490  0.39816  Biso   1.000  C
  C8       1.0000 0.60510  0.87670  0.73149  Biso   1.000  C
  C9       1.0000 0.12330  0.72840  0.06483  Biso   1.000  C
  C10      1.0000 0.34700  0.55860  0.40590  Biso   1.000  C
  C11      1.0000 0.44140  0.78840  0.73923  Biso   1.000  C
  C12      1.0000 0.21160  0.65300  0.07257  Biso   1.000  C
  H31      1.0000 0.30060  0.61960  0.39320  Biso   1.000  H
  H32      1.0000 0.38040  0.68100  0.72653  Biso   1.000  H
  H33      1.0000 0.31900  0.69940  0.05987  Biso   1.000  H
  C13      1.0000 0.49230  0.63220  0.43270  Biso   1.000  C
  C14      1.0000 0.36780  0.86010  0.76603  Biso   1.000  C
  C15      1.0000 0.13990  0.50770  0.09937  Biso   1.000  C
  H34      1.0000 0.54460  0.74540  0.43830  Biso   1.000  H
  H35      1.0000 0.25460  0.79920  0.77163  Biso   1.000  H
  H36      1.0000 0.20080  0.45540  0.10497  Biso   1.000  H
  C16      1.0000 0.92440  0.47280  0.48030  Biso   1.000  C
  C17      1.0000 0.52720  0.45160  0.81363  Biso   1.000  C
  C18      1.0000 0.54840  0.07560  0.14697  Biso   1.000  C
  H37      1.0000 0.92590  0.47680  0.51780  Biso   1.000  H
  H38      1.0000 0.52320  0.44910  0.85113  Biso   1.000  H
  H39      1.0000 0.55090  0.07410  0.18447  Biso   1.000  H
  C19      1.0000 0.98900  0.39100  0.45570  Biso   1.000  C
  C20      1.0000 0.60900  0.59800  0.78903  Biso   1.000  C
  C21      1.0000 0.40200  0.01100  0.12237  Biso   1.000  C
  H40      1.0000 0.03390  0.33910  0.47570  Biso   1.000  H
  H41      1.0000 0.66090  0.69480  0.80903  Biso   1.000  H
  H42      1.0000 0.30520  0.96610  0.14237  Biso   1.000  H
  C22      1.0000 0.98730  0.38550  0.40080  Biso   1.000  C
  C23      1.0000 0.61450  0.60180  0.73413  Biso   1.000  C
  C24      1.0000 0.39820  0.01270  0.06747  Biso   1.000  C
  C25      1.0000 0.91670  0.45740  0.37360  Biso   1.000  C
  C26      1.0000 0.54260  0.45930  0.70693  Biso   1.000  C
  C27      1.0000 0.54070  0.08330  0.04027  Biso   1.000  C
  H43      1.0000 0.91040  0.45180  0.33610  Biso   1.000  H
  H44      1.0000 0.54820  0.45860  0.66943  Biso   1.000  H
  H45      1.0000 0.54140  0.08960  0.00277  Biso   1.000  H
  C28      1.0000 0.85460  0.53810  0.40140  Biso   1.000  C
  C29      1.0000 0.46190  0.31650  0.73473  Biso   1.000  C
  C30      1.0000 0.68350  0.14540  0.06807  Biso   1.000  C
  H46      1.0000 0.80690  0.58870  0.38230  Biso   1.000  H
  H47      1.0000 0.41130  0.21820  0.71563  Biso   1.000  H
  H48      1.0000 0.78180  0.19310  0.04897  Biso   1.000  H
  C31      1.0000 0.76420  0.94070  0.54810  Biso   1.000  C
  C32      1.0000 0.05930  0.82350  0.88143  Biso   1.000  C
  C33      1.0000 0.17650  0.23580  0.21477  Biso   1.000  C
  H49      1.0000 0.87270  0.99910  0.53620  Biso   1.000  H
  H50      1.0000 0.00090  0.87360  0.86953  Biso   1.000  H
  H51      1.0000 0.12640  0.12730  0.20287  Biso   1.000  H
  C34      1.0000 0.70160  0.02280  0.57510  Biso   1.000  C
  C35      1.0000 0.97720  0.67880  0.90843  Biso   1.000  C
  C36      1.0000 0.32120  0.29840  0.24177  Biso   1.000  C
  H52      1.0000 0.76630  0.13490  0.58200  Biso   1.000  H
  H53      1.0000 0.86510  0.63140  0.91533  Biso   1.000  H
  H54      1.0000 0.36860  0.23370  0.24867  Biso   1.000  H
  C37      1.0000 0.54380  0.93910  0.59185  Biso   1.000  C
  C38      1.0000 0.06090  0.60470  0.92518  Biso   1.000  C
  C39      1.0000 0.39530  0.45620  0.25852  Biso   1.000  C
  C40      1.0000 0.45600  0.77430  0.58410  Biso   1.000  C
  C41      1.0000 0.22570  0.68170  0.91743  Biso   1.000  C
  C42      1.0000 0.31830  0.54400  0.25077  Biso   1.000  C
  H55      1.0000 0.34900  0.71310  0.59720  Biso   1.000  H
  H56      1.0000 0.28690  0.63590  0.93053  Biso   1.000  H
  H57      1.0000 0.36410  0.65100  0.26387  Biso   1.000  H
  C43      1.0000 0.52590  0.70060  0.55720  Biso   1.000  C
  C44      1.0000 0.29940  0.82530  0.89053  Biso   1.000  C
  C45      1.0000 0.17470  0.47410  0.22387  Biso   1.000  C
  H58      1.0000 0.46480  0.58750  0.55170  Biso   1.000  H
  H59      1.0000 0.41250  0.87730  0.88503  Biso   1.000  H
  H60      1.0000 0.12270  0.53520  0.21837  Biso   1.000  H
  C46      1.0000 0.98310  0.79450  0.58890  Biso   1.000  C
  C47      1.0000 0.20550  0.18860  0.92223  Biso   1.000  C
  C48      1.0000 0.81140  0.01690  0.25557  Biso   1.000  C
  H61      1.0000 0.88480  0.74270  0.60810  Biso   1.000  H
  H62      1.0000 0.25730  0.14210  0.94143  Biso   1.000  H
  H63      1.0000 0.85790  0.11520  0.27477  Biso   1.000  H
  C49      1.0000 0.12580  0.87580  0.61640  Biso   1.000  C
  C50      1.0000 0.12420  0.25000  0.94973  Biso   1.000  C
  C51      1.0000 0.75000  0.87420  0.28307  Biso   1.000  C
  H64      1.0000 0.12560  0.88190  0.65390  Biso   1.000  H
  H65      1.0000 0.11810  0.24370  0.98723  Biso   1.000  H
  H66      1.0000 0.75630  0.87440  0.32057  Biso   1.000  H
  C52      1.0000 0.26930  0.94850  0.58880  Biso   1.000  C
  C53      1.0000 0.05150  0.32080  0.92213  Biso   1.000  C
  C54      1.0000 0.67920  0.73070  0.25547  Biso   1.000  C
  C55      1.0000 0.26470  0.94190  0.53420  Biso   1.000  C
  C56      1.0000 0.05810  0.32280  0.86753  Biso   1.000  C
  C57      1.0000 0.67720  0.73530  0.20087  Biso   1.000  C
  H67      1.0000 0.36150  0.99330  0.51420  Biso   1.000  H
  H68      1.0000 0.00670  0.36820  0.84753  Biso   1.000  H
  H69      1.0000 0.63180  0.63850  0.18087  Biso   1.000  H
  C58      1.0000 0.11820  0.86010  0.50940  Biso   1.000  C
  C59      1.0000 0.13990  0.25810  0.84273  Biso   1.000  C
  C60      1.0000 0.74190  0.88180  0.17607  Biso   1.000  C
  H70      1.0000 0.11580  0.85580  0.47190  Biso   1.000  H
  H71      1.0000 0.14420  0.26000  0.80523  Biso   1.000  H
  H72      1.0000 0.74000  0.88420  0.13857  Biso   1.000  H
