data_image0
_cell_length_a       11.809
_cell_length_b       22.188
_cell_length_c       12.509
_cell_angle_alpha    90
_cell_angle_beta     112.777
_cell_angle_gamma    90

_symmetry_space_group_name_H-M    "P 1"
_symmetry_int_tables_number       1

loop_
  _symmetry_equiv_pos_as_xyz
  'x, y, z'

loop_
  _atom_site_label
  _atom_site_occupancy
  _atom_site_fract_x
  _atom_site_fract_y
  _atom_site_fract_z
  _atom_site_thermal_displace_type
  _atom_site_B_iso_or_equiv
  _atom_site_type_symbol
  Cu1      1.0000 0.26839  0.67092  0.49449  Biso   1.000  Cu
  Cu2      1.0000 0.73161  0.17092  0.50551  Biso   1.000  Cu
  Cu3      1.0000 0.20262  0.81654  0.03543  Biso   1.000  Cu
  Cu4      1.0000 0.79738  0.31654  0.96457  Biso   1.000  Cu
  Cu5      1.0000 0.33682  0.52001  0.95453  Biso   1.000  Cu
  Cu6      1.0000 0.66318  0.02001  0.04547  Biso   1.000  Cu
  S1       1.0000 0.43830  0.39418  0.43794  Biso   1.000  S
  S2       1.0000 0.56170  0.89418  0.56206  Biso   1.000  S
  S3       1.0000 0.73903  0.56994  0.48140  Biso   1.000  S
  S4       1.0000 0.26097  0.06994  0.51860  Biso   1.000  S
  S5       1.0000 0.07472  0.94316  0.55478  Biso   1.000  S
  S6       1.0000 0.92528  0.44316  0.44522  Biso   1.000  S
  S7       1.0000 0.79620  0.77481  0.50851  Biso   1.000  S
  S8       1.0000 0.20380  0.27481  0.49149  Biso   1.000  S
  S9       1.0000 0.38875  0.65630  0.82606  Biso   1.000  S
  S10      1.0000 0.61125  0.15630  0.17394  Biso   1.000  S
  S11      1.0000 0.15596  0.68044  0.17001  Biso   1.000  S
  S12      1.0000 0.84404  0.18044  0.82999  Biso   1.000  S
  S13      1.0000 0.21671  0.40285  0.05635  Biso   1.000  S
  S14      1.0000 0.78329  0.90285  0.94365  Biso   1.000  S
  O1       1.0000 0.36070  0.65820  0.70270  Biso   1.000  O
  O2       1.0000 0.63930  0.15820  0.29730  Biso   1.000  O
  O3       1.0000 0.27810  0.67500  0.84670  Biso   1.000  O
  O4       1.0000 0.72190  0.17500  0.15330  Biso   1.000  O
  O5       1.0000 0.42160  0.59510  0.87080  Biso   1.000  O
  O6       1.0000 0.57840  0.09510  0.12920  Biso   1.000  O
  O7       1.0000 0.49020  0.69720  0.89000  Biso   1.000  O
  O8       1.0000 0.50980  0.19720  0.11000  Biso   1.000  O
  O9       1.0000 0.18640  0.68780  0.29470  Biso   1.000  O
  O10      1.0000 0.81360  0.18780  0.70530  Biso   1.000  O
  O11      1.0000 0.06470  0.63190  0.12290  Biso   1.000  O
  O12      1.0000 0.93530  0.13190  0.87710  Biso   1.000  O
  O13      1.0000 0.26960  0.66390  0.15020  Biso   1.000  O
  O14      1.0000 0.73040  0.16390  0.84980  Biso   1.000  O
  O15      1.0000 0.10580  0.73760  0.10870  Biso   1.000  O
  O16      1.0000 0.89420  0.23760  0.89130  Biso   1.000  O
  O17      1.0000 0.24830  0.46440  0.04420  Biso   1.000  O
  O18      1.0000 0.75170  0.96440  0.95580  Biso   1.000  O
  O19      1.0000 0.32110  0.36980  0.13340  Biso   1.000  O
  O20      1.0000 0.67890  0.86980  0.86660  Biso   1.000  O
  O21      1.0000 0.16450  0.37430  0.94110  Biso   1.000  O
  O22      1.0000 0.83550  0.87430  0.05890  Biso   1.000  O
  O23      1.0000 0.11830  0.40230  0.10100  Biso   1.000  O
  O24      1.0000 0.88170  0.90230  0.89900  Biso   1.000  O
  O25      1.0000 0.31580  0.75150  0.02750  Biso   1.000  O
  O26      1.0000 0.68420  0.25150  0.97250  Biso   1.000  O
  O27      1.0000 0.10460  0.88440  0.05480  Biso   1.000  O
  O28      1.0000 0.89540  0.38440  0.94520  Biso   1.000  O
  O29      1.0000 0.44270  0.45610  0.91600  Biso   1.000  O
  O30      1.0000 0.55730  0.95610  0.08400  Biso   1.000  O
  O31      1.0000 0.22360  0.58860  0.96460  Biso   1.000  O
  O32      1.0000 0.77640  0.08860  0.03540  Biso   1.000  O
  O33      1.0000 0.29420  0.24340  0.11920  Biso   1.000  O
  O34      1.0000 0.70580  0.74340  0.88080  Biso   1.000  O
  O35      1.0000 0.26680  0.17080  0.10910  Biso   1.000  O
  O36      1.0000 0.73320  0.67080  0.89090  Biso   1.000  O
  O37      1.0000 0.16040  0.14430  0.03270  Biso   1.000  O
  O38      1.0000 0.83960  0.64430  0.96730  Biso   1.000  O
  O39      1.0000 0.21260  0.98350  0.17620  Biso   1.000  O
  O40      1.0000 0.78740  0.48350  0.82380  Biso   1.000  O
  O41      1.0000 0.69950  0.86160  0.19230  Biso   1.000  O
  O42      1.0000 0.30050  0.36160  0.80770  Biso   1.000  O
  O43      1.0000 0.65520  0.73520  0.14290  Biso   1.000  O
  O44      1.0000 0.34480  0.23520  0.85710  Biso   1.000  O
  O45      1.0000 0.78480  0.49270  0.13960  Biso   1.000  O
  O46      1.0000 0.21520  0.99270  0.86040  Biso   1.000  O
  O47      1.0000 0.32740  0.88840  0.96360  Biso   1.000  O
  O48      1.0000 0.67260  0.38840  0.03640  Biso   1.000  O
  O49      1.0000 0.53850  0.32670  0.13180  Biso   1.000  O
  O50      1.0000 0.46150  0.82670  0.86820  Biso   1.000  O
  O51      1.0000 0.33700  0.05490  0.06680  Biso   1.000  O
  O52      1.0000 0.66300  0.55490  0.93320  Biso   1.000  O
  O53      1.0000 0.06780  0.09100  0.15900  Biso   1.000  O
  O54      1.0000 0.93220  0.59100  0.84100  Biso   1.000  O
  O55      1.0000 0.02290  0.51050  0.15530  Biso   1.000  O
  O56      1.0000 0.97710  0.01050  0.84470  Biso   1.000  O
  O57      1.0000 0.09520  0.26730  0.83490  Biso   1.000  O
  O58      1.0000 0.90480  0.76730  0.16510  Biso   1.000  O
  O59      1.0000 0.14860  0.24890  0.92800  Biso   1.000  O
  O60      1.0000 0.85140  0.74890  0.07200  Biso   1.000  O
  N1       1.0000 0.33050  0.58720  0.47480  Biso   1.000  N
  N2       1.0000 0.66950  0.08720  0.52520  Biso   1.000  N
  N3       1.0000 0.68040  0.33290  0.80180  Biso   1.000  N
  N4       1.0000 0.31960  0.83290  0.19820  Biso   1.000  N
  N5       1.0000 0.10290  0.63590  0.48360  Biso   1.000  N
  N6       1.0000 0.89710  0.13590  0.51640  Biso   1.000  N
  N7       1.0000 0.46850  0.53600  0.10960  Biso   1.000  N
  N8       1.0000 0.53150  0.03600  0.89040  Biso   1.000  N
  N9       1.0000 0.20310  0.75360  0.51650  Biso   1.000  N
  N10      1.0000 0.79690  0.25360  0.48350  Biso   1.000  N
  N11      1.0000 0.79300  0.00210  0.20230  Biso   1.000  N
  N12      1.0000 0.20700  0.50210  0.79770  Biso   1.000  N
  N13      1.0000 0.43290  0.70390  0.50530  Biso   1.000  N
  N14      1.0000 0.56710  0.20390  0.49470  Biso   1.000  N
  N15      1.0000 0.07600  0.80180  0.87550  Biso   1.000  N
  N16      1.0000 0.92400  0.30180  0.12450  Biso   1.000  N
  C1       1.0000 0.42420  0.56210  0.56240  Biso   1.000  C
  C2       1.0000 0.57580  0.06210  0.43760  Biso   1.000  C
  H1       1.0000 0.46490  0.58460  0.63130  Biso   1.000  H
  H2       1.0000 0.53510  0.08460  0.36870  Biso   1.000  H
  C3       1.0000 0.46330  0.50320  0.55430  Biso   1.000  C
  C4       1.0000 0.53670  0.00320  0.44570  Biso   1.000  C
  H3       1.0000 0.53200  0.48680  0.61600  Biso   1.000  H
  H4       1.0000 0.46800  0.98680  0.38400  Biso   1.000  H
  C5       1.0000 0.40170  0.46920  0.45640  Biso   1.000  C
  C6       1.0000 0.59830  0.96920  0.54360  Biso   1.000  C
  C7       1.0000 0.30710  0.49580  0.36800  Biso   1.000  C
  C8       1.0000 0.69290  0.99580  0.63200  Biso   1.000  C
  H5       1.0000 0.26330  0.47350  0.29950  Biso   1.000  H
  H6       1.0000 0.73670  0.97350  0.70050  Biso   1.000  H
  C9       1.0000 0.27540  0.55290  0.37680  Biso   1.000  C
  C10      1.0000 0.72460  0.05290  0.62320  Biso   1.000  C
  H7       1.0000 0.21170  0.57060  0.31220  Biso   1.000  H
  H8       1.0000 0.78830  0.07060  0.68780  Biso   1.000  H
  C11      1.0000 0.72410  0.33610  0.71850  Biso   1.000  C
  C12      1.0000 0.27590  0.83610  0.28150  Biso   1.000  C
  H9       1.0000 0.80680  0.32460  0.73530  Biso   1.000  H
  H10      1.0000 0.19320  0.82460  0.26470  Biso   1.000  H
  C13      1.0000 0.65190  0.35570  0.60790  Biso   1.000  C
  C14      1.0000 0.34810  0.85570  0.39210  Biso   1.000  C
  H11      1.0000 0.68510  0.35790  0.55000  Biso   1.000  H
  H12      1.0000 0.31490  0.85790  0.45000  Biso   1.000  H
  C15      1.0000 0.53270  0.37190  0.58250  Biso   1.000  C
  C16      1.0000 0.46730  0.87190  0.41750  Biso   1.000  C
  C17      1.0000 0.48590  0.36810  0.66800  Biso   1.000  C
  C18      1.0000 0.51410  0.86810  0.33200  Biso   1.000  C
  H13      1.0000 0.40320  0.37890  0.65270  Biso   1.000  H
  H14      1.0000 0.59680  0.87890  0.34730  Biso   1.000  H
  C19      1.0000 0.56350  0.34830  0.77640  Biso   1.000  C
  C20      1.0000 0.43650  0.84830  0.22360  Biso   1.000  C
  H15      1.0000 0.53220  0.34550  0.83570  Biso   1.000  H
  H16      1.0000 0.46780  0.84550  0.16430  Biso   1.000  H
  C21      1.0000 0.01690  0.61740  0.38470  Biso   1.000  C
  C22      1.0000 0.98310  0.11740  0.61530  Biso   1.000  C
  H17      1.0000 0.03430  0.61940  0.31670  Biso   1.000  H
  H18      1.0000 0.96570  0.11940  0.68330  Biso   1.000  H
  C23      1.0000 0.90600  0.59600  0.37420  Biso   1.000  C
  C24      1.0000 0.09400  0.09600  0.62580  Biso   1.000  C
  H19      1.0000 0.84860  0.58160  0.30210  Biso   1.000  H
  H20      1.0000 0.15140  0.08160  0.69790  Biso   1.000  H
  C25      1.0000 0.87820  0.59580  0.47630  Biso   1.000  C
  C26      1.0000 0.12180  0.09580  0.52370  Biso   1.000  C
  C27      1.0000 0.96860  0.61540  0.57830  Biso   1.000  C
  C28      1.0000 0.03140  0.11540  0.42170  Biso   1.000  C
  H21      1.0000 0.95370  0.61520  0.64760  Biso   1.000  H
  H22      1.0000 0.04630  0.11520  0.35240  Biso   1.000  H
  C29      1.0000 0.07900  0.63510  0.58110  Biso   1.000  C
  C30      1.0000 0.92100  0.13510  0.41890  Biso   1.000  C
  H23      1.0000 0.14000  0.64840  0.65230  Biso   1.000  H
  H24      1.0000 0.86000  0.14840  0.34770  Biso   1.000  H
  C31      1.0000 0.50310  0.49290  0.18970  Biso   1.000  C
  C32      1.0000 0.49690  0.99290  0.81030  Biso   1.000  C
  H25      1.0000 0.46830  0.45380  0.16930  Biso   1.000  H
  H26      1.0000 0.53170  0.95380  0.83070  Biso   1.000  H
  C33      1.0000 0.58930  0.50260  0.30350  Biso   1.000  C
  C34      1.0000 0.41070  0.00260  0.69650  Biso   1.000  C
  H27      1.0000 0.60990  0.47060  0.35820  Biso   1.000  H
  H28      1.0000 0.39010  0.97060  0.64180  Biso   1.000  H
  C35      1.0000 0.64240  0.55670  0.33510  Biso   1.000  C
  C36      1.0000 0.35760  0.05670  0.66490  Biso   1.000  C
  C37      1.0000 0.60930  0.60220  0.24850  Biso   1.000  C
  C38      1.0000 0.39070  0.10220  0.75150  Biso   1.000  C
  H29      1.0000 0.64600  0.64100  0.26590  Biso   1.000  H
  H30      1.0000 0.35400  0.14100  0.73410  Biso   1.000  H
  C39      1.0000 0.52570  0.59000  0.14170  Biso   1.000  C
  C40      1.0000 0.47430  0.09000  0.85830  Biso   1.000  C
  H31      1.0000 0.50540  0.62120  0.08530  Biso   1.000  H
  H32      1.0000 0.49460  0.12120  0.91470  Biso   1.000  H
  C41      1.0000 0.10420  0.77680  0.43300  Biso   1.000  C
  C42      1.0000 0.89580  0.27680  0.56700  Biso   1.000  C
  H33      1.0000 0.06360  0.75290  0.36600  Biso   1.000  H
  H34      1.0000 0.93640  0.25290  0.63400  Biso   1.000  H
  C43      1.0000 0.05670  0.83300  0.43710  Biso   1.000  C
  C44      1.0000 0.94330  0.33300  0.56290  Biso   1.000  C
  H35      1.0000 0.98430  0.84670  0.37580  Biso   1.000  H
  H36      1.0000 0.01570  0.34670  0.62420  Biso   1.000  H
  C45      1.0000 0.11680  0.86920  0.53250  Biso   1.000  C
  C46      1.0000 0.88320  0.36920  0.46750  Biso   1.000  C
  C47      1.0000 0.21750  0.84420  0.62290  Biso   1.000  C
  C48      1.0000 0.78250  0.34420  0.37710  Biso   1.000  C
  H37      1.0000 0.25860  0.86650  0.69190  Biso   1.000  H
  H38      1.0000 0.74140  0.36650  0.30810  Biso   1.000  H
  C49      1.0000 0.25620  0.78790  0.61150  Biso   1.000  C
  C50      1.0000 0.74380  0.28790  0.38850  Biso   1.000  C
  H39      1.0000 0.32450  0.77180  0.67410  Biso   1.000  H
  H40      1.0000 0.67550  0.27180  0.32590  Biso   1.000  H
  C51      1.0000 0.76470  0.00060  0.29860  Biso   1.000  C
  C52      1.0000 0.23530  0.50060  0.70140  Biso   1.000  C
  H41      1.0000 0.68440  0.01180  0.29140  Biso   1.000  H
  H42      1.0000 0.31560  0.51180  0.70860  Biso   1.000  H
  C53      1.0000 0.84960  0.98320  0.40650  Biso   1.000  C
  C54      1.0000 0.15040  0.48320  0.59350  Biso   1.000  C
  H43      1.0000 0.82920  0.98440  0.47280  Biso   1.000  H
  H44      1.0000 0.17080  0.48440  0.52720  Biso   1.000  H
  C55      1.0000 0.96500  0.96390  0.41570  Biso   1.000  C
  C56      1.0000 0.03500  0.46390  0.58430  Biso   1.000  C
  C57      1.0000 0.99430  0.96710  0.31760  Biso   1.000  C
  C58      1.0000 0.00570  0.46710  0.68240  Biso   1.000  C
  H45      1.0000 0.07400  0.95640  0.32220  Biso   1.000  H
  H46      1.0000 0.92600  0.45640  0.67780  Biso   1.000  H
  C59      1.0000 0.90540  0.98610  0.21390  Biso   1.000  C
  C60      1.0000 0.09460  0.48610  0.78610  Biso   1.000  C
  H47      1.0000 0.92580  0.98790  0.14760  Biso   1.000  H
  H48      1.0000 0.07420  0.48790  0.85240  Biso   1.000  H
  C61      1.0000 0.52110  0.72580  0.60510  Biso   1.000  C
  C62      1.0000 0.47890  0.22580  0.39490  Biso   1.000  C
  H49      1.0000 0.50360  0.72610  0.67310  Biso   1.000  H
  H50      1.0000 0.49640  0.22610  0.32690  Biso   1.000  H
  C63      1.0000 0.63320  0.74720  0.61350  Biso   1.000  C
  C64      1.0000 0.36680  0.24720  0.38650  Biso   1.000  C
  H51      1.0000 0.69040  0.76250  0.68490  Biso   1.000  H
  H52      1.0000 0.30960  0.26250  0.31510  Biso   1.000  H
  C65      1.0000 0.66070  0.74610  0.51850  Biso   1.000  C
  C66      1.0000 0.33930  0.24610  0.48150  Biso   1.000  C
  C67      1.0000 0.57240  0.72510  0.41210  Biso   1.000  C
  C68      1.0000 0.42760  0.22510  0.58790  Biso   1.000  C
  H53      1.0000 0.58870  0.72560  0.34340  Biso   1.000  H
  H54      1.0000 0.41130  0.22560  0.65660  Biso   1.000  H
  C69      1.0000 0.46390  0.70430  0.41040  Biso   1.000  C
  C70      1.0000 0.53610  0.20430  0.58960  Biso   1.000  C
  H55      1.0000 0.40580  0.68900  0.33940  Biso   1.000  H
  H56      1.0000 0.59420  0.18900  0.66060  Biso   1.000  H
  C71      1.0000 0.02070  0.74810  0.84470  Biso   1.000  C
  C72      1.0000 0.97930  0.24810  0.15530  Biso   1.000  C
  H57      1.0000 0.04260  0.71610  0.89950  Biso   1.000  H
  H58      1.0000 0.95740  0.21610  0.10050  Biso   1.000  H
  C73      1.0000 0.93080  0.73830  0.73270  Biso   1.000  C
  C74      1.0000 0.06920  0.23830  0.26730  Biso   1.000  C
  H59      1.0000 0.89520  0.69950  0.71060  Biso   1.000  H
  H60      1.0000 0.10480  0.19950  0.28940  Biso   1.000  H
  C75      1.0000 0.89600  0.78510  0.65700  Biso   1.000  C
  C76      1.0000 0.10400  0.28510  0.34300  Biso   1.000  C
  C77      1.0000 0.94950  0.84090  0.69130  Biso   1.000  C
  C78      1.0000 0.05050  0.34090  0.30870  Biso   1.000  C
  H61      1.0000 0.92340  0.87440  0.64010  Biso   1.000  H
  H62      1.0000 0.07660  0.37440  0.35990  Biso   1.000  H
  C79      1.0000 0.03880  0.84770  0.79760  Biso   1.000  C
  C80      1.0000 0.96120  0.34770  0.20240  Biso   1.000  C
  H63      1.0000 0.07720  0.88600  0.81880  Biso   1.000  H
  H64      1.0000 0.92280  0.38600  0.18120  Biso   1.000  H
