data_image0
_cell_length_a       18.144
_cell_length_b       10.945
_cell_length_c       16.6741
_cell_angle_alpha    90
_cell_angle_beta     90
_cell_angle_gamma    90

_symmetry_space_group_name_H-M    "P 1"
_symmetry_int_tables_number       1

loop_
  _symmetry_equiv_pos_as_xyz
  'x, y, z'

loop_
  _atom_site_label
  _atom_site_occupancy
  _atom_site_fract_x
  _atom_site_fract_y
  _atom_site_fract_z
  _atom_site_thermal_displace_type
  _atom_site_B_iso_or_equiv
  _atom_site_type_symbol
  Cu1      1.0000 0.37439  0.25564  0.37423  Biso   1.000  Cu
  Cu2      1.0000 0.12561  0.25564  0.87423  Biso   1.000  Cu
  Cu3      1.0000 0.87439  0.74436  0.37423  Biso   1.000  Cu
  Cu4      1.0000 0.62561  0.74436  0.87423  Biso   1.000  Cu
  Cl1      1.0000 0.73829  0.24594  0.47429  Biso   1.000  Cl
  Cl2      1.0000 0.76171  0.24594  0.97429  Biso   1.000  Cl
  Cl3      1.0000 0.23829  0.75406  0.47429  Biso   1.000  Cl
  Cl4      1.0000 0.26171  0.75406  0.97429  Biso   1.000  Cl
  Cl5      1.0000 0.42760  0.32854  0.72569  Biso   1.000  Cl
  Cl6      1.0000 0.07240  0.32854  0.22569  Biso   1.000  Cl
  Cl7      1.0000 0.92760  0.67146  0.72569  Biso   1.000  Cl
  Cl8      1.0000 0.57240  0.67146  0.22569  Biso   1.000  Cl
  S1       1.0000 0.58187  0.62196  0.59098  Biso   1.000  S
  S2       1.0000 0.91813  0.62196  0.09098  Biso   1.000  S
  S3       1.0000 0.08187  0.37804  0.59098  Biso   1.000  S
  S4       1.0000 0.41813  0.37804  0.09098  Biso   1.000  S
  S5       1.0000 0.66330  0.10397  0.15793  Biso   1.000  S
  S6       1.0000 0.83670  0.10397  0.65793  Biso   1.000  S
  S7       1.0000 0.16330  0.89603  0.15793  Biso   1.000  S
  S8       1.0000 0.33670  0.89603  0.65793  Biso   1.000  S
  O1       1.0000 0.40220  0.09040  0.46610  Biso   1.000  O
  O2       1.0000 0.09780  0.09040  0.96610  Biso   1.000  O
  O3       1.0000 0.90220  0.90960  0.46610  Biso   1.000  O
  O4       1.0000 0.59780  0.90960  0.96610  Biso   1.000  O
  O5       1.0000 0.34190  0.40880  0.28380  Biso   1.000  O
  O6       1.0000 0.15810  0.40880  0.78380  Biso   1.000  O
  O7       1.0000 0.84190  0.59120  0.28380  Biso   1.000  O
  O8       1.0000 0.65810  0.59120  0.78380  Biso   1.000  O
  O9       1.0000 0.80930  0.23970  0.44420  Biso   1.000  O
  O10      1.0000 0.69070  0.23970  0.94420  Biso   1.000  O
  O11      1.0000 0.30930  0.76030  0.44420  Biso   1.000  O
  O12      1.0000 0.19070  0.76030  0.94420  Biso   1.000  O
  O13      1.0000 0.72360  0.13000  0.50620  Biso   1.000  O
  O14      1.0000 0.77640  0.13000  0.00620  Biso   1.000  O
  O15      1.0000 0.22360  0.87000  0.50620  Biso   1.000  O
  O16      1.0000 0.27640  0.87000  0.00620  Biso   1.000  O
  O17      1.0000 0.68420  0.26500  0.41330  Biso   1.000  O
  O18      1.0000 0.81580  0.26500  0.91330  Biso   1.000  O
  O19      1.0000 0.18420  0.73500  0.41330  Biso   1.000  O
  O20      1.0000 0.31580  0.73500  0.91330  Biso   1.000  O
  O21      1.0000 0.73310  0.33680  0.53330  Biso   1.000  O
  O22      1.0000 0.76690  0.33680  0.03330  Biso   1.000  O
  O23      1.0000 0.23310  0.66320  0.53330  Biso   1.000  O
  O24      1.0000 0.26690  0.66320  0.03330  Biso   1.000  O
  O25      1.0000 0.35410  0.28990  0.71970  Biso   1.000  O
  O26      1.0000 0.14590  0.28990  0.21970  Biso   1.000  O
  O27      1.0000 0.85410  0.71010  0.71970  Biso   1.000  O
  O28      1.0000 0.64590  0.71010  0.21970  Biso   1.000  O
  O29      1.0000 0.45840  0.26170  0.78990  Biso   1.000  O
  O30      1.0000 0.04160  0.26170  0.28990  Biso   1.000  O
  O31      1.0000 0.95840  0.73830  0.78990  Biso   1.000  O
  O32      1.0000 0.54160  0.73830  0.28990  Biso   1.000  O
  O33      1.0000 0.43350  0.44560  0.75670  Biso   1.000  O
  O34      1.0000 0.06650  0.44560  0.25670  Biso   1.000  O
  O35      1.0000 0.93350  0.55440  0.75670  Biso   1.000  O
  O36      1.0000 0.56650  0.55440  0.25670  Biso   1.000  O
  O37      1.0000 0.47170  0.29450  0.66120  Biso   1.000  O
  O38      1.0000 0.02830  0.29450  0.16120  Biso   1.000  O
  O39      1.0000 0.97170  0.70550  0.66120  Biso   1.000  O
  O40      1.0000 0.52830  0.70550  0.16120  Biso   1.000  O
  N1       1.0000 0.43890  0.37560  0.43700  Biso   1.000  N
  N2       1.0000 0.06110  0.37560  0.93700  Biso   1.000  N
  N3       1.0000 0.93890  0.62440  0.43700  Biso   1.000  N
  N4       1.0000 0.56110  0.62440  0.93700  Biso   1.000  N
  N5       1.0000 0.78570  0.69960  0.44130  Biso   1.000  N
  N6       1.0000 0.71430  0.69960  0.94130  Biso   1.000  N
  N7       1.0000 0.28570  0.30040  0.44130  Biso   1.000  N
  N8       1.0000 0.21430  0.30040  0.94130  Biso   1.000  N
  N9       1.0000 0.46230  0.20610  0.30710  Biso   1.000  N
  N10      1.0000 0.03770  0.20610  0.80710  Biso   1.000  N
  N11      1.0000 0.96230  0.79390  0.30710  Biso   1.000  N
  N12      1.0000 0.53770  0.79390  0.80710  Biso   1.000  N
  N13      1.0000 0.81200  0.86370  0.31110  Biso   1.000  N
  N14      1.0000 0.68800  0.86370  0.81110  Biso   1.000  N
  N15      1.0000 0.31200  0.13630  0.31110  Biso   1.000  N
  N16      1.0000 0.18800  0.13630  0.81110  Biso   1.000  N
  N17      1.0000 0.50060  0.99910  0.52410  Biso   1.000  N
  N18      1.0000 0.99940  0.99910  0.02410  Biso   1.000  N
  N19      1.0000 0.00060  0.00090  0.52410  Biso   1.000  N
  N20      1.0000 0.49940  0.00090  0.02410  Biso   1.000  N
  N21      1.0000 0.31840  0.60370  0.24680  Biso   1.000  N
  N22      1.0000 0.18160  0.60370  0.74680  Biso   1.000  N
  N23      1.0000 0.81840  0.39630  0.24680  Biso   1.000  N
  N24      1.0000 0.68160  0.39630  0.74680  Biso   1.000  N
  C1       1.0000 0.41410  0.48190  0.46380  Biso   1.000  C
  C2       1.0000 0.08590  0.48190  0.96380  Biso   1.000  C
  C3       1.0000 0.91410  0.51810  0.46380  Biso   1.000  C
  C4       1.0000 0.58590  0.51810  0.96380  Biso   1.000  C
  H1       1.0000 0.36490  0.50440  0.45100  Biso   1.000  H
  H2       1.0000 0.13510  0.50440  0.95100  Biso   1.000  H
  H3       1.0000 0.86490  0.49560  0.45100  Biso   1.000  H
  H4       1.0000 0.63510  0.49560  0.95100  Biso   1.000  H
  C5       1.0000 0.45550  0.56190  0.50940  Biso   1.000  C
  C6       1.0000 0.04450  0.56190  0.00940  Biso   1.000  C
  C7       1.0000 0.95550  0.43810  0.50940  Biso   1.000  C
  C8       1.0000 0.54450  0.43810  0.00940  Biso   1.000  C
  H5       1.0000 0.43540  0.63740  0.52700  Biso   1.000  H
  H6       1.0000 0.06460  0.63740  0.02700  Biso   1.000  H
  H7       1.0000 0.93540  0.36260  0.52700  Biso   1.000  H
  H8       1.0000 0.56460  0.36260  0.02700  Biso   1.000  H
  C9       1.0000 0.52670  0.52940  0.52860  Biso   1.000  C
  C10      1.0000 0.97330  0.52940  0.02860  Biso   1.000  C
  C11      1.0000 0.02670  0.47060  0.52860  Biso   1.000  C
  C12      1.0000 0.47330  0.47060  0.02860  Biso   1.000  C
  C13      1.0000 0.55330  0.41860  0.50240  Biso   1.000  C
  C14      1.0000 0.94670  0.41860  0.00240  Biso   1.000  C
  C15      1.0000 0.05330  0.58140  0.50240  Biso   1.000  C
  C16      1.0000 0.44670  0.58140  0.00240  Biso   1.000  C
  H9       1.0000 0.60200  0.39400  0.51590  Biso   1.000  H
  H10      1.0000 0.89800  0.39400  0.01590  Biso   1.000  H
  H11      1.0000 0.10200  0.60600  0.51590  Biso   1.000  H
  H12      1.0000 0.39800  0.60600  0.01590  Biso   1.000  H
  C17      1.0000 0.50930  0.34360  0.45680  Biso   1.000  C
  C18      1.0000 0.99070  0.34360  0.95680  Biso   1.000  C
  C19      1.0000 0.00930  0.65640  0.45680  Biso   1.000  C
  C20      1.0000 0.49070  0.65640  0.95680  Biso   1.000  C
  H13      1.0000 0.52830  0.26760  0.43870  Biso   1.000  H
  H14      1.0000 0.97170  0.26760  0.93870  Biso   1.000  H
  H15      1.0000 0.02830  0.73240  0.43870  Biso   1.000  H
  H16      1.0000 0.47170  0.73240  0.93870  Biso   1.000  H
  C21      1.0000 0.78760  0.69610  0.52240  Biso   1.000  C
  C22      1.0000 0.71240  0.69610  0.02240  Biso   1.000  C
  C23      1.0000 0.28760  0.30390  0.52240  Biso   1.000  C
  C24      1.0000 0.21240  0.30390  0.02240  Biso   1.000  C
  H17      1.0000 0.83280  0.71350  0.54880  Biso   1.000  H
  H18      1.0000 0.66720  0.71350  0.04880  Biso   1.000  H
  H19      1.0000 0.33280  0.28650  0.54880  Biso   1.000  H
  H20      1.0000 0.16720  0.28650  0.04880  Biso   1.000  H
  C25      1.0000 0.72690  0.66830  0.56780  Biso   1.000  C
  C26      1.0000 0.77310  0.66830  0.06780  Biso   1.000  C
  C27      1.0000 0.22690  0.33170  0.56780  Biso   1.000  C
  C28      1.0000 0.27310  0.33170  0.06780  Biso   1.000  C
  H21      1.0000 0.73050  0.66620  0.62470  Biso   1.000  H
  H22      1.0000 0.76950  0.66620  0.12470  Biso   1.000  H
  H23      1.0000 0.23050  0.33380  0.62470  Biso   1.000  H
  H24      1.0000 0.26950  0.33380  0.12470  Biso   1.000  H
  C29      1.0000 0.66000  0.64340  0.53050  Biso   1.000  C
  C30      1.0000 0.84000  0.64340  0.03050  Biso   1.000  C
  C31      1.0000 0.16000  0.35660  0.53050  Biso   1.000  C
  C32      1.0000 0.34000  0.35660  0.03050  Biso   1.000  C
  C33      1.0000 0.65790  0.64520  0.44650  Biso   1.000  C
  C34      1.0000 0.84210  0.64520  0.94650  Biso   1.000  C
  C35      1.0000 0.15790  0.35480  0.44650  Biso   1.000  C
  C36      1.0000 0.34210  0.35480  0.94650  Biso   1.000  C
  H25      1.0000 0.61340  0.62870  0.41840  Biso   1.000  H
  H26      1.0000 0.88660  0.62870  0.91840  Biso   1.000  H
  H27      1.0000 0.11340  0.37130  0.41840  Biso   1.000  H
  H28      1.0000 0.38660  0.37130  0.91840  Biso   1.000  H
  C37      1.0000 0.72180  0.67130  0.40560  Biso   1.000  C
  C38      1.0000 0.77820  0.67130  0.90560  Biso   1.000  C
  C39      1.0000 0.22180  0.32870  0.40560  Biso   1.000  C
  C40      1.0000 0.27820  0.32870  0.90560  Biso   1.000  C
  H29      1.0000 0.72050  0.66930  0.34870  Biso   1.000  H
  H30      1.0000 0.77950  0.66930  0.84870  Biso   1.000  H
  H31      1.0000 0.22050  0.33070  0.34870  Biso   1.000  H
  H32      1.0000 0.27950  0.33070  0.84870  Biso   1.000  H
  C41      1.0000 0.50360  0.29140  0.26810  Biso   1.000  C
  C42      1.0000 0.99640  0.29140  0.76810  Biso   1.000  C
  C43      1.0000 0.00360  0.70860  0.26810  Biso   1.000  C
  C44      1.0000 0.49640  0.70860  0.76810  Biso   1.000  C
  H33      1.0000 0.48980  0.37500  0.27160  Biso   1.000  H
  H34      1.0000 0.01020  0.37500  0.77160  Biso   1.000  H
  H35      1.0000 0.98980  0.62500  0.27160  Biso   1.000  H
  H36      1.0000 0.51020  0.62500  0.77160  Biso   1.000  H
  C45      1.0000 0.56470  0.25980  0.22350  Biso   1.000  C
  C46      1.0000 0.93530  0.25980  0.72350  Biso   1.000  C
  C47      1.0000 0.06470  0.74020  0.22350  Biso   1.000  C
  C48      1.0000 0.43530  0.74020  0.72350  Biso   1.000  C
  H37      1.0000 0.59120  0.32160  0.19570  Biso   1.000  H
  H38      1.0000 0.90880  0.32160  0.69570  Biso   1.000  H
  H39      1.0000 0.09120  0.67840  0.19570  Biso   1.000  H
  H40      1.0000 0.40880  0.67840  0.69570  Biso   1.000  H
  C49      1.0000 0.58780  0.14250  0.21870  Biso   1.000  C
  C50      1.0000 0.91220  0.14250  0.71870  Biso   1.000  C
  C51      1.0000 0.08780  0.85750  0.21870  Biso   1.000  C
  C52      1.0000 0.41220  0.85750  0.71870  Biso   1.000  C
  C53      1.0000 0.54570  0.05320  0.25950  Biso   1.000  C
  C54      1.0000 0.95430  0.05320  0.75950  Biso   1.000  C
  C55      1.0000 0.04570  0.94680  0.25950  Biso   1.000  C
  C56      1.0000 0.45430  0.94680  0.75950  Biso   1.000  C
  H41      1.0000 0.55990  0.96970  0.25840  Biso   1.000  H
  H42      1.0000 0.94010  0.96970  0.75840  Biso   1.000  H
  H43      1.0000 0.05990  0.03030  0.25840  Biso   1.000  H
  H44      1.0000 0.44010  0.03030  0.75840  Biso   1.000  H
  C57      1.0000 0.48370  0.08950  0.30100  Biso   1.000  C
  C58      1.0000 0.01630  0.08950  0.80100  Biso   1.000  C
  C59      1.0000 0.98370  0.91050  0.30100  Biso   1.000  C
  C60      1.0000 0.51630  0.91050  0.80100  Biso   1.000  C
  H45      1.0000 0.45460  0.02860  0.32650  Biso   1.000  H
  H46      1.0000 0.04540  0.02860  0.82650  Biso   1.000  H
  H47      1.0000 0.95460  0.97140  0.32650  Biso   1.000  H
  H48      1.0000 0.54540  0.97140  0.82650  Biso   1.000  H
  C61      1.0000 0.81140  0.85990  0.23030  Biso   1.000  C
  C62      1.0000 0.68860  0.85990  0.73030  Biso   1.000  C
  C63      1.0000 0.31140  0.14010  0.23030  Biso   1.000  C
  C64      1.0000 0.18860  0.14010  0.73030  Biso   1.000  C
  H49      1.0000 0.84420  0.80530  0.20410  Biso   1.000  H
  H50      1.0000 0.65580  0.80530  0.70410  Biso   1.000  H
  H51      1.0000 0.34420  0.19470  0.20410  Biso   1.000  H
  H52      1.0000 0.15580  0.19470  0.70410  Biso   1.000  H
  C65      1.0000 0.76590  0.93070  0.18370  Biso   1.000  C
  C66      1.0000 0.73410  0.93070  0.68370  Biso   1.000  C
  C67      1.0000 0.26590  0.06930  0.18370  Biso   1.000  C
  C68      1.0000 0.23410  0.06930  0.68370  Biso   1.000  C
  H53      1.0000 0.76740  0.92410  0.12690  Biso   1.000  H
  H54      1.0000 0.73260  0.92410  0.62690  Biso   1.000  H
  H55      1.0000 0.26740  0.07590  0.12690  Biso   1.000  H
  H56      1.0000 0.23260  0.07590  0.62690  Biso   1.000  H
  C69      1.0000 0.71750  0.01200  0.22010  Biso   1.000  C
  C70      1.0000 0.78250  0.01200  0.72010  Biso   1.000  C
  C71      1.0000 0.21750  0.98800  0.22010  Biso   1.000  C
  C72      1.0000 0.28250  0.98800  0.72010  Biso   1.000  C
  C73      1.0000 0.71950  0.01980  0.30400  Biso   1.000  C
  C74      1.0000 0.78050  0.01980  0.80400  Biso   1.000  C
  C75      1.0000 0.21950  0.98020  0.30400  Biso   1.000  C
  C76      1.0000 0.28050  0.98020  0.80400  Biso   1.000  C
  H57      1.0000 0.68830  0.07530  0.33150  Biso   1.000  H
  H58      1.0000 0.81170  0.07530  0.83150  Biso   1.000  H
  H59      1.0000 0.18830  0.92470  0.33150  Biso   1.000  H
  H60      1.0000 0.31170  0.92470  0.83150  Biso   1.000  H
  C77      1.0000 0.76720  0.94620  0.34600  Biso   1.000  C
  C78      1.0000 0.73280  0.94620  0.84600  Biso   1.000  C
  C79      1.0000 0.26720  0.05380  0.34600  Biso   1.000  C
  C80      1.0000 0.23280  0.05380  0.84600  Biso   1.000  C
  H61      1.0000 0.76860  0.95380  0.40270  Biso   1.000  H
  H62      1.0000 0.73140  0.95380  0.90270  Biso   1.000  H
  H63      1.0000 0.26860  0.04620  0.40270  Biso   1.000  H
  H64      1.0000 0.23140  0.04620  0.90270  Biso   1.000  H
  C81      1.0000 0.44950  0.08510  0.51820  Biso   1.000  C
  C82      1.0000 0.05050  0.08510  0.01820  Biso   1.000  C
  C83      1.0000 0.94950  0.91490  0.51820  Biso   1.000  C
  C84      1.0000 0.55050  0.91490  0.01820  Biso   1.000  C
  H65      1.0000 0.44970  0.14770  0.55760  Biso   1.000  H
  H66      1.0000 0.05030  0.14770  0.05760  Biso   1.000  H
  H67      1.0000 0.94970  0.85230  0.55760  Biso   1.000  H
  H68      1.0000 0.55030  0.85230  0.05760  Biso   1.000  H
  C85      1.0000 0.55990  0.00800  0.58260  Biso   1.000  C
  C86      1.0000 0.94010  0.00800  0.08260  Biso   1.000  C
  C87      1.0000 0.05990  0.99200  0.58260  Biso   1.000  C
  C88      1.0000 0.44010  0.99200  0.08260  Biso   1.000  C
  H69      1.0000 0.54670  0.06780  0.62390  Biso   1.000  H
  H70      1.0000 0.95330  0.06780  0.12390  Biso   1.000  H
  H71      1.0000 0.04670  0.93220  0.62390  Biso   1.000  H
  H72      1.0000 0.45330  0.93220  0.12390  Biso   1.000  H
  H73      1.0000 0.60520  0.03410  0.55560  Biso   1.000  H
  H74      1.0000 0.89480  0.03410  0.05560  Biso   1.000  H
  H75      1.0000 0.10520  0.96590  0.55560  Biso   1.000  H
  H76      1.0000 0.39480  0.96590  0.05560  Biso   1.000  H
  H77      1.0000 0.56780  0.92800  0.60760  Biso   1.000  H
  H78      1.0000 0.93220  0.92800  0.10760  Biso   1.000  H
  H79      1.0000 0.06780  0.07200  0.60760  Biso   1.000  H
  H80      1.0000 0.43220  0.07200  0.10760  Biso   1.000  H
  C89      1.0000 0.50110  0.89630  0.46860  Biso   1.000  C
  C90      1.0000 0.99890  0.89630  0.96860  Biso   1.000  C
  C91      1.0000 0.00110  0.10370  0.46860  Biso   1.000  C
  C92      1.0000 0.49890  0.10370  0.96860  Biso   1.000  C
  H81      1.0000 0.45210  0.88680  0.44480  Biso   1.000  H
  H82      1.0000 0.04790  0.88680  0.94480  Biso   1.000  H
  H83      1.0000 0.95210  0.11320  0.44480  Biso   1.000  H
  H84      1.0000 0.54790  0.11320  0.94480  Biso   1.000  H
  H85      1.0000 0.51430  0.82150  0.49760  Biso   1.000  H
  H86      1.0000 0.98570  0.82150  0.99760  Biso   1.000  H
  H87      1.0000 0.01430  0.17850  0.49760  Biso   1.000  H
  H88      1.0000 0.48570  0.17850  0.99760  Biso   1.000  H
  H89      1.0000 0.53730  0.91140  0.42620  Biso   1.000  H
  H90      1.0000 0.96270  0.91140  0.92620  Biso   1.000  H
  H91      1.0000 0.03730  0.08860  0.42620  Biso   1.000  H
  H92      1.0000 0.46270  0.08860  0.92620  Biso   1.000  H
  C93      1.0000 0.36060  0.51580  0.27160  Biso   1.000  C
  C94      1.0000 0.13940  0.51580  0.77160  Biso   1.000  C
  C95      1.0000 0.86060  0.48420  0.27160  Biso   1.000  C
  C96      1.0000 0.63940  0.48420  0.77160  Biso   1.000  C
  H93      1.0000 0.41080  0.53560  0.28140  Biso   1.000  H
  H94      1.0000 0.08920  0.53560  0.78140  Biso   1.000  H
  H95      1.0000 0.91080  0.46440  0.28140  Biso   1.000  H
  H96      1.0000 0.58920  0.46440  0.78140  Biso   1.000  H
  C97      1.0000 0.34470  0.72770  0.23630  Biso   1.000  C
  C98      1.0000 0.15530  0.72770  0.73630  Biso   1.000  C
  C99      1.0000 0.84470  0.27230  0.23630  Biso   1.000  C
  C100     1.0000 0.65530  0.27230  0.73630  Biso   1.000  C
  H97      1.0000 0.39720  0.73150  0.24970  Biso   1.000  H
  H98      1.0000 0.10280  0.73150  0.74970  Biso   1.000  H
  H99      1.0000 0.89720  0.26850  0.24970  Biso   1.000  H
  H100     1.0000 0.60280  0.26850  0.74970  Biso   1.000  H
  H101     1.0000 0.31710  0.78270  0.27150  Biso   1.000  H
  H102     1.0000 0.18290  0.78270  0.77150  Biso   1.000  H
  H103     1.0000 0.81710  0.21730  0.27150  Biso   1.000  H
  H104     1.0000 0.68290  0.21730  0.77150  Biso   1.000  H
  H105     1.0000 0.33770  0.75260  0.18030  Biso   1.000  H
  H106     1.0000 0.16230  0.75260  0.68030  Biso   1.000  H
  H107     1.0000 0.83770  0.24740  0.18030  Biso   1.000  H
  H108     1.0000 0.66230  0.24740  0.68030  Biso   1.000  H
  C101     1.0000 0.23950  0.58410  0.23350  Biso   1.000  C
  C102     1.0000 0.26050  0.58410  0.73350  Biso   1.000  C
  C103     1.0000 0.73950  0.41590  0.23350  Biso   1.000  C
  C104     1.0000 0.76050  0.41590  0.73350  Biso   1.000  C
  H109     1.0000 0.23050  0.49750  0.22230  Biso   1.000  H
  H110     1.0000 0.26950  0.49750  0.72230  Biso   1.000  H
  H111     1.0000 0.73050  0.50250  0.22230  Biso   1.000  H
  H112     1.0000 0.76950  0.50250  0.72230  Biso   1.000  H
  H113     1.0000 0.22320  0.63340  0.18770  Biso   1.000  H
  H114     1.0000 0.27680  0.63340  0.68770  Biso   1.000  H
  H115     1.0000 0.72320  0.36660  0.18770  Biso   1.000  H
  H116     1.0000 0.77680  0.36660  0.68770  Biso   1.000  H
  H117     1.0000 0.21200  0.60840  0.28150  Biso   1.000  H
  H118     1.0000 0.28800  0.60840  0.78150  Biso   1.000  H
  H119     1.0000 0.71200  0.39160  0.28150  Biso   1.000  H
  H120     1.0000 0.78800  0.39160  0.78150  Biso   1.000  H
