data_image0
_cell_length_a       12.3248
_cell_length_b       17.1869
_cell_length_c       19.2754
_cell_angle_alpha    90
_cell_angle_beta     90
_cell_angle_gamma    90

_symmetry_space_group_name_H-M    "P 1"
_symmetry_int_tables_number       1

loop_
  _symmetry_equiv_pos_as_xyz
  'x, y, z'

loop_
  _atom_site_label
  _atom_site_occupancy
  _atom_site_fract_x
  _atom_site_fract_y
  _atom_site_fract_z
  _atom_site_thermal_displace_type
  _atom_site_B_iso_or_equiv
  _atom_site_type_symbol
  Cu1      1.0000 0.50000  0.29150  0.07160  Biso   1.000  Cu
  Cu2      1.0000 0.50000  0.70850  0.57160  Biso   1.000  Cu
  Cu3      1.0000 0.00000  0.79150  0.07160  Biso   1.000  Cu
  Cu4      1.0000 0.00000  0.20850  0.57160  Biso   1.000  Cu
  S1       1.0000 0.50000  0.50727  0.10911  Biso   1.000  S
  S2       1.0000 0.50000  0.49273  0.60911  Biso   1.000  S
  S3       1.0000 0.00000  0.00727  0.10911  Biso   1.000  S
  S4       1.0000 0.00000  0.99273  0.60911  Biso   1.000  S
  F1       1.0000 0.50000  0.64540  0.05810  Biso   1.000  F
  F2       1.0000 0.50000  0.35460  0.55810  Biso   1.000  F
  F3       1.0000 0.00000  0.14540  0.05810  Biso   1.000  F
  F4       1.0000 0.00000  0.85460  0.55810  Biso   1.000  F
  F5       1.0000 0.41420  0.55880  0.99790  Biso   1.000  F
  F6       1.0000 0.58580  0.55880  0.99790  Biso   1.000  F
  F7       1.0000 0.41420  0.44120  0.49790  Biso   1.000  F
  F8       1.0000 0.58580  0.44120  0.49790  Biso   1.000  F
  F9       1.0000 0.91420  0.05880  0.99790  Biso   1.000  F
  F10      1.0000 0.08580  0.05880  0.99790  Biso   1.000  F
  F11      1.0000 0.91420  0.94120  0.49790  Biso   1.000  F
  F12      1.0000 0.08580  0.94120  0.49790  Biso   1.000  F
  O1       1.0000 0.50000  0.43049  0.07780  Biso   1.000  O
  O2       1.0000 0.50000  0.56951  0.57780  Biso   1.000  O
  O3       1.0000 0.00000  0.93049  0.07780  Biso   1.000  O
  O4       1.0000 0.00000  0.06951  0.57780  Biso   1.000  O
  O5       1.0000 0.59550  0.52670  0.14620  Biso   1.000  O
  O6       1.0000 0.40450  0.52670  0.14620  Biso   1.000  O
  O7       1.0000 0.59550  0.47330  0.64620  Biso   1.000  O
  O8       1.0000 0.40450  0.47330  0.64620  Biso   1.000  O
  O9       1.0000 0.09550  0.02670  0.14620  Biso   1.000  O
  O10      1.0000 0.90450  0.02670  0.14620  Biso   1.000  O
  O11      1.0000 0.09550  0.97330  0.64620  Biso   1.000  O
  O12      1.0000 0.90450  0.97330  0.64620  Biso   1.000  O
  N1       1.0000 0.38230  0.27526  0.14315  Biso   1.000  N
  N2       1.0000 0.61770  0.27526  0.14315  Biso   1.000  N
  N3       1.0000 0.38230  0.72474  0.64315  Biso   1.000  N
  N4       1.0000 0.61770  0.72474  0.64315  Biso   1.000  N
  N5       1.0000 0.88230  0.77526  0.14315  Biso   1.000  N
  N6       1.0000 0.11770  0.77526  0.14315  Biso   1.000  N
  N7       1.0000 0.88230  0.22474  0.64315  Biso   1.000  N
  N8       1.0000 0.11770  0.22474  0.64315  Biso   1.000  N
  N9       1.0000 0.38260  0.28781  0.99840  Biso   1.000  N
  N10      1.0000 0.61740  0.28781  0.99840  Biso   1.000  N
  N11      1.0000 0.38260  0.71219  0.49840  Biso   1.000  N
  N12      1.0000 0.61740  0.71219  0.49840  Biso   1.000  N
  N13      1.0000 0.88260  0.78781  0.99840  Biso   1.000  N
  N14      1.0000 0.11740  0.78781  0.99840  Biso   1.000  N
  N15      1.0000 0.88260  0.21219  0.49840  Biso   1.000  N
  N16      1.0000 0.11740  0.21219  0.49840  Biso   1.000  N
  C1       1.0000 0.50000  0.57190  0.03800  Biso   1.000  C
  C2       1.0000 0.50000  0.42810  0.53800  Biso   1.000  C
  C3       1.0000 0.00000  0.07190  0.03800  Biso   1.000  C
  C4       1.0000 0.00000  0.92810  0.53800  Biso   1.000  C
  C5       1.0000 0.33940  0.20517  0.15130  Biso   1.000  C
  C6       1.0000 0.66060  0.20517  0.15130  Biso   1.000  C
  C7       1.0000 0.33940  0.79483  0.65130  Biso   1.000  C
  C8       1.0000 0.66060  0.79483  0.65130  Biso   1.000  C
  C9       1.0000 0.83940  0.70517  0.15130  Biso   1.000  C
  C10      1.0000 0.16060  0.70517  0.15130  Biso   1.000  C
  C11      1.0000 0.83940  0.29483  0.65130  Biso   1.000  C
  C12      1.0000 0.16060  0.29483  0.65130  Biso   1.000  C
  H1       1.0000 0.37080  0.16270  0.12690  Biso   1.000  H
  H2       1.0000 0.62920  0.16270  0.12690  Biso   1.000  H
  H3       1.0000 0.37080  0.83730  0.62690  Biso   1.000  H
  H4       1.0000 0.62920  0.83730  0.62690  Biso   1.000  H
  H5       1.0000 0.87080  0.66270  0.12690  Biso   1.000  H
  H6       1.0000 0.12920  0.66270  0.12690  Biso   1.000  H
  H7       1.0000 0.87080  0.33730  0.62690  Biso   1.000  H
  H8       1.0000 0.12920  0.33730  0.62690  Biso   1.000  H
  C13      1.0000 0.25050  0.19076  0.19380  Biso   1.000  C
  C14      1.0000 0.74950  0.19076  0.19380  Biso   1.000  C
  C15      1.0000 0.25050  0.80924  0.69380  Biso   1.000  C
  C16      1.0000 0.74950  0.80924  0.69380  Biso   1.000  C
  C17      1.0000 0.75050  0.69076  0.19380  Biso   1.000  C
  C18      1.0000 0.24950  0.69076  0.19380  Biso   1.000  C
  C19      1.0000 0.75050  0.30924  0.69380  Biso   1.000  C
  C20      1.0000 0.24950  0.30924  0.69380  Biso   1.000  C
  H9       1.0000 0.22290  0.13940  0.19850  Biso   1.000  H
  H10      1.0000 0.77710  0.13940  0.19850  Biso   1.000  H
  H11      1.0000 0.22290  0.86060  0.69850  Biso   1.000  H
  H12      1.0000 0.77710  0.86060  0.69850  Biso   1.000  H
  H13      1.0000 0.72290  0.63940  0.19850  Biso   1.000  H
  H14      1.0000 0.27710  0.63940  0.19850  Biso   1.000  H
  H15      1.0000 0.72290  0.36060  0.69850  Biso   1.000  H
  H16      1.0000 0.27710  0.36060  0.69850  Biso   1.000  H
  C21      1.0000 0.20260  0.25186  0.22903  Biso   1.000  C
  C22      1.0000 0.79740  0.25186  0.22903  Biso   1.000  C
  C23      1.0000 0.20260  0.74814  0.72903  Biso   1.000  C
  C24      1.0000 0.79740  0.74814  0.72903  Biso   1.000  C
  C25      1.0000 0.70260  0.75186  0.22903  Biso   1.000  C
  C26      1.0000 0.29740  0.75186  0.22903  Biso   1.000  C
  C27      1.0000 0.70260  0.24814  0.72903  Biso   1.000  C
  C28      1.0000 0.29740  0.24814  0.72903  Biso   1.000  C
  C29      1.0000 0.24870  0.32470  0.22124  Biso   1.000  C
  C30      1.0000 0.75130  0.32470  0.22124  Biso   1.000  C
  C31      1.0000 0.24870  0.67530  0.72124  Biso   1.000  C
  C32      1.0000 0.75130  0.67530  0.72124  Biso   1.000  C
  C33      1.0000 0.74870  0.82470  0.22124  Biso   1.000  C
  C34      1.0000 0.25130  0.82470  0.22124  Biso   1.000  C
  C35      1.0000 0.74870  0.17530  0.72124  Biso   1.000  C
  C36      1.0000 0.25130  0.17530  0.72124  Biso   1.000  C
  H17      1.0000 0.21940  0.36800  0.24550  Biso   1.000  H
  H18      1.0000 0.78060  0.36800  0.24550  Biso   1.000  H
  H19      1.0000 0.21940  0.63200  0.74550  Biso   1.000  H
  H20      1.0000 0.78060  0.63200  0.74550  Biso   1.000  H
  H21      1.0000 0.71940  0.86800  0.24550  Biso   1.000  H
  H22      1.0000 0.28060  0.86800  0.24550  Biso   1.000  H
  H23      1.0000 0.71940  0.13200  0.74550  Biso   1.000  H
  H24      1.0000 0.28060  0.13200  0.74550  Biso   1.000  H
  C37      1.0000 0.33750  0.33459  0.17817  Biso   1.000  C
  C38      1.0000 0.66250  0.33459  0.17817  Biso   1.000  C
  C39      1.0000 0.33750  0.66541  0.67817  Biso   1.000  C
  C40      1.0000 0.66250  0.66541  0.67817  Biso   1.000  C
  C41      1.0000 0.83750  0.83459  0.17817  Biso   1.000  C
  C42      1.0000 0.16250  0.83459  0.17817  Biso   1.000  C
  C43      1.0000 0.83750  0.16541  0.67817  Biso   1.000  C
  C44      1.0000 0.16250  0.16541  0.67817  Biso   1.000  C
  H25      1.0000 0.36780  0.38510  0.17330  Biso   1.000  H
  H26      1.0000 0.63220  0.38510  0.17330  Biso   1.000  H
  H27      1.0000 0.36780  0.61490  0.67330  Biso   1.000  H
  H28      1.0000 0.63220  0.61490  0.67330  Biso   1.000  H
  H29      1.0000 0.86780  0.88510  0.17330  Biso   1.000  H
  H30      1.0000 0.13220  0.88510  0.17330  Biso   1.000  H
  H31      1.0000 0.86780  0.11490  0.67330  Biso   1.000  H
  H32      1.0000 0.13220  0.11490  0.67330  Biso   1.000  H
  C45      1.0000 0.10160  0.24017  0.27269  Biso   1.000  C
  C46      1.0000 0.89840  0.24017  0.27269  Biso   1.000  C
  C47      1.0000 0.10160  0.75983  0.77269  Biso   1.000  C
  C48      1.0000 0.89840  0.75983  0.77269  Biso   1.000  C
  C49      1.0000 0.60160  0.74017  0.27269  Biso   1.000  C
  C50      1.0000 0.39840  0.74017  0.27269  Biso   1.000  C
  C51      1.0000 0.60160  0.25983  0.77269  Biso   1.000  C
  C52      1.0000 0.39840  0.25983  0.77269  Biso   1.000  C
  H33      1.0000 0.09730  0.28150  0.30830  Biso   1.000  H
  H34      1.0000 0.90270  0.28150  0.30830  Biso   1.000  H
  H35      1.0000 0.09730  0.71850  0.80830  Biso   1.000  H
  H36      1.0000 0.90270  0.71850  0.80830  Biso   1.000  H
  H37      1.0000 0.59730  0.78150  0.30830  Biso   1.000  H
  H38      1.0000 0.40270  0.78150  0.30830  Biso   1.000  H
  H39      1.0000 0.59730  0.21850  0.80830  Biso   1.000  H
  H40      1.0000 0.40270  0.21850  0.80830  Biso   1.000  H
  H41      1.0000 0.10590  0.18940  0.29680  Biso   1.000  H
  H42      1.0000 0.89410  0.18940  0.29680  Biso   1.000  H
  H43      1.0000 0.10590  0.81060  0.79680  Biso   1.000  H
  H44      1.0000 0.89410  0.81060  0.79680  Biso   1.000  H
  H45      1.0000 0.60590  0.68940  0.29680  Biso   1.000  H
  H46      1.0000 0.39410  0.68940  0.29680  Biso   1.000  H
  H47      1.0000 0.60590  0.31060  0.79680  Biso   1.000  H
  H48      1.0000 0.39410  0.31060  0.79680  Biso   1.000  H
  C53      1.0000 0.00000  0.24240  0.22750  Biso   1.000  C
  C54      1.0000 0.00000  0.75760  0.72750  Biso   1.000  C
  C55      1.0000 0.50000  0.74240  0.22750  Biso   1.000  C
  C56      1.0000 0.50000  0.25760  0.72750  Biso   1.000  C
  H49      1.0000 0.00000  0.29050  0.19920  Biso   1.000  H
  H50      1.0000 0.00000  0.70950  0.69920  Biso   1.000  H
  H51      1.0000 0.50000  0.79050  0.19920  Biso   1.000  H
  H52      1.0000 0.50000  0.20950  0.69920  Biso   1.000  H
  H53      1.0000 0.00000  0.19730  0.19550  Biso   1.000  H
  H54      1.0000 0.00000  0.80270  0.69550  Biso   1.000  H
  H55      1.0000 0.50000  0.69730  0.19550  Biso   1.000  H
  H56      1.0000 0.50000  0.30270  0.69550  Biso   1.000  H
  C57      1.0000 0.34990  0.21922  0.97190  Biso   1.000  C
  C58      1.0000 0.65010  0.21922  0.97190  Biso   1.000  C
  C59      1.0000 0.34990  0.78078  0.47190  Biso   1.000  C
  C60      1.0000 0.65010  0.78078  0.47190  Biso   1.000  C
  C61      1.0000 0.84990  0.71922  0.97190  Biso   1.000  C
  C62      1.0000 0.15010  0.71922  0.97190  Biso   1.000  C
  C63      1.0000 0.84990  0.28078  0.47190  Biso   1.000  C
  C64      1.0000 0.15010  0.28078  0.47190  Biso   1.000  C
  H57      1.0000 0.38930  0.17350  0.98350  Biso   1.000  H
  H58      1.0000 0.61070  0.17350  0.98350  Biso   1.000  H
  H59      1.0000 0.38930  0.82650  0.48350  Biso   1.000  H
  H60      1.0000 0.61070  0.82650  0.48350  Biso   1.000  H
  H61      1.0000 0.88930  0.67350  0.98350  Biso   1.000  H
  H62      1.0000 0.11070  0.67350  0.98350  Biso   1.000  H
  H63      1.0000 0.88930  0.32650  0.48350  Biso   1.000  H
  H64      1.0000 0.11070  0.32650  0.48350  Biso   1.000  H
  C65      1.0000 0.26110  0.21276  0.92843  Biso   1.000  C
  C66      1.0000 0.73890  0.21276  0.92843  Biso   1.000  C
  C67      1.0000 0.26110  0.78724  0.42843  Biso   1.000  C
  C68      1.0000 0.73890  0.78724  0.42843  Biso   1.000  C
  C69      1.0000 0.76110  0.71276  0.92843  Biso   1.000  C
  C70      1.0000 0.23890  0.71276  0.92843  Biso   1.000  C
  C71      1.0000 0.76110  0.28724  0.42843  Biso   1.000  C
  C72      1.0000 0.23890  0.28724  0.42843  Biso   1.000  C
  H65      1.0000 0.24020  0.16320  0.91110  Biso   1.000  H
  H66      1.0000 0.75980  0.16320  0.91110  Biso   1.000  H
  H67      1.0000 0.24020  0.83680  0.41110  Biso   1.000  H
  H68      1.0000 0.75980  0.83680  0.41110  Biso   1.000  H
  H69      1.0000 0.74020  0.66320  0.91110  Biso   1.000  H
  H70      1.0000 0.25980  0.66320  0.91110  Biso   1.000  H
  H71      1.0000 0.74020  0.33680  0.41110  Biso   1.000  H
  H72      1.0000 0.25980  0.33680  0.41110  Biso   1.000  H
  C73      1.0000 0.20270  0.27814  0.91021  Biso   1.000  C
  C74      1.0000 0.79730  0.27814  0.91021  Biso   1.000  C
  C75      1.0000 0.20270  0.72186  0.41021  Biso   1.000  C
  C76      1.0000 0.79730  0.72186  0.41021  Biso   1.000  C
  C77      1.0000 0.70270  0.77814  0.91021  Biso   1.000  C
  C78      1.0000 0.29730  0.77814  0.91021  Biso   1.000  C
  C79      1.0000 0.70270  0.22186  0.41021  Biso   1.000  C
  C80      1.0000 0.29730  0.22186  0.41021  Biso   1.000  C
  C81      1.0000 0.23860  0.34918  0.93618  Biso   1.000  C
  C82      1.0000 0.76140  0.34918  0.93618  Biso   1.000  C
  C83      1.0000 0.23860  0.65082  0.43618  Biso   1.000  C
  C84      1.0000 0.76140  0.65082  0.43618  Biso   1.000  C
  C85      1.0000 0.73860  0.84918  0.93618  Biso   1.000  C
  C86      1.0000 0.26140  0.84918  0.93618  Biso   1.000  C
  C87      1.0000 0.73860  0.15082  0.43618  Biso   1.000  C
  C88      1.0000 0.26140  0.15082  0.43618  Biso   1.000  C
  H73      1.0000 0.20210  0.39590  0.92380  Biso   1.000  H
  H74      1.0000 0.79790  0.39590  0.92380  Biso   1.000  H
  H75      1.0000 0.20210  0.60410  0.42380  Biso   1.000  H
  H76      1.0000 0.79790  0.60410  0.42380  Biso   1.000  H
  H77      1.0000 0.70210  0.89590  0.92380  Biso   1.000  H
  H78      1.0000 0.29790  0.89590  0.92380  Biso   1.000  H
  H79      1.0000 0.70210  0.10410  0.42380  Biso   1.000  H
  H80      1.0000 0.29790  0.10410  0.42380  Biso   1.000  H
  C89      1.0000 0.32710  0.35169  0.97987  Biso   1.000  C
  C90      1.0000 0.67290  0.35169  0.97987  Biso   1.000  C
  C91      1.0000 0.32710  0.64831  0.47987  Biso   1.000  C
  C92      1.0000 0.67290  0.64831  0.47987  Biso   1.000  C
  C93      1.0000 0.82710  0.85169  0.97987  Biso   1.000  C
  C94      1.0000 0.17290  0.85169  0.97987  Biso   1.000  C
  C95      1.0000 0.82710  0.14831  0.47987  Biso   1.000  C
  C96      1.0000 0.17290  0.14831  0.47987  Biso   1.000  C
  H81      1.0000 0.34980  0.40070  0.99760  Biso   1.000  H
  H82      1.0000 0.65020  0.40070  0.99760  Biso   1.000  H
  H83      1.0000 0.34980  0.59930  0.49760  Biso   1.000  H
  H84      1.0000 0.65020  0.59930  0.49760  Biso   1.000  H
  H85      1.0000 0.84980  0.90070  0.99760  Biso   1.000  H
  H86      1.0000 0.15020  0.90070  0.99760  Biso   1.000  H
  H87      1.0000 0.84980  0.09930  0.49760  Biso   1.000  H
  H88      1.0000 0.15020  0.09930  0.49760  Biso   1.000  H
  C97      1.0000 0.10260  0.27448  0.86528  Biso   1.000  C
  C98      1.0000 0.89740  0.27448  0.86528  Biso   1.000  C
  C99      1.0000 0.10260  0.72552  0.36528  Biso   1.000  C
  C100     1.0000 0.89740  0.72552  0.36528  Biso   1.000  C
  C101     1.0000 0.60260  0.77448  0.86528  Biso   1.000  C
  C102     1.0000 0.39740  0.77448  0.86528  Biso   1.000  C
  C103     1.0000 0.60260  0.22552  0.36528  Biso   1.000  C
  C104     1.0000 0.39740  0.22552  0.36528  Biso   1.000  C
  H89      1.0000 0.10540  0.22740  0.83580  Biso   1.000  H
  H90      1.0000 0.89460  0.22740  0.83580  Biso   1.000  H
  H91      1.0000 0.10540  0.77260  0.33580  Biso   1.000  H
  H92      1.0000 0.89460  0.77260  0.33580  Biso   1.000  H
  H93      1.0000 0.60540  0.72740  0.83580  Biso   1.000  H
  H94      1.0000 0.39460  0.72740  0.83580  Biso   1.000  H
  H95      1.0000 0.60540  0.27260  0.33580  Biso   1.000  H
  H96      1.0000 0.39460  0.27260  0.33580  Biso   1.000  H
  H97      1.0000 0.10020  0.32060  0.83450  Biso   1.000  H
  H98      1.0000 0.89980  0.32060  0.83450  Biso   1.000  H
  H99      1.0000 0.10020  0.67940  0.33450  Biso   1.000  H
  H100     1.0000 0.89980  0.67940  0.33450  Biso   1.000  H
  H101     1.0000 0.60020  0.82060  0.83450  Biso   1.000  H
  H102     1.0000 0.39980  0.82060  0.83450  Biso   1.000  H
  H103     1.0000 0.60020  0.17940  0.33450  Biso   1.000  H
  H104     1.0000 0.39980  0.17940  0.33450  Biso   1.000  H
  C105     1.0000 0.00000  0.27230  0.91040  Biso   1.000  C
  C106     1.0000 0.00000  0.72770  0.41040  Biso   1.000  C
  C107     1.0000 0.50000  0.77230  0.91040  Biso   1.000  C
  C108     1.0000 0.50000  0.22770  0.41040  Biso   1.000  C
  H105     1.0000 0.00000  0.22430  0.93880  Biso   1.000  H
  H106     1.0000 0.00000  0.77570  0.43880  Biso   1.000  H
  H107     1.0000 0.50000  0.72430  0.93880  Biso   1.000  H
  H108     1.0000 0.50000  0.27570  0.43880  Biso   1.000  H
  H109     1.0000 0.00000  0.31740  0.94240  Biso   1.000  H
  H110     1.0000 0.00000  0.68260  0.44240  Biso   1.000  H
  H111     1.0000 0.50000  0.81740  0.94240  Biso   1.000  H
  H112     1.0000 0.50000  0.18260  0.44240  Biso   1.000  H
  S5       1.0000 0.00000  0.47022  0.36288  Biso   1.000  S
  S6       1.0000 0.00000  0.52978  0.86288  Biso   1.000  S
  S7       1.0000 0.50000  0.97022  0.36288  Biso   1.000  S
  S8       1.0000 0.50000  0.02978  0.86288  Biso   1.000  S
  F13      1.0000 0.92080  0.54330  0.26010  Biso   1.000  F
  F14      1.0000 0.07920  0.54330  0.26010  Biso   1.000  F
  F15      1.0000 0.92080  0.45670  0.76010  Biso   1.000  F
  F16      1.0000 0.07920  0.45670  0.76010  Biso   1.000  F
  F17      1.0000 0.42080  0.04330  0.26010  Biso   1.000  F
  F18      1.0000 0.57920  0.04330  0.26010  Biso   1.000  F
  F19      1.0000 0.42080  0.95670  0.76010  Biso   1.000  F
  F20      1.0000 0.57920  0.95670  0.76010  Biso   1.000  F
  F21      1.0000 0.00000  0.44350  0.23020  Biso   1.000  F
  F22      1.0000 0.00000  0.55650  0.73020  Biso   1.000  F
  F23      1.0000 0.50000  0.94350  0.23020  Biso   1.000  F
  F24      1.0000 0.50000  0.05650  0.73020  Biso   1.000  F
  O13      1.0000 0.00000  0.53960  0.40340  Biso   1.000  O
  O14      1.0000 0.00000  0.46040  0.90340  Biso   1.000  O
  O15      1.0000 0.50000  0.03960  0.40340  Biso   1.000  O
  O16      1.0000 0.50000  0.96040  0.90340  Biso   1.000  O
  O17      1.0000 0.09230  0.42730  0.36720  Biso   1.000  O
  O18      1.0000 0.90770  0.42730  0.36720  Biso   1.000  O
  O19      1.0000 0.09230  0.57270  0.86720  Biso   1.000  O
  O20      1.0000 0.90770  0.57270  0.86720  Biso   1.000  O
  O21      1.0000 0.59230  0.92730  0.36720  Biso   1.000  O
  O22      1.0000 0.40770  0.92730  0.36720  Biso   1.000  O
  O23      1.0000 0.59230  0.07270  0.86720  Biso   1.000  O
  O24      1.0000 0.40770  0.07270  0.86720  Biso   1.000  O
  C109     1.0000 0.00000  0.50160  0.27430  Biso   1.000  C
  C110     1.0000 0.00000  0.49840  0.77430  Biso   1.000  C
  C111     1.0000 0.50000  0.00160  0.27430  Biso   1.000  C
  C112     1.0000 0.50000  0.99840  0.77430  Biso   1.000  C
  O25      1.0000 0.50000  0.08916  0.06400  Biso   1.000  O
  O26      1.0000 0.50000  0.91084  0.56400  Biso   1.000  O
  O27      1.0000 0.00000  0.58916  0.06400  Biso   1.000  O
  O28      1.0000 0.00000  0.41084  0.56400  Biso   1.000  O
  C113     1.0000 0.50000  0.01900  0.06660  Biso   1.000  C
  C114     1.0000 0.50000  0.98100  0.56660  Biso   1.000  C
  C115     1.0000 0.00000  0.51900  0.06660  Biso   1.000  C
  C116     1.0000 0.00000  0.48100  0.56660  Biso   1.000  C
  C117     1.0000 0.60370  0.97500  0.06850  Biso   1.000  C
  C118     1.0000 0.39630  0.97500  0.06850  Biso   1.000  C
  C119     1.0000 0.60370  0.02500  0.56850  Biso   1.000  C
  C120     1.0000 0.39630  0.02500  0.56850  Biso   1.000  C
  C121     1.0000 0.10370  0.47500  0.06850  Biso   1.000  C
  C122     1.0000 0.89630  0.47500  0.06850  Biso   1.000  C
  C123     1.0000 0.10370  0.52500  0.56850  Biso   1.000  C
  C124     1.0000 0.89630  0.52500  0.56850  Biso   1.000  C
  H113     1.0000 0.65990  0.00450  0.04400  Biso   1.000  H
  H114     1.0000 0.34010  0.00450  0.04400  Biso   1.000  H
  H115     1.0000 0.65990  0.99550  0.54400  Biso   1.000  H
  H116     1.0000 0.34010  0.99550  0.54400  Biso   1.000  H
  H117     1.0000 0.15990  0.50450  0.04400  Biso   1.000  H
  H118     1.0000 0.84010  0.50450  0.04400  Biso   1.000  H
  H119     1.0000 0.15990  0.49550  0.54400  Biso   1.000  H
  H120     1.0000 0.84010  0.49550  0.54400  Biso   1.000  H
  H121     1.0000 0.59380  0.92440  0.04600  Biso   1.000  H
  H122     1.0000 0.40620  0.92440  0.04600  Biso   1.000  H
  H123     1.0000 0.59380  0.07560  0.54600  Biso   1.000  H
  H124     1.0000 0.40620  0.07560  0.54600  Biso   1.000  H
  H125     1.0000 0.09380  0.42440  0.04600  Biso   1.000  H
  H126     1.0000 0.90620  0.42440  0.04600  Biso   1.000  H
  H127     1.0000 0.09380  0.57560  0.54600  Biso   1.000  H
  H128     1.0000 0.90620  0.57560  0.54600  Biso   1.000  H
  H129     1.0000 0.62590  0.96720  0.11690  Biso   1.000  H
  H130     1.0000 0.37410  0.96720  0.11690  Biso   1.000  H
  H131     1.0000 0.62590  0.03280  0.61690  Biso   1.000  H
  H132     1.0000 0.37410  0.03280  0.61690  Biso   1.000  H
  H133     1.0000 0.12590  0.46720  0.11690  Biso   1.000  H
  H134     1.0000 0.87410  0.46720  0.11690  Biso   1.000  H
  H135     1.0000 0.12590  0.53280  0.61690  Biso   1.000  H
  H136     1.0000 0.87410  0.53280  0.61690  Biso   1.000  H
  O29      1.0000 0.50000  0.39480  0.30620  Biso   1.000  O
  O30      1.0000 0.50000  0.60520  0.80620  Biso   1.000  O
  O31      1.0000 0.00000  0.89480  0.30620  Biso   1.000  O
  O32      1.0000 0.00000  0.10520  0.80620  Biso   1.000  O
  C125     1.0000 0.50000  0.46290  0.31810  Biso   1.000  C
  C126     1.0000 0.50000  0.53710  0.81810  Biso   1.000  C
  C127     1.0000 0.00000  0.96290  0.31810  Biso   1.000  C
  C128     1.0000 0.00000  0.03710  0.81810  Biso   1.000  C
  C129     1.0000 0.60490  0.50460  0.32340  Biso   1.000  C
  C130     1.0000 0.39510  0.50460  0.32340  Biso   1.000  C
  C131     1.0000 0.60490  0.49540  0.82340  Biso   1.000  C
  C132     1.0000 0.39510  0.49540  0.82340  Biso   1.000  C
  C133     1.0000 0.10490  0.00460  0.32340  Biso   1.000  C
  C134     1.0000 0.89510  0.00460  0.32340  Biso   1.000  C
  C135     1.0000 0.10490  0.99540  0.82340  Biso   1.000  C
  C136     1.0000 0.89510  0.99540  0.82340  Biso   1.000  C
  H137     1.0000 0.66350  0.47060  0.30720  Biso   1.000  H
  H138     1.0000 0.33650  0.47060  0.30720  Biso   1.000  H
  H139     1.0000 0.66350  0.52940  0.80720  Biso   1.000  H
  H140     1.0000 0.33650  0.52940  0.80720  Biso   1.000  H
  H141     1.0000 0.16350  0.97060  0.30720  Biso   1.000  H
  H142     1.0000 0.83650  0.97060  0.30720  Biso   1.000  H
  H143     1.0000 0.16350  0.02940  0.80720  Biso   1.000  H
  H144     1.0000 0.83650  0.02940  0.80720  Biso   1.000  H
  H145     1.0000 0.61810  0.51910  0.37180  Biso   1.000  H
  H146     1.0000 0.38190  0.51910  0.37180  Biso   1.000  H
  H147     1.0000 0.61810  0.48090  0.87180  Biso   1.000  H
  H148     1.0000 0.38190  0.48090  0.87180  Biso   1.000  H
  H149     1.0000 0.11810  0.01910  0.37180  Biso   1.000  H
  H150     1.0000 0.88190  0.01910  0.37180  Biso   1.000  H
  H151     1.0000 0.11810  0.98090  0.87180  Biso   1.000  H
  H152     1.0000 0.88190  0.98090  0.87180  Biso   1.000  H
  H153     1.0000 0.60250  0.55160  0.29470  Biso   1.000  H
  H154     1.0000 0.39750  0.55160  0.29470  Biso   1.000  H
  H155     1.0000 0.60250  0.44840  0.79470  Biso   1.000  H
  H156     1.0000 0.39750  0.44840  0.79470  Biso   1.000  H
  H157     1.0000 0.10250  0.05160  0.29470  Biso   1.000  H
  H158     1.0000 0.89750  0.05160  0.29470  Biso   1.000  H
  H159     1.0000 0.10250  0.94840  0.79470  Biso   1.000  H
  H160     1.0000 0.89750  0.94840  0.79470  Biso   1.000  H
