data_image0
_cell_length_a       16.705
_cell_length_b       14.059
_cell_length_c       11.579
_cell_angle_alpha    90
_cell_angle_beta     117.522
_cell_angle_gamma    90

_symmetry_space_group_name_H-M    "P 1"
_symmetry_int_tables_number       1

loop_
  _symmetry_equiv_pos_as_xyz
  'x, y, z'

loop_
  _atom_site_label
  _atom_site_occupancy
  _atom_site_fract_x
  _atom_site_fract_y
  _atom_site_fract_z
  _atom_site_thermal_displace_type
  _atom_site_B_iso_or_equiv
  _atom_site_type_symbol
  Cu1      1.0000 0.29362  0.50000  0.43926  Biso   1.000  Cu
  Cu2      1.0000 0.70638  0.50000  0.56074  Biso   1.000  Cu
  Cu3      1.0000 0.79362  0.00000  0.43926  Biso   1.000  Cu
  Cu4      1.0000 0.20638  0.00000  0.56074  Biso   1.000  Cu
  Mn1      1.0000 0.50000  0.50000  0.50000  Biso   1.000  Mn
  Mn2      1.0000 0.00000  0.00000  0.50000  Biso   1.000  Mn
  O1       1.0000 0.50500  0.50000  0.68670  Biso   1.000  O
  O2       1.0000 0.49500  0.50000  0.31330  Biso   1.000  O
  O3       1.0000 0.00500  0.00000  0.68670  Biso   1.000  O
  O4       1.0000 0.99500  0.00000  0.31330  Biso   1.000  O
  O5       1.0000 0.37790  0.59340  0.42970  Biso   1.000  O
  O6       1.0000 0.62210  0.59340  0.57030  Biso   1.000  O
  O7       1.0000 0.87790  0.09340  0.42970  Biso   1.000  O
  O8       1.0000 0.12210  0.09340  0.57030  Biso   1.000  O
  O9       1.0000 0.62210  0.40660  0.57030  Biso   1.000  O
  O10      1.0000 0.37790  0.40660  0.42970  Biso   1.000  O
  O11      1.0000 0.12210  0.90660  0.57030  Biso   1.000  O
  O12      1.0000 0.87790  0.90660  0.42970  Biso   1.000  O
  O13      1.0000 0.36160  0.50000  0.65030  Biso   1.000  O
  O14      1.0000 0.63840  0.50000  0.34970  Biso   1.000  O
  O15      1.0000 0.86160  0.00000  0.65030  Biso   1.000  O
  O16      1.0000 0.13840  0.00000  0.34970  Biso   1.000  O
  N1       1.0000 0.20550  0.60300  0.41100  Biso   1.000  N
  N2       1.0000 0.79450  0.60300  0.58900  Biso   1.000  N
  N3       1.0000 0.70550  0.10300  0.41100  Biso   1.000  N
  N4       1.0000 0.29450  0.10300  0.58900  Biso   1.000  N
  N5       1.0000 0.79450  0.39700  0.58900  Biso   1.000  N
  N6       1.0000 0.20550  0.39700  0.41100  Biso   1.000  N
  N7       1.0000 0.29450  0.89700  0.58900  Biso   1.000  N
  N8       1.0000 0.70550  0.89700  0.41100  Biso   1.000  N
  C1       1.0000 0.47420  0.50000  0.86840  Biso   1.000  C
  C2       1.0000 0.52580  0.50000  0.13160  Biso   1.000  C
  C3       1.0000 0.97420  0.00000  0.86840  Biso   1.000  C
  C4       1.0000 0.02580  0.00000  0.13160  Biso   1.000  C
  C5       1.0000 0.59060  0.50000  0.08820  Biso   1.000  C
  C6       1.0000 0.40940  0.50000  0.91180  Biso   1.000  C
  C7       1.0000 0.09060  0.00000  0.08820  Biso   1.000  C
  C8       1.0000 0.90940  0.00000  0.91180  Biso   1.000  C
  H1       1.0000 0.65170  0.50000  0.14750  Biso   1.000  H
  H2       1.0000 0.34830  0.50000  0.85250  Biso   1.000  H
  H3       1.0000 0.15170  0.00000  0.14750  Biso   1.000  H
  H4       1.0000 0.84830  0.00000  0.85250  Biso   1.000  H
  C9       1.0000 0.44410  0.50000  0.72080  Biso   1.000  C
  C10      1.0000 0.55590  0.50000  0.27920  Biso   1.000  C
  C11      1.0000 0.94410  0.00000  0.72080  Biso   1.000  C
  C12      1.0000 0.05590  0.00000  0.27920  Biso   1.000  C
  C13      1.0000 0.56370  0.50000  0.95730  Biso   1.000  C
  C14      1.0000 0.43630  0.50000  0.04270  Biso   1.000  C
  C15      1.0000 0.06370  0.00000  0.95730  Biso   1.000  C
  C16      1.0000 0.93630  0.00000  0.04270  Biso   1.000  C
  H5       1.0000 0.60700  0.50000  0.92810  Biso   1.000  H
  H6       1.0000 0.39300  0.50000  0.07190  Biso   1.000  H
  H7       1.0000 0.10700  0.00000  0.92810  Biso   1.000  H
  H8       1.0000 0.89300  0.00000  0.07190  Biso   1.000  H
  C17      1.0000 0.34820  0.66280  0.34310  Biso   1.000  C
  C18      1.0000 0.65180  0.66280  0.65690  Biso   1.000  C
  C19      1.0000 0.84820  0.16280  0.34310  Biso   1.000  C
  C20      1.0000 0.15180  0.16280  0.65690  Biso   1.000  C
  C21      1.0000 0.65180  0.33720  0.65690  Biso   1.000  C
  C22      1.0000 0.34820  0.33720  0.34310  Biso   1.000  C
  C23      1.0000 0.15180  0.83720  0.65690  Biso   1.000  C
  C24      1.0000 0.84820  0.83720  0.34310  Biso   1.000  C
  C25      1.0000 0.26120  0.70320  0.29430  Biso   1.000  C
  C26      1.0000 0.73880  0.70320  0.70570  Biso   1.000  C
  C27      1.0000 0.76120  0.20320  0.29430  Biso   1.000  C
  C28      1.0000 0.23880  0.20320  0.70570  Biso   1.000  C
  C29      1.0000 0.73880  0.29680  0.70570  Biso   1.000  C
  C30      1.0000 0.26120  0.29680  0.29430  Biso   1.000  C
  C31      1.0000 0.23880  0.79680  0.70570  Biso   1.000  C
  C32      1.0000 0.76120  0.79680  0.29430  Biso   1.000  C
  C33      1.0000 0.19810  0.68060  0.34650  Biso   1.000  C
  C34      1.0000 0.80190  0.68060  0.65350  Biso   1.000  C
  C35      1.0000 0.69810  0.18060  0.34650  Biso   1.000  C
  C36      1.0000 0.30190  0.18060  0.65350  Biso   1.000  C
  C37      1.0000 0.80190  0.31940  0.65350  Biso   1.000  C
  C38      1.0000 0.19810  0.31940  0.34650  Biso   1.000  C
  C39      1.0000 0.30190  0.81940  0.65350  Biso   1.000  C
  C40      1.0000 0.69810  0.81940  0.34650  Biso   1.000  C
  C41      1.0000 0.13950  0.58710  0.46320  Biso   1.000  C
  C42      1.0000 0.86050  0.58710  0.53680  Biso   1.000  C
  C43      1.0000 0.63950  0.08710  0.46320  Biso   1.000  C
  C44      1.0000 0.36050  0.08710  0.53680  Biso   1.000  C
  C45      1.0000 0.86050  0.41290  0.53680  Biso   1.000  C
  C46      1.0000 0.13950  0.41290  0.46320  Biso   1.000  C
  C47      1.0000 0.36050  0.91290  0.53680  Biso   1.000  C
  C48      1.0000 0.63950  0.91290  0.46320  Biso   1.000  C
  H9       1.0000 0.14410  0.63960  0.52030  Biso   1.000  H
  H10      1.0000 0.85590  0.63960  0.47970  Biso   1.000  H
  H11      1.0000 0.64410  0.13960  0.52030  Biso   1.000  H
  H12      1.0000 0.35590  0.13960  0.47970  Biso   1.000  H
  H13      1.0000 0.85590  0.36040  0.47970  Biso   1.000  H
  H14      1.0000 0.14410  0.36040  0.52030  Biso   1.000  H
  H15      1.0000 0.35590  0.86040  0.47970  Biso   1.000  H
  H16      1.0000 0.64410  0.86040  0.52030  Biso   1.000  H
  H17      1.0000 0.07890  0.58770  0.39110  Biso   1.000  H
  H18      1.0000 0.92110  0.58770  0.60890  Biso   1.000  H
  H19      1.0000 0.57890  0.08770  0.39110  Biso   1.000  H
  H20      1.0000 0.42110  0.08770  0.60890  Biso   1.000  H
  H21      1.0000 0.92110  0.41230  0.60890  Biso   1.000  H
  H22      1.0000 0.07890  0.41230  0.39110  Biso   1.000  H
  H23      1.0000 0.42110  0.91230  0.60890  Biso   1.000  H
  H24      1.0000 0.57890  0.91230  0.39110  Biso   1.000  H
  C49      1.0000 0.40840  0.70100  0.30150  Biso   1.000  C
  C50      1.0000 0.59160  0.70100  0.69850  Biso   1.000  C
  C51      1.0000 0.90840  0.20100  0.30150  Biso   1.000  C
  C52      1.0000 0.09160  0.20100  0.69850  Biso   1.000  C
  C53      1.0000 0.59160  0.29900  0.69850  Biso   1.000  C
  C54      1.0000 0.40840  0.29900  0.30150  Biso   1.000  C
  C55      1.0000 0.09160  0.79900  0.69850  Biso   1.000  C
  C56      1.0000 0.90840  0.79900  0.30150  Biso   1.000  C
  H25      1.0000 0.46750  0.67870  0.33780  Biso   1.000  H
  H26      1.0000 0.53250  0.67870  0.66220  Biso   1.000  H
  H27      1.0000 0.96750  0.17870  0.33780  Biso   1.000  H
  H28      1.0000 0.03250  0.17870  0.66220  Biso   1.000  H
  H29      1.0000 0.53250  0.32130  0.66220  Biso   1.000  H
  H30      1.0000 0.46750  0.32130  0.33780  Biso   1.000  H
  H31      1.0000 0.03250  0.82130  0.66220  Biso   1.000  H
  H32      1.0000 0.96750  0.82130  0.33780  Biso   1.000  H
  C57      1.0000 0.23620  0.77470  0.19700  Biso   1.000  C
  C58      1.0000 0.76380  0.77470  0.80300  Biso   1.000  C
  C59      1.0000 0.73620  0.27470  0.19700  Biso   1.000  C
  C60      1.0000 0.26380  0.27470  0.80300  Biso   1.000  C
  C61      1.0000 0.76380  0.22530  0.80300  Biso   1.000  C
  C62      1.0000 0.23620  0.22530  0.19700  Biso   1.000  C
  C63      1.0000 0.26380  0.72530  0.80300  Biso   1.000  C
  C64      1.0000 0.73620  0.72530  0.19700  Biso   1.000  C
  H33      1.0000 0.17820  0.80000  0.16150  Biso   1.000  H
  H34      1.0000 0.82180  0.80000  0.83850  Biso   1.000  H
  H35      1.0000 0.67820  0.30000  0.16150  Biso   1.000  H
  H36      1.0000 0.32180  0.30000  0.83850  Biso   1.000  H
  H37      1.0000 0.82180  0.20000  0.83850  Biso   1.000  H
  H38      1.0000 0.17820  0.20000  0.16150  Biso   1.000  H
  H39      1.0000 0.32180  0.70000  0.83850  Biso   1.000  H
  H40      1.0000 0.67820  0.70000  0.16150  Biso   1.000  H
  C65      1.0000 0.15250  0.50000  0.53340  Biso   1.000  C
  C66      1.0000 0.84750  0.50000  0.46660  Biso   1.000  C
  C67      1.0000 0.65250  0.00000  0.53340  Biso   1.000  C
  C68      1.0000 0.34750  0.00000  0.46660  Biso   1.000  C
  H41      1.0000 0.11180  0.50000  0.57190  Biso   1.000  H
  H42      1.0000 0.88820  0.50000  0.42810  Biso   1.000  H
  H43      1.0000 0.61180  0.00000  0.57190  Biso   1.000  H
  H44      1.0000 0.38820  0.00000  0.42810  Biso   1.000  H
  H45      1.0000 0.21350  0.50000  0.60440  Biso   1.000  H
  H46      1.0000 0.78650  0.50000  0.39560  Biso   1.000  H
  H47      1.0000 0.71350  0.00000  0.60440  Biso   1.000  H
  H48      1.0000 0.28650  0.00000  0.39560  Biso   1.000  H
  C69      1.0000 0.12770  0.75440  0.32730  Biso   1.000  C
  C70      1.0000 0.87230  0.75440  0.67270  Biso   1.000  C
  C71      1.0000 0.62770  0.25440  0.32730  Biso   1.000  C
  C72      1.0000 0.37230  0.25440  0.67270  Biso   1.000  C
  C73      1.0000 0.87230  0.24560  0.67270  Biso   1.000  C
  C74      1.0000 0.12770  0.24560  0.32730  Biso   1.000  C
  C75      1.0000 0.37230  0.74560  0.67270  Biso   1.000  C
  C76      1.0000 0.62770  0.74560  0.32730  Biso   1.000  C
  H49      1.0000 0.07880  0.74930  0.24060  Biso   1.000  H
  H50      1.0000 0.92120  0.74930  0.75940  Biso   1.000  H
  H51      1.0000 0.57880  0.24930  0.24060  Biso   1.000  H
  H52      1.0000 0.42120  0.24930  0.75940  Biso   1.000  H
  H53      1.0000 0.92120  0.25070  0.75940  Biso   1.000  H
  H54      1.0000 0.07880  0.25070  0.24060  Biso   1.000  H
  H55      1.0000 0.42120  0.75070  0.75940  Biso   1.000  H
  H56      1.0000 0.57880  0.75070  0.24060  Biso   1.000  H
  H57      1.0000 0.15400  0.81660  0.33970  Biso   1.000  H
  H58      1.0000 0.84600  0.81660  0.66030  Biso   1.000  H
  H59      1.0000 0.65400  0.31660  0.33970  Biso   1.000  H
  H60      1.0000 0.34600  0.31660  0.66030  Biso   1.000  H
  H61      1.0000 0.84600  0.18340  0.66030  Biso   1.000  H
  H62      1.0000 0.15400  0.18340  0.33970  Biso   1.000  H
  H63      1.0000 0.34600  0.68340  0.66030  Biso   1.000  H
  H64      1.0000 0.65400  0.68340  0.33970  Biso   1.000  H
  H65      1.0000 0.10530  0.74410  0.38920  Biso   1.000  H
  H66      1.0000 0.89470  0.74410  0.61080  Biso   1.000  H
  H67      1.0000 0.60530  0.24410  0.38920  Biso   1.000  H
  H68      1.0000 0.39470  0.24410  0.61080  Biso   1.000  H
  H69      1.0000 0.89470  0.25590  0.61080  Biso   1.000  H
  H70      1.0000 0.10530  0.25590  0.38920  Biso   1.000  H
  H71      1.0000 0.39470  0.75590  0.61080  Biso   1.000  H
  H72      1.0000 0.60530  0.75590  0.38920  Biso   1.000  H
  C77      1.0000 0.38100  0.77040  0.20840  Biso   1.000  C
  C78      1.0000 0.61900  0.77040  0.79160  Biso   1.000  C
  C79      1.0000 0.88100  0.27040  0.20840  Biso   1.000  C
  C80      1.0000 0.11900  0.27040  0.79160  Biso   1.000  C
  C81      1.0000 0.61900  0.22960  0.79160  Biso   1.000  C
  C82      1.0000 0.38100  0.22960  0.20840  Biso   1.000  C
  C83      1.0000 0.11900  0.72960  0.79160  Biso   1.000  C
  C84      1.0000 0.88100  0.72960  0.20840  Biso   1.000  C
  H73      1.0000 0.42100  0.79380  0.18010  Biso   1.000  H
  H74      1.0000 0.57900  0.79380  0.81990  Biso   1.000  H
  H75      1.0000 0.92100  0.29380  0.18010  Biso   1.000  H
  H76      1.0000 0.07900  0.29380  0.81990  Biso   1.000  H
  H77      1.0000 0.57900  0.20620  0.81990  Biso   1.000  H
  H78      1.0000 0.42100  0.20620  0.18010  Biso   1.000  H
  H79      1.0000 0.07900  0.70620  0.81990  Biso   1.000  H
  H80      1.0000 0.92100  0.70620  0.18010  Biso   1.000  H
  C85      1.0000 0.29310  0.80640  0.15560  Biso   1.000  C
  C86      1.0000 0.70690  0.80640  0.84440  Biso   1.000  C
  C87      1.0000 0.79310  0.30640  0.15560  Biso   1.000  C
  C88      1.0000 0.20690  0.30640  0.84440  Biso   1.000  C
  C89      1.0000 0.70690  0.19360  0.84440  Biso   1.000  C
  C90      1.0000 0.29310  0.19360  0.15560  Biso   1.000  C
  C91      1.0000 0.20690  0.69360  0.84440  Biso   1.000  C
  C92      1.0000 0.79310  0.69360  0.15560  Biso   1.000  C
  H81      1.0000 0.27450  0.85280  0.09110  Biso   1.000  H
  H82      1.0000 0.72550  0.85280  0.90890  Biso   1.000  H
  H83      1.0000 0.77450  0.35280  0.09110  Biso   1.000  H
  H84      1.0000 0.22550  0.35280  0.90890  Biso   1.000  H
  H85      1.0000 0.72550  0.14720  0.90890  Biso   1.000  H
  H86      1.0000 0.27450  0.14720  0.09110  Biso   1.000  H
  H87      1.0000 0.22550  0.64720  0.90890  Biso   1.000  H
  H88      1.0000 0.77450  0.64720  0.09110  Biso   1.000  H
  O17      1.0000 0.34200  0.00000  0.93400  Biso   1.000  O
  O18      1.0000 0.65800  0.00000  0.06600  Biso   1.000  O
  O19      1.0000 0.84200  0.50000  0.93400  Biso   1.000  O
  O20      1.0000 0.15800  0.50000  0.06600  Biso   1.000  O
