data_image0
_cell_length_a       16.517
_cell_length_b       14.199
_cell_length_c       11.763
_cell_angle_alpha    90
_cell_angle_beta     117.976
_cell_angle_gamma    90

_symmetry_space_group_name_H-M    "P 1"
_symmetry_int_tables_number       1

loop_
  _symmetry_equiv_pos_as_xyz
  'x, y, z'

loop_
  _atom_site_label
  _atom_site_occupancy
  _atom_site_fract_x
  _atom_site_fract_y
  _atom_site_fract_z
  _atom_site_thermal_displace_type
  _atom_site_B_iso_or_equiv
  _atom_site_type_symbol
  Cd1      1.0000 0.00000  0.00000  0.00000  Biso   1.000  Cd
  Cd2      1.0000 0.50000  0.50000  0.00000  Biso   1.000  Cd
  Cu1      1.0000 0.78504  0.00000  0.94181  Biso   1.000  Cu
  Cu2      1.0000 0.21496  0.00000  0.05819  Biso   1.000  Cu
  Cu3      1.0000 0.28504  0.50000  0.94181  Biso   1.000  Cu
  Cu4      1.0000 0.71496  0.50000  0.05819  Biso   1.000  Cu
  O1       1.0000 0.00680  0.00000  0.19400  Biso   1.000  O
  O2       1.0000 0.99320  0.00000  0.80600  Biso   1.000  O
  O3       1.0000 0.50680  0.50000  0.19400  Biso   1.000  O
  O4       1.0000 0.49320  0.50000  0.80600  Biso   1.000  O
  O5       1.0000 0.86750  0.09270  0.92870  Biso   1.000  O
  O6       1.0000 0.13250  0.09270  0.07130  Biso   1.000  O
  O7       1.0000 0.36750  0.59270  0.92870  Biso   1.000  O
  O8       1.0000 0.63250  0.59270  0.07130  Biso   1.000  O
  O9       1.0000 0.13250  0.90730  0.07130  Biso   1.000  O
  O10      1.0000 0.86750  0.90730  0.92870  Biso   1.000  O
  O11      1.0000 0.63250  0.40730  0.07130  Biso   1.000  O
  O12      1.0000 0.36750  0.40730  0.92870  Biso   1.000  O
  O13      1.0000 0.86080  0.00000  0.15120  Biso   1.000  O
  O14      1.0000 0.13920  0.00000  0.84880  Biso   1.000  O
  O15      1.0000 0.36080  0.50000  0.15120  Biso   1.000  O
  O16      1.0000 0.63920  0.50000  0.84880  Biso   1.000  O
  C1       1.0000 0.94430  0.00000  0.22610  Biso   1.000  C
  C2       1.0000 0.05570  0.00000  0.77390  Biso   1.000  C
  C3       1.0000 0.44430  0.50000  0.22610  Biso   1.000  C
  C4       1.0000 0.55570  0.50000  0.77390  Biso   1.000  C
  N1       1.0000 0.69590  0.10300  0.91900  Biso   1.000  N
  N2       1.0000 0.30410  0.10300  0.08100  Biso   1.000  N
  N3       1.0000 0.19590  0.60300  0.91900  Biso   1.000  N
  N4       1.0000 0.80410  0.60300  0.08100  Biso   1.000  N
  N5       1.0000 0.30410  0.89700  0.08100  Biso   1.000  N
  N6       1.0000 0.69590  0.89700  0.91900  Biso   1.000  N
  N7       1.0000 0.80410  0.39700  0.08100  Biso   1.000  N
  N8       1.0000 0.19590  0.39700  0.91900  Biso   1.000  N
  C5       1.0000 0.97390  0.00000  0.36890  Biso   1.000  C
  C6       1.0000 0.02610  0.00000  0.63110  Biso   1.000  C
  C7       1.0000 0.47390  0.50000  0.36890  Biso   1.000  C
  C8       1.0000 0.52610  0.50000  0.63110  Biso   1.000  C
  C9       1.0000 0.83620  0.16070  0.84190  Biso   1.000  C
  C10      1.0000 0.16380  0.16070  0.15810  Biso   1.000  C
  C11      1.0000 0.33620  0.66070  0.84190  Biso   1.000  C
  C12      1.0000 0.66380  0.66070  0.15810  Biso   1.000  C
  C13      1.0000 0.16380  0.83930  0.15810  Biso   1.000  C
  C14      1.0000 0.83620  0.83930  0.84190  Biso   1.000  C
  C15      1.0000 0.66380  0.33930  0.15810  Biso   1.000  C
  C16      1.0000 0.33620  0.33930  0.84190  Biso   1.000  C
  C17      1.0000 0.93430  0.00000  0.53990  Biso   1.000  C
  C18      1.0000 0.06570  0.00000  0.46010  Biso   1.000  C
  C19      1.0000 0.43430  0.50000  0.53990  Biso   1.000  C
  C20      1.0000 0.56570  0.50000  0.46010  Biso   1.000  C
  H1       1.0000 0.88940  0.00000  0.56660  Biso   1.000  H
  H2       1.0000 0.11060  0.00000  0.43340  Biso   1.000  H
  H3       1.0000 0.38940  0.50000  0.56660  Biso   1.000  H
  H4       1.0000 0.61060  0.50000  0.43340  Biso   1.000  H
  C21      1.0000 0.89150  0.19520  0.79260  Biso   1.000  C
  C22      1.0000 0.10850  0.19520  0.20740  Biso   1.000  C
  C23      1.0000 0.39150  0.69520  0.79260  Biso   1.000  C
  C24      1.0000 0.60850  0.69520  0.20740  Biso   1.000  C
  C25      1.0000 0.10850  0.80480  0.20740  Biso   1.000  C
  C26      1.0000 0.89150  0.80480  0.79260  Biso   1.000  C
  C27      1.0000 0.60850  0.30480  0.20740  Biso   1.000  C
  C28      1.0000 0.39150  0.30480  0.79260  Biso   1.000  C
  H5       1.0000 0.94990  0.17010  0.82180  Biso   1.000  H
  H6       1.0000 0.05010  0.17010  0.17820  Biso   1.000  H
  H7       1.0000 0.44990  0.67010  0.82180  Biso   1.000  H
  H8       1.0000 0.55010  0.67010  0.17820  Biso   1.000  H
  H9       1.0000 0.05010  0.82990  0.17820  Biso   1.000  H
  H10      1.0000 0.94990  0.82990  0.82180  Biso   1.000  H
  H11      1.0000 0.55010  0.32990  0.17820  Biso   1.000  H
  H12      1.0000 0.44990  0.32990  0.82180  Biso   1.000  H
  C29      1.0000 0.68830  0.17900  0.85580  Biso   1.000  C
  C30      1.0000 0.31170  0.17900  0.14420  Biso   1.000  C
  C31      1.0000 0.18830  0.67900  0.85580  Biso   1.000  C
  C32      1.0000 0.81170  0.67900  0.14420  Biso   1.000  C
  C33      1.0000 0.31170  0.82100  0.14420  Biso   1.000  C
  C34      1.0000 0.68830  0.82100  0.85580  Biso   1.000  C
  C35      1.0000 0.81170  0.32100  0.14420  Biso   1.000  C
  C36      1.0000 0.18830  0.32100  0.85580  Biso   1.000  C
  C37      1.0000 0.74860  0.20210  0.79970  Biso   1.000  C
  C38      1.0000 0.25140  0.20210  0.20030  Biso   1.000  C
  C39      1.0000 0.24860  0.70210  0.79970  Biso   1.000  C
  C40      1.0000 0.75140  0.70210  0.20030  Biso   1.000  C
  C41      1.0000 0.25140  0.79790  0.20030  Biso   1.000  C
  C42      1.0000 0.74860  0.79790  0.79970  Biso   1.000  C
  C43      1.0000 0.75140  0.29790  0.20030  Biso   1.000  C
  C44      1.0000 0.24860  0.29790  0.79970  Biso   1.000  C
  C45      1.0000 0.65330  0.00000  0.05200  Biso   1.000  C
  C46      1.0000 0.34670  0.00000  0.94800  Biso   1.000  C
  C47      1.0000 0.15330  0.50000  0.05200  Biso   1.000  C
  C48      1.0000 0.84670  0.50000  0.94800  Biso   1.000  C
  H13      1.0000 0.61720  0.00000  0.09750  Biso   1.000  H
  H14      1.0000 0.38280  0.00000  0.90250  Biso   1.000  H
  H15      1.0000 0.11720  0.50000  0.09750  Biso   1.000  H
  H16      1.0000 0.88280  0.50000  0.90250  Biso   1.000  H
  H17      1.0000 0.71730  0.00000  0.11630  Biso   1.000  H
  H18      1.0000 0.28270  0.00000  0.88370  Biso   1.000  H
  H19      1.0000 0.21730  0.50000  0.11630  Biso   1.000  H
  H20      1.0000 0.78270  0.50000  0.88370  Biso   1.000  H
  C49      1.0000 0.90900  0.00000  0.41140  Biso   1.000  C
  C50      1.0000 0.09100  0.00000  0.58860  Biso   1.000  C
  C51      1.0000 0.40900  0.50000  0.41140  Biso   1.000  C
  C52      1.0000 0.59100  0.50000  0.58860  Biso   1.000  C
  H21      1.0000 0.84710  0.00000  0.35160  Biso   1.000  H
  H22      1.0000 0.15290  0.00000  0.64840  Biso   1.000  H
  H23      1.0000 0.34710  0.50000  0.35160  Biso   1.000  H
  H24      1.0000 0.65290  0.50000  0.64840  Biso   1.000  H
  C53      1.0000 0.63420  0.09010  0.97730  Biso   1.000  C
  C54      1.0000 0.36580  0.09010  0.02270  Biso   1.000  C
  C55      1.0000 0.13420  0.59010  0.97730  Biso   1.000  C
  C56      1.0000 0.86580  0.59010  0.02270  Biso   1.000  C
  C57      1.0000 0.36580  0.90990  0.02270  Biso   1.000  C
  C58      1.0000 0.63420  0.90990  0.97730  Biso   1.000  C
  C59      1.0000 0.86580  0.40990  0.02270  Biso   1.000  C
  C60      1.0000 0.13420  0.40990  0.97730  Biso   1.000  C
  H25      1.0000 0.57110  0.09010  0.90980  Biso   1.000  H
  H26      1.0000 0.42890  0.09010  0.09020  Biso   1.000  H
  H27      1.0000 0.07110  0.59010  0.90980  Biso   1.000  H
  H28      1.0000 0.92890  0.59010  0.09020  Biso   1.000  H
  H29      1.0000 0.42890  0.90990  0.09020  Biso   1.000  H
  H30      1.0000 0.57110  0.90990  0.90980  Biso   1.000  H
  H31      1.0000 0.92890  0.40990  0.09020  Biso   1.000  H
  H32      1.0000 0.07110  0.40990  0.90980  Biso   1.000  H
  H33      1.0000 0.64190  0.14270  0.03420  Biso   1.000  H
  H34      1.0000 0.35810  0.14270  0.96580  Biso   1.000  H
  H35      1.0000 0.14190  0.64270  0.03420  Biso   1.000  H
  H36      1.0000 0.85810  0.64270  0.96580  Biso   1.000  H
  H37      1.0000 0.35810  0.85730  0.96580  Biso   1.000  H
  H38      1.0000 0.64190  0.85730  0.03420  Biso   1.000  H
  H39      1.0000 0.85810  0.35730  0.96580  Biso   1.000  H
  H40      1.0000 0.14190  0.35730  0.03420  Biso   1.000  H
  C61      1.0000 0.72170  0.27310  0.70500  Biso   1.000  C
  C62      1.0000 0.27830  0.27310  0.29500  Biso   1.000  C
  C63      1.0000 0.22170  0.77310  0.70500  Biso   1.000  C
  C64      1.0000 0.77830  0.77310  0.29500  Biso   1.000  C
  C65      1.0000 0.27830  0.72690  0.29500  Biso   1.000  C
  C66      1.0000 0.72170  0.72690  0.70500  Biso   1.000  C
  C67      1.0000 0.77830  0.22690  0.29500  Biso   1.000  C
  C68      1.0000 0.22170  0.22690  0.70500  Biso   1.000  C
  H41      1.0000 0.66440  0.30090  0.67650  Biso   1.000  H
  H42      1.0000 0.33560  0.30090  0.32350  Biso   1.000  H
  H43      1.0000 0.16440  0.80090  0.67650  Biso   1.000  H
  H44      1.0000 0.83560  0.80090  0.32350  Biso   1.000  H
  H45      1.0000 0.33560  0.69910  0.32350  Biso   1.000  H
  H46      1.0000 0.66440  0.69910  0.67650  Biso   1.000  H
  H47      1.0000 0.83560  0.19910  0.32350  Biso   1.000  H
  H48      1.0000 0.16440  0.19910  0.67650  Biso   1.000  H
  C69      1.0000 0.77510  0.30220  0.65410  Biso   1.000  C
  C70      1.0000 0.22490  0.30220  0.34590  Biso   1.000  C
  C71      1.0000 0.27510  0.80220  0.65410  Biso   1.000  C
  C72      1.0000 0.72490  0.80220  0.34590  Biso   1.000  C
  C73      1.0000 0.22490  0.69780  0.34590  Biso   1.000  C
  C74      1.0000 0.77510  0.69780  0.65410  Biso   1.000  C
  C75      1.0000 0.72490  0.19780  0.34590  Biso   1.000  C
  C76      1.0000 0.27510  0.19780  0.65410  Biso   1.000  C
  H49      1.0000 0.75330  0.34640  0.58800  Biso   1.000  H
  H50      1.0000 0.24670  0.34640  0.41200  Biso   1.000  H
  H51      1.0000 0.25330  0.84640  0.58800  Biso   1.000  H
  H52      1.0000 0.74670  0.84640  0.41200  Biso   1.000  H
  H53      1.0000 0.24670  0.65360  0.41200  Biso   1.000  H
  H54      1.0000 0.75330  0.65360  0.58800  Biso   1.000  H
  H55      1.0000 0.74670  0.15360  0.41200  Biso   1.000  H
  H56      1.0000 0.25330  0.15360  0.58800  Biso   1.000  H
  C77      1.0000 0.61670  0.25120  0.83820  Biso   1.000  C
  C78      1.0000 0.38330  0.25120  0.16180  Biso   1.000  C
  C79      1.0000 0.11670  0.75120  0.83820  Biso   1.000  C
  C80      1.0000 0.88330  0.75120  0.16180  Biso   1.000  C
  C81      1.0000 0.38330  0.74880  0.16180  Biso   1.000  C
  C82      1.0000 0.61670  0.74880  0.83820  Biso   1.000  C
  C83      1.0000 0.88330  0.24880  0.16180  Biso   1.000  C
  C84      1.0000 0.11670  0.24880  0.83820  Biso   1.000  C
  H57      1.0000 0.56350  0.24160  0.75660  Biso   1.000  H
  H58      1.0000 0.43650  0.24160  0.24340  Biso   1.000  H
  H59      1.0000 0.06350  0.74160  0.75660  Biso   1.000  H
  H60      1.0000 0.93650  0.74160  0.24340  Biso   1.000  H
  H61      1.0000 0.43650  0.75840  0.24340  Biso   1.000  H
  H62      1.0000 0.56350  0.75840  0.75660  Biso   1.000  H
  H63      1.0000 0.93650  0.25840  0.24340  Biso   1.000  H
  H64      1.0000 0.06350  0.25840  0.75660  Biso   1.000  H
  H65      1.0000 0.64080  0.31310  0.84080  Biso   1.000  H
  H66      1.0000 0.35920  0.31310  0.15920  Biso   1.000  H
  H67      1.0000 0.14080  0.81310  0.84080  Biso   1.000  H
  H68      1.0000 0.85920  0.81310  0.15920  Biso   1.000  H
  H69      1.0000 0.35920  0.68690  0.15920  Biso   1.000  H
  H70      1.0000 0.64080  0.68690  0.84080  Biso   1.000  H
  H71      1.0000 0.85920  0.18690  0.15920  Biso   1.000  H
  H72      1.0000 0.14080  0.18690  0.84080  Biso   1.000  H
  H73      1.0000 0.60020  0.24490  0.90600  Biso   1.000  H
  H74      1.0000 0.39980  0.24490  0.09400  Biso   1.000  H
  H75      1.0000 0.10020  0.74490  0.90600  Biso   1.000  H
  H76      1.0000 0.89980  0.74490  0.09400  Biso   1.000  H
  H77      1.0000 0.39980  0.75510  0.09400  Biso   1.000  H
  H78      1.0000 0.60020  0.75510  0.90600  Biso   1.000  H
  H79      1.0000 0.89980  0.25510  0.09400  Biso   1.000  H
  H80      1.0000 0.10020  0.25510  0.90600  Biso   1.000  H
  C85      1.0000 0.86250  0.26610  0.70060  Biso   1.000  C
  C86      1.0000 0.13750  0.26610  0.29940  Biso   1.000  C
  C87      1.0000 0.36250  0.76610  0.70060  Biso   1.000  C
  C88      1.0000 0.63750  0.76610  0.29940  Biso   1.000  C
  C89      1.0000 0.13750  0.73390  0.29940  Biso   1.000  C
  C90      1.0000 0.86250  0.73390  0.70060  Biso   1.000  C
  C91      1.0000 0.63750  0.23390  0.29940  Biso   1.000  C
  C92      1.0000 0.36250  0.23390  0.70060  Biso   1.000  C
  H81      1.0000 0.90160  0.28910  0.67050  Biso   1.000  H
  H82      1.0000 0.09840  0.28910  0.32950  Biso   1.000  H
  H83      1.0000 0.40160  0.78910  0.67050  Biso   1.000  H
  H84      1.0000 0.59840  0.78910  0.32950  Biso   1.000  H
  H85      1.0000 0.09840  0.71090  0.32950  Biso   1.000  H
  H86      1.0000 0.90160  0.71090  0.67050  Biso   1.000  H
  H87      1.0000 0.59840  0.21090  0.32950  Biso   1.000  H
  H88      1.0000 0.40160  0.21090  0.67050  Biso   1.000  H
  O17      1.0000 0.60900  0.00000  0.52000  Biso   1.000  O
  O18      1.0000 0.39100  0.00000  0.48000  Biso   1.000  O
  O19      1.0000 0.10900  0.50000  0.52000  Biso   1.000  O
  O20      1.0000 0.89100  0.50000  0.48000  Biso   1.000  O
