data_image0
_cell_length_a       17.802
_cell_length_b       17.816
_cell_length_c       23.265
_cell_angle_alpha    89.212
_cell_angle_beta     84.204
_cell_angle_gamma    60.313

_symmetry_space_group_name_H-M    "P 1"
_symmetry_int_tables_number       1

loop_
  _symmetry_equiv_pos_as_xyz
  'x, y, z'

loop_
  _atom_site_label
  _atom_site_occupancy
  _atom_site_fract_x
  _atom_site_fract_y
  _atom_site_fract_z
  _atom_site_thermal_displace_type
  _atom_site_B_iso_or_equiv
  _atom_site_type_symbol
  Cu1      1.0000 0.50000  0.50000  0.00000  Biso   1.000  Cu
  Cu2      1.0000 0.50000  0.50000  0.50000  Biso   1.000  Cu
  Cu3      1.0000 0.50288  0.51534  0.33262  Biso   1.000  Cu
  Cu4      1.0000 0.49712  0.48466  0.66738  Biso   1.000  Cu
  Cu5      1.0000 0.49912  0.51601  0.16674  Biso   1.000  Cu
  Cu6      1.0000 0.50088  0.48399  0.83326  Biso   1.000  Cu
  N1       1.0000 0.59380  0.41110  0.05410  Biso   1.000  N
  N2       1.0000 0.40620  0.58890  0.94590  Biso   1.000  N
  N3       1.0000 0.60660  0.40940  0.38800  Biso   1.000  N
  N4       1.0000 0.39340  0.59060  0.61200  Biso   1.000  N
  N5       1.0000 0.50290  0.42200  0.22040  Biso   1.000  N
  N6       1.0000 0.49710  0.57800  0.77960  Biso   1.000  N
  N7       1.0000 0.40730  0.50080  0.44650  Biso   1.000  N
  N8       1.0000 0.59270  0.49920  0.55350  Biso   1.000  N
  N9       1.0000 0.50110  0.60440  0.44440  Biso   1.000  N
  N10      1.0000 0.49890  0.39560  0.55560  Biso   1.000  N
  N11      1.0000 0.40340  0.50180  0.05390  Biso   1.000  N
  N12      1.0000 0.59660  0.49820  0.94610  Biso   1.000  N
  N13      1.0000 0.49730  0.60960  0.38490  Biso   1.000  N
  N14      1.0000 0.50270  0.39040  0.61510  Biso   1.000  N
  N15      1.0000 0.60220  0.40710  0.44720  Biso   1.000  N
  N16      1.0000 0.39780  0.59290  0.55280  Biso   1.000  N
  N17      1.0000 0.59500  0.42070  0.11240  Biso   1.000  N
  N18      1.0000 0.40500  0.57930  0.88760  Biso   1.000  N
  N19      1.0000 0.59920  0.51810  0.28060  Biso   1.000  N
  N20      1.0000 0.40080  0.48190  0.71940  Biso   1.000  N
  N21      1.0000 0.41090  0.50540  0.38590  Biso   1.000  N
  N22      1.0000 0.58910  0.49460  0.61410  Biso   1.000  N
  N23      1.0000 0.39830  0.50660  0.11360  Biso   1.000  N
  N24      1.0000 0.60170  0.49340  0.88640  Biso   1.000  N
  N25      1.0000 0.50860  0.41980  0.27890  Biso   1.000  N
  N26      1.0000 0.49140  0.58020  0.72110  Biso   1.000  N
  N27      1.0000 0.39680  0.61540  0.27830  Biso   1.000  N
  N28      1.0000 0.60320  0.38460  0.72170  Biso   1.000  N
  N29      1.0000 0.60050  0.52200  0.21960  Biso   1.000  N
  N30      1.0000 0.39950  0.47800  0.78040  Biso   1.000  N
  N31      1.0000 0.49680  0.60570  0.05330  Biso   1.000  N
  N32      1.0000 0.50320  0.39430  0.94670  Biso   1.000  N
  N33      1.0000 0.49640  0.60900  0.11370  Biso   1.000  N
  N34      1.0000 0.50360  0.39100  0.88630  Biso   1.000  N
  N35      1.0000 0.29940  0.49520  0.41800  Biso   1.000  N
  N36      1.0000 0.70060  0.50480  0.58200  Biso   1.000  N
  N37      1.0000 0.49240  0.72440  0.41830  Biso   1.000  N
  N38      1.0000 0.50760  0.27560  0.58170  Biso   1.000  N
  C1       1.0000 0.32680  0.68800  0.29640  Biso   1.000  C
  C2       1.0000 0.67320  0.31200  0.70360  Biso   1.000  C
  N39      1.0000 0.50140  0.30850  0.25080  Biso   1.000  N
  N40      1.0000 0.49860  0.69150  0.74920  Biso   1.000  N
  N41      1.0000 0.40110  0.60920  0.21890  Biso   1.000  N
  N42      1.0000 0.59890  0.39080  0.78110  Biso   1.000  N
  N43      1.0000 0.71720  0.51780  0.24810  Biso   1.000  N
  N44      1.0000 0.28280  0.48220  0.75190  Biso   1.000  N
  N45      1.0000 0.28520  0.72790  0.25140  Biso   1.000  N
  N46      1.0000 0.71480  0.27210  0.74860  Biso   1.000  N
  C3       1.0000 0.33250  0.67970  0.20200  Biso   1.000  C
  C4       1.0000 0.66750  0.32030  0.79800  Biso   1.000  C
  C5       1.0000 0.66940  0.35620  0.12780  Biso   1.000  C
  C6       1.0000 0.33060  0.64380  0.87220  Biso   1.000  C
  N47      1.0000 0.72540  0.30000  0.41360  Biso   1.000  N
  N48      1.0000 0.27460  0.70000  0.58640  Biso   1.000  N
  N49      1.0000 0.71290  0.30500  0.07990  Biso   1.000  N
  N50      1.0000 0.28710  0.69500  0.92010  Biso   1.000  N
  C7       1.0000 0.66740  0.51540  0.29500  Biso   1.000  C
  C8       1.0000 0.33260  0.48460  0.70500  Biso   1.000  C
  N51      1.0000 0.48920  0.72470  0.08000  Biso   1.000  N
  N52      1.0000 0.51080  0.27530  0.92000  Biso   1.000  N
  C9       1.0000 0.33580  0.49630  0.04070  Biso   1.000  C
  C10      1.0000 0.66420  0.50370  0.95930  Biso   1.000  C
  C11      1.0000 0.49150  0.68300  0.36940  Biso   1.000  C
  C12      1.0000 0.50850  0.31700  0.63060  Biso   1.000  C
  C13      1.0000 0.49800  0.35900  0.20580  Biso   1.000  C
  C14      1.0000 0.50200  0.64100  0.79420  Biso   1.000  C
  C15      1.0000 0.66900  0.33920  0.03540  Biso   1.000  C
  C16      1.0000 0.33100  0.66080  0.96460  Biso   1.000  C
  C17      1.0000 0.34160  0.49160  0.46390  Biso   1.000  C
  C18      1.0000 0.65840  0.50840  0.53610  Biso   1.000  C
  N53      1.0000 0.28960  0.49700  0.08740  Biso   1.000  N
  N54      1.0000 0.71040  0.50300  0.91260  Biso   1.000  N
  C19      1.0000 0.32690  0.50460  0.13310  Biso   1.000  C
  C20      1.0000 0.67310  0.49540  0.86690  Biso   1.000  C
  C21      1.0000 0.67070  0.34200  0.46320  Biso   1.000  C
  C22      1.0000 0.32930  0.65800  0.53680  Biso   1.000  C
  C23      1.0000 0.49160  0.68120  0.12850  Biso   1.000  C
  C24      1.0000 0.50840  0.31880  0.87150  Biso   1.000  C
  C25      1.0000 0.34300  0.50360  0.37050  Biso   1.000  C
  C26      1.0000 0.65700  0.49640  0.62950  Biso   1.000  C
  C27      1.0000 0.68110  0.34540  0.36770  Biso   1.000  C
  C28      1.0000 0.31890  0.65460  0.63230  Biso   1.000  C
  N55      1.0000 0.22220  0.49060  0.42100  Biso   1.000  N
  N56      1.0000 0.77780  0.50940  0.57900  Biso   1.000  N
  C29      1.0000 0.49750  0.67560  0.46200  Biso   1.000  C
  C30      1.0000 0.50250  0.32440  0.53800  Biso   1.000  C
  N57      1.0000 0.79880  0.51310  0.24540  Biso   1.000  N
  N58      1.0000 0.20120  0.48690  0.75460  Biso   1.000  N
  C31      1.0000 0.67370  0.52170  0.20170  Biso   1.000  C
  C32      1.0000 0.32630  0.47830  0.79830  Biso   1.000  C
  C33      1.0000 0.48910  0.67900  0.03570  Biso   1.000  C
  C34      1.0000 0.51090  0.32100  0.96430  Biso   1.000  C
  C35      1.0000 0.50810  0.35210  0.29600  Biso   1.000  C
  C36      1.0000 0.49190  0.64790  0.70400  Biso   1.000  C
  N59      1.0000 0.80570  0.22760  0.41210  Biso   1.000  N
  N60      1.0000 0.19430  0.77240  0.58790  Biso   1.000  N
  C37      1.0000 0.87680  0.23710  0.40590  Biso   1.000  C
  C38      1.0000 0.12320  0.76290  0.59410  Biso   1.000  C
  N61      1.0000 0.21060  0.80880  0.25070  Biso   1.000  N
  N62      1.0000 0.78940  0.19120  0.74930  Biso   1.000  N
  C39      1.0000 0.41050  0.87680  0.43140  Biso   1.000  C
  C40      1.0000 0.58950  0.12320  0.56860  Biso   1.000  C
  C41      1.0000 0.40070  0.87660  0.08230  Biso   1.000  C
  C42      1.0000 0.59930  0.12340  0.91770  Biso   1.000  C
  N63      1.0000 0.49260  0.23390  0.25190  Biso   1.000  N
  N64      1.0000 0.50740  0.76610  0.74810  Biso   1.000  N
  N65      1.0000 0.79210  0.22890  0.07640  Biso   1.000  N
  N66      1.0000 0.20790  0.77110  0.92360  Biso   1.000  N
  N67      1.0000 0.48120  0.80660  0.08000  Biso   1.000  N
  N68      1.0000 0.51880  0.19340  0.92000  Biso   1.000  N
  O1       1.0000 0.87020  0.30650  0.40270  Biso   1.000  O
  O2       1.0000 0.12980  0.69350  0.59730  Biso   1.000  O
  O3       1.0000 0.33410  0.86890  0.08890  Biso   1.000  O
  O4       1.0000 0.66590  0.13110  0.91110  Biso   1.000  O
  N69      1.0000 0.21070  0.49360  0.09060  Biso   1.000  N
  N70      1.0000 0.78930  0.50640  0.90940  Biso   1.000  N
  C43      1.0000 0.14700  0.41050  0.43230  Biso   1.000  C
  C44      1.0000 0.85300  0.58950  0.56770  Biso   1.000  C
  C45      1.0000 0.21380  0.41770  0.09640  Biso   1.000  C
  C46      1.0000 0.78620  0.58230  0.90360  Biso   1.000  C
  C47      1.0000 0.22730  0.41390  0.42900  Biso   1.000  C
  C48      1.0000 0.77270  0.58610  0.57100  Biso   1.000  C
  O5       1.0000 0.29940  0.34730  0.43110  Biso   1.000  O
  O6       1.0000 0.70060  0.65270  0.56890  Biso   1.000  O
  N71      1.0000 0.48830  0.80450  0.42040  Biso   1.000  N
  N72      1.0000 0.51170  0.19550  0.57960  Biso   1.000  N
  C49      1.0000 0.95990  0.15930  0.40670  Biso   1.000  C
  C50      1.0000 0.04010  0.84070  0.59330  Biso   1.000  C
  C51      1.0000 0.86550  0.23320  0.06560  Biso   1.000  C
  C52      1.0000 0.13450  0.76680  0.93440  Biso   1.000  C
  C53      1.0000 0.40700  0.95880  0.43860  Biso   1.000  C
  C54      1.0000 0.59300  0.04120  0.56140  Biso   1.000  C
  C55      1.0000 0.86880  0.43520  0.24770  Biso   1.000  C
  C56      1.0000 0.13120  0.56480  0.75230  Biso   1.000  C
  C57      1.0000 0.40790  0.25210  0.26240  Biso   1.000  C
  C58      1.0000 0.59210  0.74790  0.73760  Biso   1.000  C
  O7       1.0000 0.28260  0.35220  0.10000  Biso   1.000  O
  O8       1.0000 0.71740  0.64780  0.90000  Biso   1.000  O
  C59      1.0000 0.39400  0.96140  0.07820  Biso   1.000  C
  C60      1.0000 0.60600  0.03860  0.92180  Biso   1.000  C
  C61      1.0000 0.22150  0.87740  0.24450  Biso   1.000  C
  C62      1.0000 0.77850  0.12260  0.75550  Biso   1.000  C
  O9       1.0000 0.34280  0.87230  0.43640  Biso   1.000  O
  O10      1.0000 0.65720  0.12770  0.56360  Biso   1.000  O
  O11      1.0000 0.86130  0.30370  0.05540  Biso   1.000  O
  O12      1.0000 0.13870  0.69630  0.94460  Biso   1.000  O
  C63      1.0000 0.33520  0.02300  0.47370  Biso   1.000  C
  C64      1.0000 0.66480  0.97700  0.52630  Biso   1.000  C
  C65      1.0000 0.94900  0.15300  0.05910  Biso   1.000  C
  C66      1.0000 0.05100  0.84700  0.94090  Biso   1.000  C
  O13      1.0000 0.85730  0.36920  0.24540  Biso   1.000  O
  O14      1.0000 0.14270  0.63080  0.75460  Biso   1.000  O
  C67      1.0000 0.05820  0.48410  0.08170  Biso   1.000  C
  C68      1.0000 0.94180  0.51590  0.91830  Biso   1.000  C
  C69      1.0000 0.13910  0.41040  0.09210  Biso   1.000  C
  C70      1.0000 0.86090  0.58960  0.90790  Biso   1.000  C
  C71      1.0000 0.39600  0.17620  0.26660  Biso   1.000  C
  C72      1.0000 0.60400  0.82380  0.73340  Biso   1.000  C
  C73      1.0000 0.30960  0.19590  0.28000  Biso   1.000  C
  C74      1.0000 0.69040  0.80410  0.72000  Biso   1.000  C
  C75      1.0000 0.28830  0.13100  0.27900  Biso   1.000  C
  C76      1.0000 0.71170  0.86900  0.72100  Biso   1.000  C
  C77      1.0000 0.35300  0.04600  0.26460  Biso   1.000  C
  C78      1.0000 0.64700  0.95400  0.73540  Biso   1.000  C
  C79      1.0000 0.43900  0.02620  0.25140  Biso   1.000  C
  C80      1.0000 0.56100  0.97380  0.74860  Biso   1.000  C
  C81      1.0000 0.46010  0.09140  0.25240  Biso   1.000  C
  C82      1.0000 0.53990  0.90860  0.74760  Biso   1.000  C
  C83      1.0000 0.44800  0.06000  0.08240  Biso   1.000  C
  C84      1.0000 0.55200  0.94000  0.91760  Biso   1.000  C
  C85      1.0000 0.95770  0.08030  0.08530  Biso   1.000  C
  C86      1.0000 0.04230  0.91970  0.91470  Biso   1.000  C
  C87      1.0000 0.46500  0.97400  0.08600  Biso   1.000  C
  C88      1.0000 0.53500  0.02600  0.91400  Biso   1.000  C
  C89      1.0000 0.07020  0.47680  0.41550  Biso   1.000  C
  C90      1.0000 0.92980  0.52320  0.58450  Biso   1.000  C
  C91      1.0000 0.47750  0.97110  0.41630  Biso   1.000  C
  C92      1.0000 0.52250  0.02890  0.58370  Biso   1.000  C
  C93      1.0000 0.01140  0.16040  0.02180  Biso   1.000  C
  C94      1.0000 0.98860  0.83960  0.97820  Biso   1.000  C
  O15      1.0000 0.29070  0.87120  0.24030  Biso   1.000  O
  O16      1.0000 0.70930  0.12880  0.75970  Biso   1.000  O
  C95      1.0000 0.06500  0.33600  0.46030  Biso   1.000  C
  C96      1.0000 0.93500  0.66400  0.53970  Biso   1.000  C
  C97      1.0000 0.14680  0.34130  0.45420  Biso   1.000  C
  C98      1.0000 0.85320  0.65870  0.54580  Biso   1.000  C
  C99      1.0000 0.14420  0.96540  0.24000  Biso   1.000  C
  C100     1.0000 0.85580  0.03460  0.76000  Biso   1.000  C
  C101     1.0000 0.15380  0.02990  0.21190  Biso   1.000  C
  C102     1.0000 0.84620  0.97010  0.78810  Biso   1.000  C
  C103     1.0000 0.08100  0.10810  0.20240  Biso   1.000  C
  C104     1.0000 0.91900  0.89190  0.79760  Biso   1.000  C
  C105     1.0000 0.99820  0.12160  0.22110  Biso   1.000  C
  C106     1.0000 0.00180  0.87840  0.77890  Biso   1.000  C
  C107     1.0000 0.98860  0.05710  0.24920  Biso   1.000  C
  C108     1.0000 0.01140  0.94290  0.75080  Biso   1.000  C
  C109     1.0000 0.06160  0.97890  0.25860  Biso   1.000  C
  C110     1.0000 0.93840  0.02110  0.74140  Biso   1.000  C
  C111     1.0000 0.46590  0.05140  0.42660  Biso   1.000  C
  C112     1.0000 0.53410  0.94860  0.57340  Biso   1.000  C
  C113     1.0000 0.99450  0.47120  0.41850  Biso   1.000  C
  C114     1.0000 0.00550  0.52880  0.58150  Biso   1.000  C
  C115     1.0000 0.04200  0.00300  0.07510  Biso   1.000  C
  C116     1.0000 0.95800  0.99700  0.92490  Biso   1.000  C
  C117     1.0000 0.96910  0.07860  0.41890  Biso   1.000  C
  C118     1.0000 0.03090  0.92140  0.58110  Biso   1.000  C
  C119     1.0000 0.13900  0.33400  0.11130  Biso   1.000  C
  C120     1.0000 0.86100  0.66600  0.88870  Biso   1.000  C
  C121     1.0000 0.33720  0.10500  0.48150  Biso   1.000  C
  C122     1.0000 0.66280  0.89500  0.51850  Biso   1.000  C
  O17      1.0000 0.35290  0.32210  0.27120  Biso   1.000  O
  O18      1.0000 0.64710  0.67790  0.72880  Biso   1.000  O
  C123     1.0000 0.10800  0.99500  0.04130  Biso   1.000  C
  C124     1.0000 0.89200  0.00500  0.95870  Biso   1.000  C
  C125     1.0000 0.31100  0.11600  0.06400  Biso   1.000  C
  C126     1.0000 0.68900  0.88400  0.93600  Biso   1.000  C
  C127     1.0000 0.99230  0.40500  0.44500  Biso   1.000  C
  C128     1.0000 0.00770  0.59500  0.55500  Biso   1.000  C
  C129     1.0000 0.10600  0.06300  0.01550  Biso   1.000  C
  C130     1.0000 0.89400  0.93700  0.98450  Biso   1.000  C
  C131     1.0000 0.39740  0.11380  0.45690  Biso   1.000  C
  C132     1.0000 0.60260  0.88620  0.54310  Biso   1.000  C
  C133     1.0000 0.03500  0.17000  0.39080  Biso   1.000  C
  C134     1.0000 0.96500  0.83000  0.60920  Biso   1.000  C
  C135     1.0000 0.38700  0.11800  0.05800  Biso   1.000  C
  C136     1.0000 0.61300  0.88200  0.94200  Biso   1.000  C
  C137     1.0000 0.94950  0.43250  0.25450  Biso   1.000  C
  C138     1.0000 0.05050  0.56750  0.74550  Biso   1.000  C
  C139     1.0000 0.96620  0.49960  0.24180  Biso   1.000  C
  C140     1.0000 0.03380  0.50040  0.75820  Biso   1.000  C
  C141     1.0000 0.04750  0.48940  0.24810  Biso   1.000  C
  C142     1.0000 0.95250  0.51060  0.75190  Biso   1.000  C
  C143     1.0000 0.11210  0.41210  0.26710  Biso   1.000  C
  C144     1.0000 0.88790  0.58790  0.73290  Biso   1.000  C
  C145     1.0000 0.09540  0.34500  0.27980  Biso   1.000  C
  C146     1.0000 0.90460  0.65500  0.72020  Biso   1.000  C
  C147     1.0000 0.01410  0.35510  0.27340  Biso   1.000  C
  C148     1.0000 0.98590  0.64490  0.72660  Biso   1.000  C
  O19      1.0000 0.24920  0.51860  0.58660  Biso   1.000  O
  O20      1.0000 0.75080  0.48140  0.41340  Biso   1.000  O
  O21      1.0000 0.47480  0.28820  0.41410  Biso   1.000  O
  O22      1.0000 0.52520  0.71180  0.58590  Biso   1.000  O
  O23      1.0000 0.27400  0.75370  0.08240  Biso   1.000  O
  O24      1.0000 0.72600  0.24630  0.91760  Biso   1.000  O
  O25      1.0000 0.74770  0.47780  0.07090  Biso   1.000  O
  O26      1.0000 0.25230  0.52220  0.92910  Biso   1.000  O
  O27      1.0000 0.28930  0.75400  0.42530  Biso   1.000  O
  O28      1.0000 0.71070  0.24600  0.57470  Biso   1.000  O
  O29      1.0000 0.45810  0.29860  0.09410  Biso   1.000  O
  O30      1.0000 0.54190  0.70140  0.90590  Biso   1.000  O
  O31      1.0000 0.46860  0.76340  0.25050  Biso   1.000  O
  O32      1.0000 0.53140  0.23660  0.74950  Biso   1.000  O
  O33      1.0000 0.23010  0.55930  0.26390  Biso   1.000  O
  O34      1.0000 0.76990  0.44070  0.73610  Biso   1.000  O
  O35      1.0000 0.75240  0.29920  0.23940  Biso   1.000  O
  O36      1.0000 0.24760  0.70080  0.76060  Biso   1.000  O
  F1       1.0000 0.75870  0.95440  0.38600  Biso   1.000  F
  F2       1.0000 0.24130  0.04560  0.61400  Biso   1.000  F
  S1       1.0000 0.66750  0.12060  0.10590  Biso   1.000  S
  S2       1.0000 0.33250  0.87940  0.89410  Biso   1.000  S
  F3       1.0000 0.16780  0.69200  0.36870  Biso   1.000  F
  F4       1.0000 0.83220  0.30800  0.63130  Biso   1.000  F
  O37      1.0000 0.60000  0.13900  0.06800  Biso   1.000  O
  O38      1.0000 0.40000  0.86100  0.93200  Biso   1.000  O
  O39      1.0000 0.64860  0.18030  0.15440  Biso   1.000  O
  O40      1.0000 0.35140  0.81970  0.84560  Biso   1.000  O
  S3       1.0000 0.72480  0.69250  0.36690  Biso   1.000  S
  S4       1.0000 0.27520  0.30750  0.63310  Biso   1.000  S
  O41      1.0000 0.73550  0.11600  0.06260  Biso   1.000  O
  O42      1.0000 0.26450  0.88400  0.93740  Biso   1.000  O
  O43      1.0000 0.18100  0.24000  0.60680  Biso   1.000  O
  O44      1.0000 0.81900  0.76000  0.39320  Biso   1.000  O
  F5       1.0000 0.76200  0.61960  0.05050  Biso   1.000  F
  F6       1.0000 0.23800  0.38040  0.94950  Biso   1.000  F
  F7       1.0000 0.72820  0.95500  0.08790  Biso   1.000  F
  F8       1.0000 0.27180  0.04500  0.91210  Biso   1.000  F
  C149     1.0000 0.05300  0.00200  0.42820  Biso   1.000  C
  C150     1.0000 0.94700  0.99800  0.57180  Biso   1.000  C
  C151     1.0000 0.12600  0.01400  0.40810  Biso   1.000  C
  C152     1.0000 0.87400  0.98600  0.59190  Biso   1.000  C
  C153     1.0000 0.99100  0.39900  0.09170  Biso   1.000  C
  C154     1.0000 0.00900  0.60100  0.90830  Biso   1.000  C
  O45      1.0000 0.94100  0.81900  0.43950  Biso   1.000  O
  O46      1.0000 0.05900  0.18100  0.56050  Biso   1.000  O
  C155     1.0000 0.98300  0.47500  0.07860  Biso   1.000  C
  C156     1.0000 0.01700  0.52500  0.92140  Biso   1.000  C
  F9       1.0000 0.65930  0.75330  0.05950  Biso   1.000  F
  F10      1.0000 0.34070  0.24670  0.94050  Biso   1.000  F
  C157     1.0000 0.31800  0.03100  0.05800  Biso   1.000  C
  C158     1.0000 0.68200  0.96900  0.94200  Biso   1.000  C
  C159     1.0000 0.06700  0.32400  0.11100  Biso   1.000  C
  C160     1.0000 0.93300  0.67600  0.88900  Biso   1.000  C
  C161     1.0000 0.12500  0.09800  0.39340  Biso   1.000  C
  C162     1.0000 0.87500  0.90200  0.60660  Biso   1.000  C
  O47      1.0000 0.00980  0.85850  0.35720  Biso   1.000  O
  O48      1.0000 0.99020  0.14150  0.64280  Biso   1.000  O
  S5       1.0000 0.00880  0.78900  0.39060  Biso   1.000  S
  S6       1.0000 0.99120  0.21100  0.60940  Biso   1.000  S
  F11      1.0000 0.11800  0.76400  0.10710  Biso   1.000  F
  F12      1.0000 0.88200  0.23600  0.89290  Biso   1.000  F
  S7       1.0000 0.98270  0.80830  0.17450  Biso   1.000  S
  S8       1.0000 0.01730  0.19170  0.82550  Biso   1.000  S
  F13      1.0000 0.12700  0.74200  0.19110  Biso   1.000  F
  F14      1.0000 0.87300  0.25800  0.80890  Biso   1.000  F
  F15      1.0000 0.66860  0.69000  0.13250  Biso   1.000  F
  F16      1.0000 0.33140  0.31000  0.86750  Biso   1.000  F
  O49      1.0000 0.76200  0.78400  0.12900  Biso   1.000  O
  O50      1.0000 0.23800  0.21600  0.87100  Biso   1.000  O
  O51      1.0000 0.84500  0.67300  0.13230  Biso   1.000  O
  O52      1.0000 0.15500  0.32700  0.86770  Biso   1.000  O
  C163     1.0000 0.11080  0.72320  0.41420  Biso   1.000  C
  C164     1.0000 0.88920  0.27680  0.58580  Biso   1.000  C
  C165     1.0000 0.69600  0.01630  0.12820  Biso   1.000  C
  C166     1.0000 0.30400  0.98370  0.87180  Biso   1.000  C
  C167     1.0000 0.71470  0.68700  0.08520  Biso   1.000  C
  C168     1.0000 0.28530  0.31300  0.91480  Biso   1.000  C
  O53      1.0000 0.95500  0.90000  0.17290  Biso   1.000  O
  O54      1.0000 0.04500  0.10000  0.82710  Biso   1.000  O
  C169     1.0000 0.08980  0.73280  0.14910  Biso   1.000  C
  C170     1.0000 0.91020  0.26720  0.85090  Biso   1.000  C
  O55      1.0000 0.86000  0.73900  0.05700  Biso   1.000  O
  O56      1.0000 0.14000  0.26100  0.94300  Biso   1.000  O
  S9       1.0000 0.79600  0.71500  0.08300  Biso   1.000  S
  S10      1.0000 0.20400  0.28500  0.91700  Biso   1.000  S
  F17      1.0000 0.09470  0.66780  0.44170  Biso   1.000  F
  F18      1.0000 0.90530  0.33220  0.55830  Biso   1.000  F
  F19      1.0000 0.12820  0.77100  0.44620  Biso   1.000  F
  F20      1.0000 0.87180  0.22900  0.55380  Biso   1.000  F
  O57      1.0000 0.93800  0.81700  0.12280  Biso   1.000  O
  O58      1.0000 0.06200  0.18300  0.87720  Biso   1.000  O
  F21      1.0000 0.75800  0.00000  0.15980  Biso   1.000  F
  F22      1.0000 0.24200  0.00000  0.84020  Biso   1.000  F
  F23      1.0000 0.09700  0.65750  0.15380  Biso   1.000  F
  F24      1.0000 0.90300  0.34250  0.84620  Biso   1.000  F
  F25      1.0000 0.62900  0.01400  0.15310  Biso   1.000  F
  F26      1.0000 0.37100  0.98600  0.84690  Biso   1.000  F
  O59      1.0000 0.99000  0.73800  0.35080  Biso   1.000  O
  O60      1.0000 0.01000  0.26200  0.64920  Biso   1.000  O
  O61      1.0000 0.94500  0.75800  0.20160  Biso   1.000  O
  O62      1.0000 0.05500  0.24200  0.79840  Biso   1.000  O
  S11      1.0000 0.68720  0.11660  0.36990  Biso   1.000  S
  S12      1.0000 0.31280  0.88340  0.63010  Biso   1.000  S
  O63      1.0000 0.63240  0.12500  0.42350  Biso   1.000  O
  O64      1.0000 0.36760  0.87500  0.57650  Biso   1.000  O
  C171     1.0000 0.71200  0.01160  0.35050  Biso   1.000  C
  C172     1.0000 0.28800  0.98840  0.64950  Biso   1.000  C
  F27      1.0000 0.66500  0.00200  0.31510  Biso   1.000  F
  F28      1.0000 0.33500  0.99800  0.68490  Biso   1.000  F
  F29      1.0000 0.78600  0.98200  0.31890  Biso   1.000  F
  F30      1.0000 0.21400  0.01800  0.68110  Biso   1.000  F
  O65      1.0000 0.64200  0.13400  0.31730  Biso   1.000  O
  O66      1.0000 0.35800  0.86600  0.68270  Biso   1.000  O
  O67      1.0000 0.70300  0.16700  0.32520  Biso   1.000  O
  O68      1.0000 0.29700  0.83300  0.67480  Biso   1.000  O
  O69      1.0000 0.66130  0.74830  0.41400  Biso   1.000  O
  O70      1.0000 0.33870  0.25170  0.58600  Biso   1.000  O
  O71      1.0000 0.78570  0.61550  0.39610  Biso   1.000  O
  O72      1.0000 0.21430  0.38450  0.60390  Biso   1.000  O
  C173     1.0000 0.66700  0.68300  0.31480  Biso   1.000  C
  C174     1.0000 0.33300  0.31700  0.68520  Biso   1.000  C
