data_image0
_cell_length_a       8.031
_cell_length_b       20.928
_cell_length_c       15.095
_cell_angle_alpha    90
_cell_angle_beta     94.29
_cell_angle_gamma    90

_symmetry_space_group_name_H-M    "P 1"
_symmetry_int_tables_number       1

loop_
  _symmetry_equiv_pos_as_xyz
  'x, y, z'

loop_
  _atom_site_label
  _atom_site_occupancy
  _atom_site_fract_x
  _atom_site_fract_y
  _atom_site_fract_z
  _atom_site_thermal_displace_type
  _atom_site_B_iso_or_equiv
  _atom_site_type_symbol
  Cu1      1.0000 0.28140  0.23569  0.73509  Biso   1.000  Cu
  Cu2      1.0000 0.71860  0.73569  0.76491  Biso   1.000  Cu
  Cu3      1.0000 0.71860  0.76431  0.26491  Biso   1.000  Cu
  Cu4      1.0000 0.28140  0.26431  0.23509  Biso   1.000  Cu
  F1       1.0000 0.86820  0.36360  0.59800  Biso   1.000  F
  F2       1.0000 0.13180  0.86360  0.90200  Biso   1.000  F
  F3       1.0000 0.13180  0.63640  0.40200  Biso   1.000  F
  F4       1.0000 0.86820  0.13640  0.09800  Biso   1.000  F
  F5       1.0000 0.99700  0.33340  0.48960  Biso   1.000  F
  F6       1.0000 0.00300  0.83340  0.01040  Biso   1.000  F
  F7       1.0000 0.00300  0.66660  0.51040  Biso   1.000  F
  F8       1.0000 0.99700  0.16660  0.98960  Biso   1.000  F
  F9       1.0000 0.02220  0.42800  0.53660  Biso   1.000  F
  F10      1.0000 0.97780  0.92800  0.96340  Biso   1.000  F
  F11      1.0000 0.97780  0.57200  0.46340  Biso   1.000  F
  F12      1.0000 0.02220  0.07200  0.03660  Biso   1.000  F
  F13      1.0000 0.46230  0.43470  0.86000  Biso   1.000  F
  F14      1.0000 0.53770  0.93470  0.64000  Biso   1.000  F
  F15      1.0000 0.53770  0.56530  0.14000  Biso   1.000  F
  F16      1.0000 0.46230  0.06530  0.36000  Biso   1.000  F
  F17      1.0000 0.43760  0.48900  0.74630  Biso   1.000  F
  F18      1.0000 0.56240  0.98900  0.75370  Biso   1.000  F
  F19      1.0000 0.56240  0.51100  0.25370  Biso   1.000  F
  F20      1.0000 0.43760  0.01100  0.24630  Biso   1.000  F
  F21      1.0000 0.63960  0.42740  0.76990  Biso   1.000  F
  F22      1.0000 0.36040  0.92740  0.73010  Biso   1.000  F
  F23      1.0000 0.36040  0.57260  0.23010  Biso   1.000  F
  F24      1.0000 0.63960  0.07260  0.26990  Biso   1.000  F
  F25      1.0000 0.95200  0.03000  0.82100  Biso   1.000  F
  F26      1.0000 0.04800  0.53000  0.67900  Biso   1.000  F
  F27      1.0000 0.04800  0.97000  0.17900  Biso   1.000  F
  F28      1.0000 0.95200  0.47000  0.32100  Biso   1.000  F
  F29      1.0000 0.00400  0.03100  0.67600  Biso   1.000  F
  F30      1.0000 0.99600  0.53100  0.82400  Biso   1.000  F
  F31      1.0000 0.99600  0.96900  0.32400  Biso   1.000  F
  F32      1.0000 0.00400  0.46900  0.17600  Biso   1.000  F
  F33      1.0000 0.83700  0.09500  0.74400  Biso   1.000  F
  F34      1.0000 0.16300  0.59500  0.75600  Biso   1.000  F
  F35      1.0000 0.16300  0.90500  0.25600  Biso   1.000  F
  F36      1.0000 0.83700  0.40500  0.24400  Biso   1.000  F
  F37      1.0000 0.44300  0.05300  0.96900  Biso   1.000  F
  F38      1.0000 0.55700  0.55300  0.53100  Biso   1.000  F
  F39      1.0000 0.55700  0.94700  0.03100  Biso   1.000  F
  F40      1.0000 0.44300  0.44700  0.46900  Biso   1.000  F
  F41      1.0000 0.63800  0.10200  0.90600  Biso   1.000  F
  F42      1.0000 0.36200  0.60200  0.59400  Biso   1.000  F
  F43      1.0000 0.36200  0.89800  0.09400  Biso   1.000  F
  F44      1.0000 0.63800  0.39800  0.40600  Biso   1.000  F
  F45      1.0000 0.52400  0.13800  0.00300  Biso   1.000  F
  F46      1.0000 0.47600  0.63800  0.49700  Biso   1.000  F
  F47      1.0000 0.47600  0.86200  0.99700  Biso   1.000  F
  F48      1.0000 0.52400  0.36200  0.50300  Biso   1.000  F
  F49      1.0000 0.91000  0.05400  0.67800  Biso   1.000  F
  F50      1.0000 0.09000  0.55400  0.82200  Biso   1.000  F
  F51      1.0000 0.09000  0.94600  0.32200  Biso   1.000  F
  F52      1.0000 0.91000  0.44600  0.17800  Biso   1.000  F
  F53      1.0000 0.86600  0.06200  0.79500  Biso   1.000  F
  F54      1.0000 0.13400  0.56200  0.70500  Biso   1.000  F
  F55      1.0000 0.13400  0.93800  0.20500  Biso   1.000  F
  F56      1.0000 0.86600  0.43800  0.29500  Biso   1.000  F
  F57      1.0000 0.03500  0.99700  0.77400  Biso   1.000  F
  F58      1.0000 0.96500  0.49700  0.72600  Biso   1.000  F
  F59      1.0000 0.96500  0.00300  0.22600  Biso   1.000  F
  F60      1.0000 0.03500  0.50300  0.27400  Biso   1.000  F
  F61      1.0000 0.46300  0.12300  0.00600  Biso   1.000  F
  F62      1.0000 0.53700  0.62300  0.49400  Biso   1.000  F
  F63      1.0000 0.53700  0.87700  0.99400  Biso   1.000  F
  F64      1.0000 0.46300  0.37700  0.50600  Biso   1.000  F
  F65      1.0000 0.55500  0.04900  0.92400  Biso   1.000  F
  F66      1.0000 0.44500  0.54900  0.57600  Biso   1.000  F
  F67      1.0000 0.44500  0.95100  0.07600  Biso   1.000  F
  F68      1.0000 0.55500  0.45100  0.42400  Biso   1.000  F
  F69      1.0000 0.66000  0.13300  0.92500  Biso   1.000  F
  F70      1.0000 0.34000  0.63300  0.57500  Biso   1.000  F
  F71      1.0000 0.34000  0.86700  0.07500  Biso   1.000  F
  F72      1.0000 0.66000  0.36700  0.42500  Biso   1.000  F
  O1       1.0000 0.15470  0.28580  0.63640  Biso   1.000  O
  O2       1.0000 0.84530  0.78580  0.86360  Biso   1.000  O
  O3       1.0000 0.84530  0.71420  0.36360  Biso   1.000  O
  O4       1.0000 0.15470  0.21420  0.13640  Biso   1.000  O
  O5       1.0000 0.43800  0.32320  0.75700  Biso   1.000  O
  O6       1.0000 0.56200  0.82320  0.74300  Biso   1.000  O
  O7       1.0000 0.56200  0.67680  0.24300  Biso   1.000  O
  O8       1.0000 0.43800  0.17680  0.25700  Biso   1.000  O
  O9       1.0000 0.11450  0.15390  0.71670  Biso   1.000  O
  O10      1.0000 0.88550  0.65390  0.78330  Biso   1.000  O
  O11      1.0000 0.88550  0.84610  0.28330  Biso   1.000  O
  O12      1.0000 0.11450  0.34610  0.21670  Biso   1.000  O
  O13      1.0000 0.41260  0.18690  0.83250  Biso   1.000  O
  O14      1.0000 0.58740  0.68690  0.66750  Biso   1.000  O
  O15      1.0000 0.58740  0.81310  0.16750  Biso   1.000  O
  O16      1.0000 0.41260  0.31310  0.33250  Biso   1.000  O
  N1       1.0000 0.43900  0.20180  0.64890  Biso   1.000  N
  N2       1.0000 0.56100  0.70180  0.85110  Biso   1.000  N
  N3       1.0000 0.56100  0.79820  0.35110  Biso   1.000  N
  N4       1.0000 0.43900  0.29820  0.14890  Biso   1.000  N
  N5       1.0000 0.80800  0.06440  0.47790  Biso   1.000  N
  N6       1.0000 0.19200  0.56440  0.02210  Biso   1.000  N
  N7       1.0000 0.19200  0.93560  0.52210  Biso   1.000  N
  N8       1.0000 0.80800  0.43560  0.97790  Biso   1.000  N
  N9       1.0000 0.81200  0.01140  0.47450  Biso   1.000  N
  N10      1.0000 0.18800  0.51140  0.02550  Biso   1.000  N
  N11      1.0000 0.18800  0.98860  0.52550  Biso   1.000  N
  N12      1.0000 0.81200  0.48860  0.97450  Biso   1.000  N
  N13      1.0000 0.12400  0.27230  0.82440  Biso   1.000  N
  N14      1.0000 0.87600  0.77230  0.67560  Biso   1.000  N
  N15      1.0000 0.87600  0.72770  0.17560  Biso   1.000  N
  N16      1.0000 0.12400  0.22770  0.32440  Biso   1.000  N
  C1       1.0000 0.54500  0.23810  0.60960  Biso   1.000  C
  C2       1.0000 0.45500  0.73810  0.89040  Biso   1.000  C
  C3       1.0000 0.45500  0.76190  0.39040  Biso   1.000  C
  C4       1.0000 0.54500  0.26190  0.10960  Biso   1.000  C
  C5       1.0000 0.66000  0.21550  0.55410  Biso   1.000  C
  C6       1.0000 0.34000  0.71550  0.94590  Biso   1.000  C
  C7       1.0000 0.34000  0.78450  0.44590  Biso   1.000  C
  C8       1.0000 0.66000  0.28450  0.05410  Biso   1.000  C
  C9       1.0000 0.67000  0.15190  0.53550  Biso   1.000  C
  C10      1.0000 0.33000  0.65190  0.96450  Biso   1.000  C
  C11      1.0000 0.33000  0.84810  0.46450  Biso   1.000  C
  C12      1.0000 0.67000  0.34810  0.03550  Biso   1.000  C
  C13      1.0000 0.55600  0.11280  0.57510  Biso   1.000  C
  C14      1.0000 0.44400  0.61280  0.92490  Biso   1.000  C
  C15      1.0000 0.44400  0.88720  0.42490  Biso   1.000  C
  C16      1.0000 0.55600  0.38720  0.07510  Biso   1.000  C
  C17      1.0000 0.44800  0.14050  0.63040  Biso   1.000  C
  C18      1.0000 0.55200  0.64050  0.86960  Biso   1.000  C
  C19      1.0000 0.55200  0.85950  0.36960  Biso   1.000  C
  C20      1.0000 0.44800  0.35950  0.13040  Biso   1.000  C
  C21      1.0000 0.79400  0.12670  0.47980  Biso   1.000  C
  C22      1.0000 0.20600  0.62670  0.02020  Biso   1.000  C
  C23      1.0000 0.20600  0.87330  0.52020  Biso   1.000  C
  C24      1.0000 0.79400  0.37330  0.97980  Biso   1.000  C
  C25      1.0000 0.18000  0.19420  0.39440  Biso   1.000  C
  C26      1.0000 0.82000  0.69420  0.10560  Biso   1.000  C
  C27      1.0000 0.82000  0.80580  0.60560  Biso   1.000  C
  C28      1.0000 0.18000  0.30580  0.89440  Biso   1.000  C
  C29      1.0000 0.07600  0.16210  0.44710  Biso   1.000  C
  C30      1.0000 0.92400  0.66210  0.05290  Biso   1.000  C
  C31      1.0000 0.92400  0.83790  0.55290  Biso   1.000  C
  C32      1.0000 0.07600  0.33790  0.94710  Biso   1.000  C
  C33      1.0000 0.90900  0.16420  0.42800  Biso   1.000  C
  C34      1.0000 0.09100  0.66420  0.07200  Biso   1.000  C
  C35      1.0000 0.09100  0.83580  0.57200  Biso   1.000  C
  C36      1.0000 0.90900  0.33580  0.92800  Biso   1.000  C
  C37      1.0000 0.84800  0.20030  0.35850  Biso   1.000  C
  C38      1.0000 0.15200  0.70030  0.14150  Biso   1.000  C
  C39      1.0000 0.15200  0.79970  0.64150  Biso   1.000  C
  C40      1.0000 0.84800  0.29970  0.85850  Biso   1.000  C
  C41      1.0000 0.95900  0.23290  0.30930  Biso   1.000  C
  C42      1.0000 0.04100  0.73290  0.19070  Biso   1.000  C
  C43      1.0000 0.04100  0.76710  0.69070  Biso   1.000  C
  C44      1.0000 0.95900  0.26710  0.80930  Biso   1.000  C
  C45      1.0000 0.01300  0.36750  0.56300  Biso   1.000  C
  C46      1.0000 0.98700  0.86750  0.93700  Biso   1.000  C
  C47      1.0000 0.98700  0.63250  0.43700  Biso   1.000  C
  C48      1.0000 0.01300  0.13250  0.06300  Biso   1.000  C
  C49      1.0000 0.15100  0.34500  0.62760  Biso   1.000  C
  C50      1.0000 0.84900  0.84500  0.87240  Biso   1.000  C
  C51      1.0000 0.84900  0.65500  0.37240  Biso   1.000  C
  C52      1.0000 0.15100  0.15500  0.12760  Biso   1.000  C
  C53      1.0000 0.25200  0.39030  0.67110  Biso   1.000  C
  C54      1.0000 0.74800  0.89030  0.82890  Biso   1.000  C
  C55      1.0000 0.74800  0.60970  0.32890  Biso   1.000  C
  C56      1.0000 0.25200  0.10970  0.17110  Biso   1.000  C
  C57      1.0000 0.38600  0.37540  0.73220  Biso   1.000  C
  C58      1.0000 0.61400  0.87540  0.76780  Biso   1.000  C
  C59      1.0000 0.61400  0.62460  0.26780  Biso   1.000  C
  C60      1.0000 0.38600  0.12460  0.23220  Biso   1.000  C
  C61      1.0000 0.47900  0.43060  0.77200  Biso   1.000  C
  C62      1.0000 0.52100  0.93060  0.72800  Biso   1.000  C
  C63      1.0000 0.52100  0.56940  0.22800  Biso   1.000  C
  C64      1.0000 0.47900  0.06940  0.27200  Biso   1.000  C
  C65      1.0000 0.98800  0.05700  0.75000  Biso   1.000  C
  C66      1.0000 0.01200  0.55700  0.75000  Biso   1.000  C
  C67      1.0000 0.01200  0.94300  0.25000  Biso   1.000  C
  C68      1.0000 0.98800  0.44300  0.25000  Biso   1.000  C
  C69      1.0000 0.12300  0.10720  0.76650  Biso   1.000  C
  C70      1.0000 0.87700  0.60720  0.73350  Biso   1.000  C
  C71      1.0000 0.87700  0.89280  0.23350  Biso   1.000  C
  C72      1.0000 0.12300  0.39280  0.26650  Biso   1.000  C
  C73      1.0000 0.24700  0.09260  0.83370  Biso   1.000  C
  C74      1.0000 0.75300  0.59260  0.66630  Biso   1.000  C
  C75      1.0000 0.75300  0.90740  0.16630  Biso   1.000  C
  C76      1.0000 0.24700  0.40740  0.33370  Biso   1.000  C
  C77      1.0000 0.38400  0.13200  0.86130  Biso   1.000  C
  C78      1.0000 0.61600  0.63200  0.63870  Biso   1.000  C
  C79      1.0000 0.61600  0.86800  0.13870  Biso   1.000  C
  C80      1.0000 0.38400  0.36800  0.36130  Biso   1.000  C
  C81      1.0000 0.50700  0.10700  0.93000  Biso   1.000  C
  C82      1.0000 0.49300  0.60700  0.57000  Biso   1.000  C
  C83      1.0000 0.49300  0.89300  0.07000  Biso   1.000  C
  C84      1.0000 0.50700  0.39300  0.43000  Biso   1.000  C
  H1       1.0000 0.54130  0.28280  0.62020  Biso   1.000  H
  H2       1.0000 0.45870  0.78280  0.87980  Biso   1.000  H
  H3       1.0000 0.45870  0.71720  0.37980  Biso   1.000  H
  H4       1.0000 0.54130  0.21720  0.12020  Biso   1.000  H
  H5       1.0000 0.73350  0.24470  0.52840  Biso   1.000  H
  H6       1.0000 0.26650  0.74470  0.97160  Biso   1.000  H
  H7       1.0000 0.26650  0.75530  0.47160  Biso   1.000  H
  H8       1.0000 0.73350  0.25530  0.02840  Biso   1.000  H
  H9       1.0000 0.55220  0.06810  0.56400  Biso   1.000  H
  H10      1.0000 0.44780  0.56810  0.93600  Biso   1.000  H
  H11      1.0000 0.44780  0.93190  0.43600  Biso   1.000  H
  H12      1.0000 0.55220  0.43190  0.06400  Biso   1.000  H
  H13      1.0000 0.37380  0.11290  0.65780  Biso   1.000  H
  H14      1.0000 0.62620  0.61290  0.84220  Biso   1.000  H
  H15      1.0000 0.62620  0.88710  0.34220  Biso   1.000  H
  H16      1.0000 0.37380  0.38710  0.15780  Biso   1.000  H
  H17      1.0000 0.29730  0.19230  0.40890  Biso   1.000  H
  H18      1.0000 0.70270  0.69230  0.09110  Biso   1.000  H
  H19      1.0000 0.70270  0.80770  0.59110  Biso   1.000  H
  H20      1.0000 0.29730  0.30770  0.90890  Biso   1.000  H
  H21      1.0000 0.12140  0.13830  0.49690  Biso   1.000  H
  H22      1.0000 0.87860  0.63830  0.00310  Biso   1.000  H
  H23      1.0000 0.87860  0.86170  0.50310  Biso   1.000  H
  H24      1.0000 0.12140  0.36170  0.99690  Biso   1.000  H
  H25      1.0000 0.73090  0.20310  0.34380  Biso   1.000  H
  H26      1.0000 0.26910  0.70310  0.15620  Biso   1.000  H
  H27      1.0000 0.26910  0.79690  0.65620  Biso   1.000  H
  H28      1.0000 0.73090  0.29690  0.84380  Biso   1.000  H
  H29      1.0000 0.91530  0.26010  0.26270  Biso   1.000  H
  H30      1.0000 0.08470  0.76010  0.23730  Biso   1.000  H
  H31      1.0000 0.08470  0.73990  0.73730  Biso   1.000  H
  H32      1.0000 0.91530  0.23990  0.76270  Biso   1.000  H
  H33      1.0000 0.22940  0.43410  0.65860  Biso   1.000  H
  H34      1.0000 0.77060  0.93410  0.84140  Biso   1.000  H
  H35      1.0000 0.77060  0.56590  0.34140  Biso   1.000  H
  H36      1.0000 0.22940  0.06590  0.15860  Biso   1.000  H
  H37      1.0000 0.23910  0.05280  0.86310  Biso   1.000  H
  H38      1.0000 0.76090  0.55280  0.63690  Biso   1.000  H
  H39      1.0000 0.76090  0.94720  0.13690  Biso   1.000  H
  H40      1.0000 0.23910  0.44720  0.36310  Biso   1.000  H
