data_image0
_cell_length_a       26.0992
_cell_length_b       26.0992
_cell_length_c       9.2584
_cell_angle_alpha    90
_cell_angle_beta     90
_cell_angle_gamma    120

_symmetry_space_group_name_H-M    "P 1"
_symmetry_int_tables_number       1

loop_
  _symmetry_equiv_pos_as_xyz
  'x, y, z'

loop_
  _atom_site_label
  _atom_site_occupancy
  _atom_site_fract_x
  _atom_site_fract_y
  _atom_site_fract_z
  _atom_site_thermal_displace_type
  _atom_site_B_iso_or_equiv
  _atom_site_type_symbol
  Cu1      1.0000 0.76629  0.00011  0.78871  Biso   1.000  Cu
  Cu2      1.0000 0.99989  0.76618  0.78871  Biso   1.000  Cu
  Cu3      1.0000 0.23382  0.23371  0.78871  Biso   1.000  Cu
  Cu4      1.0000 0.72875  0.86433  0.78848  Biso   1.000  Cu
  Cu5      1.0000 0.13567  0.86442  0.78848  Biso   1.000  Cu
  Cu6      1.0000 0.13558  0.27125  0.78848  Biso   1.000  Cu
  Cu7      1.0000 0.86437  0.13566  0.78859  Biso   1.000  Cu
  Cu8      1.0000 0.86434  0.72871  0.78859  Biso   1.000  Cu
  Cu9      1.0000 0.27129  0.13563  0.78859  Biso   1.000  Cu
  Cu10     1.0000 0.99989  0.23370  0.78848  Biso   1.000  Cu
  Cu11     1.0000 0.76630  0.76619  0.78848  Biso   1.000  Cu
  Cu12     1.0000 0.23381  0.00011  0.78848  Biso   1.000  Cu
  O1       1.0000 0.88580  0.60320  0.29410  Biso   1.000  O
  O2       1.0000 0.39680  0.28260  0.29410  Biso   1.000  O
  O3       1.0000 0.71740  0.11420  0.29410  Biso   1.000  O
  O4       1.0000 0.88470  0.28210  0.28430  Biso   1.000  O
  O5       1.0000 0.71790  0.60260  0.28430  Biso   1.000  O
  O6       1.0000 0.39740  0.11530  0.28430  Biso   1.000  O
  O7       1.0000 0.60350  0.88530  0.28440  Biso   1.000  O
  O8       1.0000 0.11470  0.71820  0.28440  Biso   1.000  O
  O9       1.0000 0.28180  0.39650  0.28440  Biso   1.000  O
  O10      1.0000 0.28110  0.88450  0.29290  Biso   1.000  O
  O11      1.0000 0.11550  0.39660  0.29290  Biso   1.000  O
  O12      1.0000 0.60340  0.71890  0.29290  Biso   1.000  O
  N1       1.0000 0.88400  0.55640  0.08460  Biso   1.000  N
  N2       1.0000 0.44360  0.32760  0.08460  Biso   1.000  N
  N3       1.0000 0.67240  0.11600  0.08460  Biso   1.000  N
  C1       1.0000 0.79010  0.19760  0.59560  Biso   1.000  C
  C2       1.0000 0.80240  0.59250  0.59560  Biso   1.000  C
  C3       1.0000 0.40750  0.20990  0.59560  Biso   1.000  C
  H1       1.0000 0.76890  0.19830  0.67960  Biso   1.000  H
  H2       1.0000 0.80170  0.57060  0.67960  Biso   1.000  H
  H3       1.0000 0.42940  0.23110  0.67960  Biso   1.000  H
  H4       1.0000 0.77880  0.15740  0.57280  Biso   1.000  H
  H5       1.0000 0.84260  0.62140  0.57280  Biso   1.000  H
  H6       1.0000 0.37860  0.22120  0.57280  Biso   1.000  H
  H7       1.0000 0.78090  0.21500  0.51560  Biso   1.000  H
  H8       1.0000 0.78500  0.56590  0.51560  Biso   1.000  H
  H9       1.0000 0.43410  0.21910  0.51560  Biso   1.000  H
  C4       1.0000 0.79010  0.59310  0.98530  Biso   1.000  C
  C5       1.0000 0.40690  0.19700  0.98530  Biso   1.000  C
  C6       1.0000 0.80300  0.20990  0.98530  Biso   1.000  C
  H10      1.0000 0.77640  0.62070  0.97120  Biso   1.000  H
  H11      1.0000 0.37930  0.15570  0.97120  Biso   1.000  H
  H12      1.0000 0.84430  0.22360  0.97120  Biso   1.000  H
  H13      1.0000 0.78280  0.57920  0.08330  Biso   1.000  H
  H14      1.0000 0.42080  0.20360  0.08330  Biso   1.000  H
  H15      1.0000 0.79640  0.21720  0.08330  Biso   1.000  H
  H16      1.0000 0.76950  0.56030  0.92080  Biso   1.000  H
  H17      1.0000 0.43970  0.20920  0.92080  Biso   1.000  H
  H18      1.0000 0.79080  0.23050  0.92080  Biso   1.000  H
  C7       1.0000 0.85640  0.23270  0.62560  Biso   1.000  C
  C8       1.0000 0.76730  0.62370  0.62560  Biso   1.000  C
  C9       1.0000 0.37630  0.14360  0.62560  Biso   1.000  C
  N4       1.0000 0.55610  0.88410  0.49350  Biso   1.000  N
  N5       1.0000 0.11590  0.67200  0.49350  Biso   1.000  N
  N6       1.0000 0.32800  0.44390  0.49350  Biso   1.000  N
  N7       1.0000 0.32830  0.88450  0.08460  Biso   1.000  N
  N8       1.0000 0.11550  0.44380  0.08460  Biso   1.000  N
  N9       1.0000 0.55620  0.67170  0.08460  Biso   1.000  N
  N10      1.0000 0.88510  0.67350  0.87830  Biso   1.000  N
  N11      1.0000 0.32650  0.21160  0.87830  Biso   1.000  N
  N12      1.0000 0.78840  0.11490  0.87830  Biso   1.000  N
  N13      1.0000 0.88410  0.32790  0.49390  Biso   1.000  N
  N14      1.0000 0.67210  0.55620  0.49390  Biso   1.000  N
  N15      1.0000 0.44380  0.11590  0.49390  Biso   1.000  N
  C10      1.0000 0.59260  0.78940  0.59460  Biso   1.000  C
  C11      1.0000 0.21060  0.80320  0.59460  Biso   1.000  C
  C12      1.0000 0.19680  0.40740  0.59460  Biso   1.000  C
  H19      1.0000 0.60020  0.78320  0.49650  Biso   1.000  H
  H20      1.0000 0.21680  0.81700  0.49650  Biso   1.000  H
  H21      1.0000 0.18300  0.39980  0.49650  Biso   1.000  H
  H22      1.0000 0.55070  0.77150  0.60940  Biso   1.000  H
  H23      1.0000 0.22850  0.77920  0.60940  Biso   1.000  H
  H24      1.0000 0.22080  0.44930  0.60940  Biso   1.000  H
  H25      1.0000 0.60830  0.77170  0.65880  Biso   1.000  H
  H26      1.0000 0.22830  0.83660  0.65880  Biso   1.000  H
  H27      1.0000 0.16340  0.39170  0.65880  Biso   1.000  H
  N16      1.0000 0.94470  0.25500  0.69920  Biso   1.000  N
  N17      1.0000 0.74500  0.68970  0.69920  Biso   1.000  N
  N18      1.0000 0.31030  0.05530  0.69920  Biso   1.000  N
  C13      1.0000 0.85570  0.62330  0.95470  Biso   1.000  C
  C14      1.0000 0.37670  0.23240  0.95470  Biso   1.000  C
  C15      1.0000 0.76760  0.14430  0.95470  Biso   1.000  C
  C16      1.0000 0.87620  0.41470  0.32940  Biso   1.000  C
  C17      1.0000 0.58530  0.46150  0.32940  Biso   1.000  C
  C18      1.0000 0.53850  0.12380  0.32940  Biso   1.000  C
  N19      1.0000 0.94460  0.69020  0.87810  Biso   1.000  N
  N20      1.0000 0.30980  0.25440  0.87810  Biso   1.000  N
  N21      1.0000 0.74560  0.05540  0.87810  Biso   1.000  N
  N22      1.0000 0.67360  0.88490  0.69860  Biso   1.000  N
  N23      1.0000 0.11510  0.78870  0.69860  Biso   1.000  N
  N24      1.0000 0.21130  0.32640  0.69860  Biso   1.000  N
  C19      1.0000 0.62210  0.85520  0.62480  Biso   1.000  C
  C20      1.0000 0.14480  0.76690  0.62480  Biso   1.000  C
  C21      1.0000 0.23310  0.37790  0.62480  Biso   1.000  C
  C22      1.0000 0.87790  0.36840  0.25780  Biso   1.000  C
  C23      1.0000 0.63160  0.50950  0.25780  Biso   1.000  C
  C24      1.0000 0.49050  0.12210  0.25780  Biso   1.000  C
  C25      1.0000 0.88200  0.56020  0.23610  Biso   1.000  C
  C26      1.0000 0.43980  0.32180  0.23610  Biso   1.000  C
  C27      1.0000 0.67820  0.11800  0.23610  Biso   1.000  C
  C28      1.0000 0.87810  0.51050  0.31960  Biso   1.000  C
  C29      1.0000 0.48950  0.36760  0.31960  Biso   1.000  C
  C30      1.0000 0.63240  0.12190  0.31960  Biso   1.000  C
  C31      1.0000 0.88250  0.32270  0.34040  Biso   1.000  C
  C32      1.0000 0.67730  0.55980  0.34040  Biso   1.000  C
  C33      1.0000 0.44020  0.11750  0.34040  Biso   1.000  C
  C34      1.0000 0.87690  0.46110  0.24690  Biso   1.000  C
  C35      1.0000 0.53890  0.41580  0.24690  Biso   1.000  C
  C36      1.0000 0.58420  0.12310  0.24690  Biso   1.000  C
  C37      1.0000 0.36910  0.87770  0.31930  Biso   1.000  C
  C38      1.0000 0.12230  0.49140  0.31930  Biso   1.000  C
  C39      1.0000 0.50860  0.63090  0.31930  Biso   1.000  C
  C40      1.0000 0.45890  0.87750  0.48150  Biso   1.000  C
  C41      1.0000 0.12250  0.58140  0.48150  Biso   1.000  C
  C42      1.0000 0.41860  0.54110  0.48150  Biso   1.000  C
  C43      1.0000 0.50980  0.87850  0.25800  Biso   1.000  C
  C44      1.0000 0.12150  0.63130  0.25800  Biso   1.000  C
  C45      1.0000 0.36870  0.49020  0.25800  Biso   1.000  C
  N25      1.0000 0.68990  0.94470  0.70030  Biso   1.000  N
  N26      1.0000 0.05530  0.74520  0.70030  Biso   1.000  N
  N27      1.0000 0.25480  0.31010  0.70030  Biso   1.000  N
  C46      1.0000 0.32320  0.88190  0.23620  Biso   1.000  C
  C47      1.0000 0.11810  0.44130  0.23620  Biso   1.000  C
  C48      1.0000 0.55870  0.67680  0.23620  Biso   1.000  C
  C49      1.0000 0.60710  0.89570  0.57730  Biso   1.000  C
  C50      1.0000 0.10430  0.71140  0.57730  Biso   1.000  C
  C51      1.0000 0.28860  0.39290  0.57730  Biso   1.000  C
  C52      1.0000 0.36690  0.87630  0.46870  Biso   1.000  C
  C53      1.0000 0.12370  0.49060  0.46870  Biso   1.000  C
  C54      1.0000 0.50940  0.63310  0.46870  Biso   1.000  C
  H28      1.0000 0.33470  0.87520  0.51500  Biso   1.000  H
  H29      1.0000 0.12480  0.45950  0.51500  Biso   1.000  H
  H30      1.0000 0.54050  0.66530  0.51500  Biso   1.000  H
  C55      1.0000 0.41820  0.87720  0.09390  Biso   1.000  C
  C56      1.0000 0.12280  0.54100  0.09390  Biso   1.000  C
  C57      1.0000 0.45900  0.58180  0.09390  Biso   1.000  C
  C58      1.0000 0.41510  0.87620  0.24930  Biso   1.000  C
  C59      1.0000 0.12380  0.53890  0.24930  Biso   1.000  C
  C60      1.0000 0.46110  0.58490  0.24930  Biso   1.000  C
  C61      1.0000 0.87740  0.41790  0.48500  Biso   1.000  C
  C62      1.0000 0.58210  0.45950  0.48500  Biso   1.000  C
  C63      1.0000 0.54050  0.12260  0.48500  Biso   1.000  C
  C64      1.0000 0.65000  0.95120  0.62580  Biso   1.000  C
  C65      1.0000 0.04880  0.69880  0.62580  Biso   1.000  C
  C66      1.0000 0.30120  0.35000  0.62580  Biso   1.000  C
  C67      1.0000 0.65310  0.00860  0.59920  Biso   1.000  C
  C68      1.0000 0.99140  0.64450  0.59920  Biso   1.000  C
  C69      1.0000 0.35550  0.34690  0.59920  Biso   1.000  C
  H31      1.0000 0.62400  0.01120  0.65740  Biso   1.000  H
  H32      1.0000 0.98880  0.61280  0.65740  Biso   1.000  H
  H33      1.0000 0.38720  0.37600  0.65740  Biso   1.000  H
  H34      1.0000 0.64540  0.01150  0.49900  Biso   1.000  H
  H35      1.0000 0.98850  0.63390  0.49900  Biso   1.000  H
  H36      1.0000 0.36610  0.35460  0.49900  Biso   1.000  H
  H37      1.0000 0.69180  0.04030  0.62400  Biso   1.000  H
  H38      1.0000 0.95970  0.65150  0.62400  Biso   1.000  H
  H39      1.0000 0.34850  0.30820  0.62400  Biso   1.000  H
  C70      1.0000 0.87620  0.51000  0.46840  Biso   1.000  C
  C71      1.0000 0.49000  0.36620  0.46840  Biso   1.000  C
  C72      1.0000 0.63380  0.12380  0.46840  Biso   1.000  C
  H40      1.0000 0.87480  0.54060  0.51650  Biso   1.000  H
  H41      1.0000 0.45940  0.33420  0.51650  Biso   1.000  H
  H42      1.0000 0.66580  0.12520  0.51650  Biso   1.000  H
  O13      1.0000 0.87920  0.37190  0.69860  Biso   1.000  O
  O14      1.0000 0.62810  0.50730  0.69860  Biso   1.000  O
  O15      1.0000 0.49270  0.12080  0.69860  Biso   1.000  O
  C73      1.0000 0.56020  0.88270  0.34200  Biso   1.000  C
  C74      1.0000 0.11730  0.67750  0.34200  Biso   1.000  C
  C75      1.0000 0.32250  0.43980  0.34200  Biso   1.000  C
  C76      1.0000 0.89500  0.28810  0.57780  Biso   1.000  C
  C77      1.0000 0.71190  0.60690  0.57780  Biso   1.000  C
  C78      1.0000 0.39310  0.10500  0.57780  Biso   1.000  C
  C79      1.0000 0.87620  0.46500  0.54840  Biso   1.000  C
  C80      1.0000 0.53500  0.41120  0.54840  Biso   1.000  C
  C81      1.0000 0.58880  0.12380  0.54840  Biso   1.000  C
  H43      1.0000 0.87550  0.46680  0.64870  Biso   1.000  H
  H44      1.0000 0.53320  0.40870  0.64870  Biso   1.000  H
  H45      1.0000 0.59130  0.12450  0.64870  Biso   1.000  H
  C82      1.0000 0.95050  0.30020  0.62730  Biso   1.000  C
  C83      1.0000 0.69980  0.65030  0.62730  Biso   1.000  C
  C84      1.0000 0.34970  0.04950  0.62730  Biso   1.000  C
  C85      1.0000 0.50690  0.88050  0.56520  Biso   1.000  C
  C86      1.0000 0.11950  0.62640  0.56520  Biso   1.000  C
  C87      1.0000 0.37360  0.49310  0.56520  Biso   1.000  C
  C88      1.0000 0.46110  0.87670  0.32860  Biso   1.000  C
  C89      1.0000 0.12330  0.58440  0.32860  Biso   1.000  C
  C90      1.0000 0.41560  0.53890  0.32860  Biso   1.000  C
  C91      1.0000 0.89560  0.60740  0.00120  Biso   1.000  C
  C92      1.0000 0.39260  0.28820  0.00120  Biso   1.000  C
  C93      1.0000 0.71180  0.10440  0.00120  Biso   1.000  C
  N28      1.0000 0.88460  0.21170  0.69900  Biso   1.000  N
  N29      1.0000 0.78830  0.67290  0.69900  Biso   1.000  N
  N30      1.0000 0.32710  0.11540  0.69900  Biso   1.000  N
  C94      1.0000 0.41090  0.87650  0.55040  Biso   1.000  C
  C95      1.0000 0.12350  0.53440  0.55040  Biso   1.000  C
  C96      1.0000 0.46560  0.58910  0.55040  Biso   1.000  C
  H46      1.0000 0.40870  0.87590  0.65070  Biso   1.000  H
  H47      1.0000 0.12410  0.53280  0.65070  Biso   1.000  H
  H48      1.0000 0.46720  0.59130  0.65070  Biso   1.000  H
  C97      1.0000 0.95110  0.65050  0.95370  Biso   1.000  C
  C98      1.0000 0.34950  0.30060  0.95370  Biso   1.000  C
  C99      1.0000 0.69940  0.04890  0.95370  Biso   1.000  C
  C100     1.0000 0.00820  0.65210  0.97970  Biso   1.000  C
  C101     1.0000 0.34790  0.35610  0.97970  Biso   1.000  C
  C102     1.0000 0.64390  0.99180  0.97970  Biso   1.000  C
  H49      1.0000 0.01440  0.63010  0.90550  Biso   1.000  H
  H50      1.0000 0.36990  0.38430  0.90550  Biso   1.000  H
  H51      1.0000 0.61570  0.98560  0.90550  Biso   1.000  H
  H52      1.0000 0.00700  0.63490  0.07210  Biso   1.000  H
  H53      1.0000 0.36510  0.37210  0.07210  Biso   1.000  H
  H54      1.0000 0.62790  0.99300  0.07210  Biso   1.000  H
  H55      1.0000 0.04000  0.69240  0.97830  Biso   1.000  H
  H56      1.0000 0.30760  0.34760  0.97830  Biso   1.000  H
  H57      1.0000 0.65240  0.96000  0.97830  Biso   1.000  H
  O16      1.0000 0.50700  0.88000  0.69860  Biso   1.000  O
  O17      1.0000 0.12000  0.62700  0.69860  Biso   1.000  O
  O18      1.0000 0.37300  0.49300  0.69860  Biso   1.000  O
  C103     1.0000 0.88020  0.37330  0.56870  Biso   1.000  C
  C104     1.0000 0.62670  0.50690  0.56870  Biso   1.000  C
  C105     1.0000 0.49310  0.11980  0.56870  Biso   1.000  C
  O19      1.0000 0.87950  0.50740  0.87880  Biso   1.000  O
  O20      1.0000 0.49260  0.37210  0.87880  Biso   1.000  O
  O21      1.0000 0.62790  0.12050  0.87880  Biso   1.000  O
  O22      1.0000 0.84690  0.05610  0.84860  Biso   1.000  O
  O23      1.0000 0.94390  0.79080  0.84860  Biso   1.000  O
  O24      1.0000 0.20920  0.15310  0.84860  Biso   1.000  O
  O25      1.0000 0.79020  0.94290  0.72820  Biso   1.000  O
  O26      1.0000 0.05710  0.84730  0.72820  Biso   1.000  O
  O27      1.0000 0.15270  0.20980  0.72820  Biso   1.000  O
  C106     1.0000 0.87630  0.36610  0.10970  Biso   1.000  C
  C107     1.0000 0.63390  0.51020  0.10970  Biso   1.000  C
  C108     1.0000 0.48980  0.12370  0.10970  Biso   1.000  C
  H58      1.0000 0.87500  0.33400  0.06280  Biso   1.000  H
  H59      1.0000 0.66600  0.54100  0.06280  Biso   1.000  H
  H60      1.0000 0.45900  0.12500  0.06280  Biso   1.000  H
  C109     1.0000 0.87800  0.45860  0.09450  Biso   1.000  C
  C110     1.0000 0.54140  0.41940  0.09450  Biso   1.000  C
  C111     1.0000 0.58060  0.12200  0.09450  Biso   1.000  C
  C112     1.0000 0.87980  0.50710  0.00900  Biso   1.000  C
  C113     1.0000 0.49290  0.37270  0.00900  Biso   1.000  C
  C114     1.0000 0.62730  0.12020  0.00900  Biso   1.000  C
  C115     1.0000 0.51080  0.87680  0.10960  Biso   1.000  C
  C116     1.0000 0.12320  0.63400  0.10960  Biso   1.000  C
  C117     1.0000 0.36600  0.48920  0.10960  Biso   1.000  C
  H61      1.0000 0.54200  0.87590  0.06330  Biso   1.000  H
  H62      1.0000 0.12410  0.66610  0.06330  Biso   1.000  H
  H63      1.0000 0.33390  0.45800  0.06330  Biso   1.000  H
  C118     1.0000 0.46470  0.87630  0.02570  Biso   1.000  C
  C119     1.0000 0.12370  0.58840  0.02570  Biso   1.000  C
  C120     1.0000 0.41160  0.53530  0.02570  Biso   1.000  C
  H64      1.0000 0.46600  0.87530  0.92540  Biso   1.000  H
  H65      1.0000 0.12470  0.59070  0.92540  Biso   1.000  H
  H66      1.0000 0.40930  0.53400  0.92540  Biso   1.000  H
  C121     1.0000 0.87670  0.41180  0.02750  Biso   1.000  C
  C122     1.0000 0.58820  0.46490  0.02750  Biso   1.000  C
  C123     1.0000 0.53510  0.12330  0.02750  Biso   1.000  C
  H67      1.0000 0.87600  0.40980  0.92720  Biso   1.000  H
  H68      1.0000 0.59020  0.46620  0.92720  Biso   1.000  H
  H69      1.0000 0.53380  0.12400  0.92720  Biso   1.000  H
  O28      1.0000 0.37240  0.87890  0.87820  Biso   1.000  O
  O29      1.0000 0.12110  0.49350  0.87820  Biso   1.000  O
  O30      1.0000 0.50650  0.62760  0.87820  Biso   1.000  O
  C124     1.0000 0.23280  0.85520  0.95280  Biso   1.000  C
  C125     1.0000 0.14480  0.37760  0.95280  Biso   1.000  C
  C126     1.0000 0.62240  0.76720  0.95280  Biso   1.000  C
  C127     1.0000 0.30040  0.95060  0.95310  Biso   1.000  C
  C128     1.0000 0.04940  0.34980  0.95310  Biso   1.000  C
  C129     1.0000 0.65020  0.69960  0.95310  Biso   1.000  C
  C130     1.0000 0.28850  0.89520  0.00120  Biso   1.000  C
  C131     1.0000 0.10480  0.39330  0.00120  Biso   1.000  C
  C132     1.0000 0.60670  0.71150  0.00120  Biso   1.000  C
  C133     1.0000 0.37370  0.88030  0.00930  Biso   1.000  C
  C134     1.0000 0.11970  0.49340  0.00930  Biso   1.000  C
  C135     1.0000 0.50660  0.62630  0.00930  Biso   1.000  C
  C136     1.0000 0.19720  0.79120  0.98550  Biso   1.000  C
  C137     1.0000 0.20880  0.40600  0.98550  Biso   1.000  C
  C138     1.0000 0.59400  0.80280  0.98550  Biso   1.000  C
  H70      1.0000 0.22110  0.77320  0.97290  Biso   1.000  H
  H71      1.0000 0.22680  0.44790  0.97290  Biso   1.000  H
  H72      1.0000 0.55210  0.77890  0.97290  Biso   1.000  H
  H73      1.0000 0.16390  0.77300  0.92120  Biso   1.000  H
  H74      1.0000 0.22700  0.39090  0.92120  Biso   1.000  H
  H75      1.0000 0.60910  0.83610  0.92120  Biso   1.000  H
  H76      1.0000 0.18340  0.78590  0.08350  Biso   1.000  H
  H77      1.0000 0.21410  0.39750  0.08350  Biso   1.000  H
  H78      1.0000 0.60250  0.81660  0.08350  Biso   1.000  H
  C139     1.0000 0.35510  0.00910  0.98190  Biso   1.000  C
  C140     1.0000 0.99090  0.34600  0.98190  Biso   1.000  C
  C141     1.0000 0.65400  0.64490  0.98190  Biso   1.000  C
  H79      1.0000 0.37340  0.00670  0.06970  Biso   1.000  H
  H80      1.0000 0.99330  0.36670  0.06970  Biso   1.000  H
  H81      1.0000 0.63330  0.62660  0.06970  Biso   1.000  H
  H82      1.0000 0.34460  0.03940  0.99130  Biso   1.000  H
  H83      1.0000 0.96060  0.30520  0.99130  Biso   1.000  H
  H84      1.0000 0.69480  0.65540  0.99130  Biso   1.000  H
  H85      1.0000 0.38240  0.01870  0.90310  Biso   1.000  H
  H86      1.0000 0.98130  0.36370  0.90310  Biso   1.000  H
  H87      1.0000 0.63630  0.61760  0.90310  Biso   1.000  H
  N31      1.0000 0.25510  0.94470  0.87760  Biso   1.000  N
  N32      1.0000 0.05530  0.31040  0.87760  Biso   1.000  N
  N33      1.0000 0.68960  0.74490  0.87760  Biso   1.000  N
  N34      1.0000 0.21210  0.88500  0.87800  Biso   1.000  N
  N35      1.0000 0.11500  0.32710  0.87800  Biso   1.000  N
  N36      1.0000 0.67290  0.78790  0.87800  Biso   1.000  N
  C142     1.0000 0.00810  0.35430  0.59770  Biso   1.000  C
  C143     1.0000 0.64570  0.65380  0.59770  Biso   1.000  C
  C144     1.0000 0.34620  0.99190  0.59770  Biso   1.000  C
  H88      1.0000 0.00890  0.38760  0.64370  Biso   1.000  H
  H89      1.0000 0.61240  0.62130  0.64370  Biso   1.000  H
  H90      1.0000 0.37870  0.99110  0.64370  Biso   1.000  H
  H91      1.0000 0.01300  0.36090  0.49540  Biso   1.000  H
  H92      1.0000 0.63910  0.65210  0.49540  Biso   1.000  H
  H93      1.0000 0.34790  0.98700  0.49540  Biso   1.000  H
  H94      1.0000 0.03970  0.34930  0.63500  Biso   1.000  H
  H95      1.0000 0.65070  0.69040  0.63500  Biso   1.000  H
  H96      1.0000 0.30960  0.96030  0.63500  Biso   1.000  H
  O31      1.0000 0.05680  0.21010  0.84720  Biso   1.000  O
  O32      1.0000 0.78990  0.84670  0.84720  Biso   1.000  O
  O33      1.0000 0.15330  0.94320  0.84720  Biso   1.000  O
  O34      1.0000 0.94370  0.15310  0.72890  Biso   1.000  O
  O35      1.0000 0.84690  0.79060  0.72890  Biso   1.000  O
  O36      1.0000 0.20940  0.05630  0.72890  Biso   1.000  O
  H97      1.0000 0.82500  0.95300  0.70400  Biso   1.000  H
  H98      1.0000 0.04700  0.87200  0.70400  Biso   1.000  H
  H99      1.0000 0.12800  0.17500  0.70400  Biso   1.000  H
  H100     1.0000 0.87200  0.04700  0.88000  Biso   1.000  H
  H101     1.0000 0.95300  0.82500  0.88000  Biso   1.000  H
  H102     1.0000 0.17500  0.12800  0.88000  Biso   1.000  H
  H103     1.0000 0.05300  0.17800  0.87500  Biso   1.000  H
  H104     1.0000 0.82200  0.87500  0.87500  Biso   1.000  H
  H105     1.0000 0.12500  0.94700  0.87500  Biso   1.000  H
  H106     1.0000 0.94900  0.12500  0.70700  Biso   1.000  H
  H107     1.0000 0.87500  0.82400  0.70700  Biso   1.000  H
  H108     1.0000 0.17600  0.05100  0.70700  Biso   1.000  H
