data_image0
_cell_length_a       6.664
_cell_length_b       15.303
_cell_length_c       19.885
_cell_angle_alpha    90
_cell_angle_beta     90
_cell_angle_gamma    90

_symmetry_space_group_name_H-M    "P 1"
_symmetry_int_tables_number       1

loop_
  _symmetry_equiv_pos_as_xyz
  'x, y, z'

loop_
  _atom_site_label
  _atom_site_occupancy
  _atom_site_fract_x
  _atom_site_fract_y
  _atom_site_fract_z
  _atom_site_thermal_displace_type
  _atom_site_B_iso_or_equiv
  _atom_site_type_symbol
  N1       1.0000 0.01850  0.43040  0.93190  Biso   1.000  N
  N2       1.0000 0.48150  0.56960  0.43190  Biso   1.000  N
  N3       1.0000 0.51850  0.06960  0.06810  Biso   1.000  N
  N4       1.0000 0.98150  0.93040  0.56810  Biso   1.000  N
  C1       1.0000 0.03070  0.51070  0.95650  Biso   1.000  C
  C2       1.0000 0.46930  0.48930  0.45650  Biso   1.000  C
  C3       1.0000 0.53070  0.98930  0.04350  Biso   1.000  C
  C4       1.0000 0.96930  0.01070  0.54350  Biso   1.000  C
  C5       1.0000 0.02300  0.52740  0.02600  Biso   1.000  C
  C6       1.0000 0.47700  0.47260  0.52600  Biso   1.000  C
  C7       1.0000 0.52300  0.97260  0.97400  Biso   1.000  C
  C8       1.0000 0.97700  0.02740  0.47400  Biso   1.000  C
  C9       1.0000 0.00280  0.46090  0.06980  Biso   1.000  C
  C10      1.0000 0.49720  0.53910  0.56980  Biso   1.000  C
  C11      1.0000 0.50280  0.03910  0.93020  Biso   1.000  C
  C12      1.0000 0.99720  0.96090  0.43020  Biso   1.000  C
  C13      1.0000 0.99540  0.37360  0.04560  Biso   1.000  C
  C14      1.0000 0.50460  0.62640  0.54560  Biso   1.000  C
  C15      1.0000 0.49540  0.12640  0.95440  Biso   1.000  C
  C16      1.0000 0.00460  0.87360  0.45440  Biso   1.000  C
  C17      1.0000 0.98300  0.29690  0.08770  Biso   1.000  C
  C18      1.0000 0.51700  0.70310  0.58770  Biso   1.000  C
  C19      1.0000 0.48300  0.20310  0.91230  Biso   1.000  C
  C20      1.0000 0.01700  0.79690  0.41230  Biso   1.000  C
  C21      1.0000 0.98270  0.21600  0.06000  Biso   1.000  C
  C22      1.0000 0.51730  0.78400  0.56000  Biso   1.000  C
  C23      1.0000 0.48270  0.28400  0.94000  Biso   1.000  C
  C24      1.0000 0.01730  0.71600  0.44000  Biso   1.000  C
  C25      1.0000 0.98430  0.20370  0.98880  Biso   1.000  C
  C26      1.0000 0.51570  0.79630  0.48880  Biso   1.000  C
  C27      1.0000 0.48430  0.29630  0.01120  Biso   1.000  C
  C28      1.0000 0.01570  0.70370  0.51120  Biso   1.000  C
  C29      1.0000 0.98200  0.12130  0.95640  Biso   1.000  C
  C30      1.0000 0.51800  0.87870  0.45640  Biso   1.000  C
  C31      1.0000 0.48200  0.37870  0.04360  Biso   1.000  C
  C32      1.0000 0.01800  0.62130  0.54360  Biso   1.000  C
  C33      1.0000 0.97820  0.11740  0.88820  Biso   1.000  C
  C34      1.0000 0.52180  0.88260  0.38820  Biso   1.000  C
  C35      1.0000 0.47820  0.38260  0.11180  Biso   1.000  C
  C36      1.0000 0.02180  0.61740  0.61180  Biso   1.000  C
  C37      1.0000 0.97530  0.19440  0.85040  Biso   1.000  C
  C38      1.0000 0.52470  0.80560  0.35040  Biso   1.000  C
  C39      1.0000 0.47530  0.30560  0.14960  Biso   1.000  C
  C40      1.0000 0.02470  0.69440  0.64960  Biso   1.000  C
  N5       1.0000 0.98100  0.27290  0.87860  Biso   1.000  N
  N6       1.0000 0.51900  0.72710  0.37860  Biso   1.000  N
  N7       1.0000 0.48100  0.22710  0.12140  Biso   1.000  N
  N8       1.0000 0.01900  0.77290  0.62140  Biso   1.000  N
  C41      1.0000 0.98590  0.27700  0.94710  Biso   1.000  C
  C42      1.0000 0.51410  0.72300  0.44710  Biso   1.000  C
  C43      1.0000 0.48590  0.22300  0.05290  Biso   1.000  C
  C44      1.0000 0.01410  0.77700  0.55290  Biso   1.000  C
  C45      1.0000 0.99740  0.36260  0.97590  Biso   1.000  C
  C46      1.0000 0.50260  0.63740  0.47590  Biso   1.000  C
  C47      1.0000 0.49740  0.13740  0.02410  Biso   1.000  C
  C48      1.0000 0.00260  0.86260  0.52410  Biso   1.000  C
  O1       1.0000 0.88410  0.35080  0.74750  Biso   1.000  O
  O2       1.0000 0.61590  0.64920  0.24750  Biso   1.000  O
  O3       1.0000 0.38410  0.14920  0.25250  Biso   1.000  O
  O4       1.0000 0.11590  0.85080  0.75250  Biso   1.000  O
  O5       1.0000 0.68010  0.38100  0.66170  Biso   1.000  O
  O6       1.0000 0.81990  0.61900  0.16170  Biso   1.000  O
  O7       1.0000 0.18010  0.11900  0.33830  Biso   1.000  O
  O8       1.0000 0.31990  0.88100  0.83830  Biso   1.000  O
  C49      1.0000 0.73330  0.39010  0.72140  Biso   1.000  C
  C50      1.0000 0.76670  0.60990  0.22140  Biso   1.000  C
  C51      1.0000 0.23330  0.10990  0.27860  Biso   1.000  C
  C52      1.0000 0.26670  0.89010  0.77860  Biso   1.000  C
  C53      1.0000 0.61000  0.45290  0.76460  Biso   1.000  C
  C54      1.0000 0.89000  0.54710  0.26460  Biso   1.000  C
  C55      1.0000 0.11000  0.04710  0.23540  Biso   1.000  C
  C56      1.0000 0.39000  0.95290  0.73540  Biso   1.000  C
  O9       1.0000 0.67010  0.44430  0.83330  Biso   1.000  O
  O10      1.0000 0.82990  0.55570  0.33330  Biso   1.000  O
  O11      1.0000 0.17010  0.05570  0.16670  Biso   1.000  O
  O12      1.0000 0.32990  0.94430  0.66670  Biso   1.000  O
  C57      1.0000 0.38490  0.43730  0.75660  Biso   1.000  C
  C58      1.0000 0.11510  0.56270  0.25660  Biso   1.000  C
  C59      1.0000 0.88490  0.06270  0.24340  Biso   1.000  C
  C60      1.0000 0.61510  0.93730  0.74340  Biso   1.000  C
  O13      1.0000 0.31590  0.36470  0.79420  Biso   1.000  O
  O14      1.0000 0.18410  0.63530  0.29420  Biso   1.000  O
  O15      1.0000 0.81590  0.13530  0.20580  Biso   1.000  O
  O16      1.0000 0.68410  0.86470  0.70580  Biso   1.000  O
  C61      1.0000 0.25640  0.51820  0.77580  Biso   1.000  C
  C62      1.0000 0.24360  0.48180  0.27580  Biso   1.000  C
  C63      1.0000 0.75640  0.98180  0.22420  Biso   1.000  C
  C64      1.0000 0.74360  0.01820  0.72420  Biso   1.000  C
  O17      1.0000 0.32190  0.59170  0.76140  Biso   1.000  O
  O18      1.0000 0.17810  0.40830  0.26140  Biso   1.000  O
  O19      1.0000 0.82190  0.90830  0.23860  Biso   1.000  O
  O20      1.0000 0.67810  0.09170  0.73860  Biso   1.000  O
  O21      1.0000 0.08730  0.50580  0.80190  Biso   1.000  O
  O22      1.0000 0.41270  0.49420  0.30190  Biso   1.000  O
  O23      1.0000 0.58730  0.99420  0.19810  Biso   1.000  O
  O24      1.0000 0.91270  0.00580  0.69810  Biso   1.000  O
  O25      1.0000 0.99910  0.19910  0.67310  Biso   1.000  O
  O26      1.0000 0.50090  0.80090  0.17310  Biso   1.000  O
  O27      1.0000 0.49910  0.30090  0.32690  Biso   1.000  O
  O28      1.0000 0.00090  0.69910  0.82690  Biso   1.000  O
  O29      1.0000 0.41910  0.74060  0.92080  Biso   1.000  O
  O30      1.0000 0.08090  0.25940  0.42080  Biso   1.000  O
  O31      1.0000 0.91910  0.75940  0.07920  Biso   1.000  O
  O32      1.0000 0.58090  0.24060  0.57920  Biso   1.000  O
  O33      1.0000 0.52740  0.56480  0.91730  Biso   1.000  O
  O34      1.0000 0.97260  0.43520  0.41730  Biso   1.000  O
  O35      1.0000 0.02740  0.93520  0.08270  Biso   1.000  O
  O36      1.0000 0.47260  0.06480  0.58270  Biso   1.000  O
  O37      1.0000 0.96540  0.41250  0.55730  Biso   1.000  O
  O38      1.0000 0.53460  0.58750  0.05730  Biso   1.000  O
  O39      1.0000 0.46540  0.08750  0.44270  Biso   1.000  O
  O40      1.0000 0.03460  0.91250  0.94270  Biso   1.000  O
  O41      1.0000 0.17660  0.25320  0.55520  Biso   1.000  O
  O42      1.0000 0.32340  0.74680  0.05520  Biso   1.000  O
  O43      1.0000 0.67660  0.24680  0.44480  Biso   1.000  O
  O44      1.0000 0.82340  0.75320  0.94480  Biso   1.000  O
  O45      1.0000 0.36980  0.21110  0.73620  Biso   1.000  O
  O46      1.0000 0.13020  0.78890  0.23620  Biso   1.000  O
  O47      1.0000 0.86980  0.28890  0.26380  Biso   1.000  O
  O48      1.0000 0.63020  0.71110  0.76380  Biso   1.000  O
  H1       1.0000 0.04480  0.55740  0.92700  Biso   1.000  H
  H2       1.0000 0.45520  0.44260  0.42700  Biso   1.000  H
  H3       1.0000 0.54480  0.94260  0.07300  Biso   1.000  H
  H4       1.0000 0.95520  0.05740  0.57300  Biso   1.000  H
  H5       1.0000 0.03190  0.58450  0.04170  Biso   1.000  H
  H6       1.0000 0.46810  0.41550  0.54170  Biso   1.000  H
  H7       1.0000 0.53190  0.91550  0.95830  Biso   1.000  H
  H8       1.0000 0.96810  0.08450  0.45830  Biso   1.000  H
  H9       1.0000 0.99370  0.47200  0.11570  Biso   1.000  H
  H10      1.0000 0.50630  0.52800  0.61570  Biso   1.000  H
  H11      1.0000 0.49370  0.02800  0.88430  Biso   1.000  H
  H12      1.0000 0.00630  0.97200  0.38430  Biso   1.000  H
  H13      1.0000 0.97520  0.30310  0.13420  Biso   1.000  H
  H14      1.0000 0.52480  0.69690  0.63420  Biso   1.000  H
  H15      1.0000 0.47520  0.19690  0.86580  Biso   1.000  H
  H16      1.0000 0.02480  0.80310  0.36580  Biso   1.000  H
  H17      1.0000 0.98140  0.16730  0.08800  Biso   1.000  H
  H18      1.0000 0.51860  0.83270  0.58800  Biso   1.000  H
  H19      1.0000 0.48140  0.33270  0.91200  Biso   1.000  H
  H20      1.0000 0.01860  0.66730  0.41200  Biso   1.000  H
  H21      1.0000 0.98310  0.07020  0.98170  Biso   1.000  H
  H22      1.0000 0.51690  0.92980  0.48170  Biso   1.000  H
  H23      1.0000 0.48310  0.42980  0.01830  Biso   1.000  H
  H24      1.0000 0.01690  0.57020  0.51830  Biso   1.000  H
  H25      1.0000 0.97760  0.06350  0.86670  Biso   1.000  H
  H26      1.0000 0.52240  0.93650  0.36670  Biso   1.000  H
  H27      1.0000 0.47760  0.43650  0.13330  Biso   1.000  H
  H28      1.0000 0.02240  0.56350  0.63330  Biso   1.000  H
  H29      1.0000 0.96910  0.19040  0.80370  Biso   1.000  H
  H30      1.0000 0.53090  0.80960  0.30370  Biso   1.000  H
  H31      1.0000 0.46910  0.30960  0.19630  Biso   1.000  H
  H32      1.0000 0.03090  0.69040  0.69630  Biso   1.000  H
  H33      1.0000 0.63960  0.51270  0.75000  Biso   1.000  H
  H34      1.0000 0.86040  0.48730  0.25000  Biso   1.000  H
  H35      1.0000 0.13960  0.98730  0.25000  Biso   1.000  H
  H36      1.0000 0.36040  0.01270  0.75000  Biso   1.000  H
  H37      1.0000 0.35960  0.42470  0.70900  Biso   1.000  H
  H38      1.0000 0.14040  0.57530  0.20900  Biso   1.000  H
  H39      1.0000 0.85960  0.07530  0.29100  Biso   1.000  H
  H40      1.0000 0.64040  0.92470  0.79100  Biso   1.000  H
  H41      1.0000 0.63290  0.49770  0.85780  Biso   1.000  H
  H42      1.0000 0.86710  0.50230  0.35780  Biso   1.000  H
  H43      1.0000 0.13290  0.00230  0.14220  Biso   1.000  H
  H44      1.0000 0.36710  0.99770  0.64220  Biso   1.000  H
  H45      1.0000 0.36000  0.31480  0.78220  Biso   1.000  H
  H46      1.0000 0.14000  0.68520  0.28220  Biso   1.000  H
  H47      1.0000 0.86000  0.18520  0.21780  Biso   1.000  H
  H48      1.0000 0.64000  0.81480  0.71780  Biso   1.000  H
  H49      1.0000 0.92300  0.24350  0.69850  Biso   1.000  H
  H50      1.0000 0.57700  0.75650  0.19850  Biso   1.000  H
  H51      1.0000 0.42300  0.25650  0.30150  Biso   1.000  H
  H52      1.0000 0.07700  0.74350  0.80150  Biso   1.000  H
  H53      1.0000 0.88130  0.16330  0.67800  Biso   1.000  H
  H54      1.0000 0.61870  0.83670  0.17800  Biso   1.000  H
  H55      1.0000 0.38130  0.33670  0.32200  Biso   1.000  H
  H56      1.0000 0.11870  0.66330  0.82200  Biso   1.000  H
  H57      1.0000 0.38310  0.76000  0.96190  Biso   1.000  H
  H58      1.0000 0.11690  0.24000  0.46190  Biso   1.000  H
  H59      1.0000 0.88310  0.74000  0.03810  Biso   1.000  H
  H60      1.0000 0.61690  0.26000  0.53810  Biso   1.000  H
  H61      1.0000 0.39740  0.79280  0.90160  Biso   1.000  H
  H62      1.0000 0.10260  0.20720  0.40160  Biso   1.000  H
  H63      1.0000 0.89740  0.70720  0.09840  Biso   1.000  H
  H64      1.0000 0.60260  0.29280  0.59840  Biso   1.000  H
  H65      1.0000 0.55850  0.56170  0.95870  Biso   1.000  H
  H66      1.0000 0.94150  0.43830  0.45870  Biso   1.000  H
  H67      1.0000 0.05850  0.93830  0.04130  Biso   1.000  H
  H68      1.0000 0.44150  0.06170  0.54130  Biso   1.000  H
  H69      1.0000 0.47390  0.61920  0.90120  Biso   1.000  H
  H70      1.0000 0.02610  0.38080  0.40120  Biso   1.000  H
  H71      1.0000 0.97390  0.88080  0.09880  Biso   1.000  H
  H72      1.0000 0.52610  0.11920  0.59880  Biso   1.000  H
  H73      1.0000 0.88210  0.39130  0.59800  Biso   1.000  H
  H74      1.0000 0.61790  0.60870  0.09800  Biso   1.000  H
  H75      1.0000 0.38210  0.10870  0.40200  Biso   1.000  H
  H76      1.0000 0.11790  0.89130  0.90200  Biso   1.000  H
  H77      1.0000 0.03100  0.35890  0.56110  Biso   1.000  H
  H78      1.0000 0.46900  0.64110  0.06110  Biso   1.000  H
  H79      1.0000 0.53100  0.14110  0.43890  Biso   1.000  H
  H80      1.0000 0.96900  0.85890  0.93890  Biso   1.000  H
  H81      1.0000 0.11950  0.22410  0.60200  Biso   1.000  H
  H82      1.0000 0.38050  0.77590  0.10200  Biso   1.000  H
  H83      1.0000 0.61950  0.27590  0.39800  Biso   1.000  H
  H84      1.0000 0.88050  0.72410  0.89800  Biso   1.000  H
  H85      1.0000 0.31440  0.25440  0.56230  Biso   1.000  H
  H86      1.0000 0.18560  0.74560  0.06230  Biso   1.000  H
  H87      1.0000 0.81440  0.24560  0.43770  Biso   1.000  H
  H88      1.0000 0.68560  0.75440  0.93770  Biso   1.000  H
  H89      1.0000 0.48380  0.17510  0.72000  Biso   1.000  H
  H90      1.0000 0.01620  0.82490  0.22000  Biso   1.000  H
  H91      1.0000 0.98380  0.32490  0.28000  Biso   1.000  H
  H92      1.0000 0.51620  0.67510  0.78000  Biso   1.000  H
  H93      1.0000 0.27620  0.18110  0.70260  Biso   1.000  H
  H94      1.0000 0.22380  0.81890  0.20260  Biso   1.000  H
  H95      1.0000 0.77620  0.31890  0.29740  Biso   1.000  H
  H96      1.0000 0.72380  0.68110  0.79740  Biso   1.000  H
  Cu1      1.0000 0.99760  0.39130  0.83500  Biso   1.000  Cu
  Cu2      1.0000 0.50240  0.60870  0.33500  Biso   1.000  Cu
  Cu3      1.0000 0.49760  0.10870  0.16500  Biso   1.000  Cu
  Cu4      1.0000 0.00240  0.89130  0.66500  Biso   1.000  Cu
