data_image0
_cell_length_a       8.5905
_cell_length_b       14.8361
_cell_length_c       20.905
_cell_angle_alpha    90
_cell_angle_beta     90
_cell_angle_gamma    90

_symmetry_space_group_name_H-M    "P 1"
_symmetry_int_tables_number       1

loop_
  _symmetry_equiv_pos_as_xyz
  'x, y, z'

loop_
  _atom_site_label
  _atom_site_occupancy
  _atom_site_fract_x
  _atom_site_fract_y
  _atom_site_fract_z
  _atom_site_thermal_displace_type
  _atom_site_B_iso_or_equiv
  _atom_site_type_symbol
  Cu1      1.0000 0.14469  0.66513  0.41067  Biso   1.000  Cu
  Cu2      1.0000 0.35531  0.33487  0.91067  Biso   1.000  Cu
  Cu3      1.0000 0.85531  0.16513  0.08933  Biso   1.000  Cu
  Cu4      1.0000 0.64469  0.83487  0.58933  Biso   1.000  Cu
  Cu5      1.0000 0.85531  0.33487  0.58933  Biso   1.000  Cu
  Cu6      1.0000 0.64469  0.66513  0.08933  Biso   1.000  Cu
  Cu7      1.0000 0.14469  0.83487  0.91067  Biso   1.000  Cu
  Cu8      1.0000 0.35531  0.16513  0.41067  Biso   1.000  Cu
  N1       1.0000 0.00060  0.70131  0.48135  Biso   1.000  N
  N2       1.0000 0.49940  0.29869  0.98135  Biso   1.000  N
  N3       1.0000 0.99940  0.20131  0.01865  Biso   1.000  N
  N4       1.0000 0.50060  0.79869  0.51865  Biso   1.000  N
  N5       1.0000 0.99940  0.29869  0.51865  Biso   1.000  N
  N6       1.0000 0.50060  0.70131  0.01865  Biso   1.000  N
  N7       1.0000 0.00060  0.79869  0.98135  Biso   1.000  N
  N8       1.0000 0.49940  0.20131  0.48135  Biso   1.000  N
  N9       1.0000 0.89130  0.76313  0.49385  Biso   1.000  N
  N10      1.0000 0.60870  0.23687  0.99385  Biso   1.000  N
  N11      1.0000 0.10870  0.26313  0.00615  Biso   1.000  N
  N12      1.0000 0.39130  0.73687  0.50615  Biso   1.000  N
  N13      1.0000 0.10870  0.23687  0.50615  Biso   1.000  N
  N14      1.0000 0.39130  0.76313  0.00615  Biso   1.000  N
  N15      1.0000 0.89130  0.73687  0.99385  Biso   1.000  N
  N16      1.0000 0.60870  0.26313  0.49385  Biso   1.000  N
  N17      1.0000 0.84400  0.74998  0.55297  Biso   1.000  N
  N18      1.0000 0.65600  0.25002  0.05297  Biso   1.000  N
  N19      1.0000 0.15600  0.24998  0.94703  Biso   1.000  N
  N20      1.0000 0.34400  0.75002  0.44703  Biso   1.000  N
  N21      1.0000 0.15600  0.25002  0.44703  Biso   1.000  N
  N22      1.0000 0.34400  0.74998  0.94703  Biso   1.000  N
  N23      1.0000 0.84400  0.75002  0.05297  Biso   1.000  N
  N24      1.0000 0.65600  0.24998  0.55297  Biso   1.000  N
  N25      1.0000 0.91920  0.68002  0.58008  Biso   1.000  N
  N26      1.0000 0.58080  0.31998  0.08008  Biso   1.000  N
  N27      1.0000 0.08080  0.18002  0.91992  Biso   1.000  N
  N28      1.0000 0.41920  0.81998  0.41992  Biso   1.000  N
  N29      1.0000 0.08080  0.31998  0.41992  Biso   1.000  N
  N30      1.0000 0.41920  0.68002  0.91992  Biso   1.000  N
  N31      1.0000 0.91920  0.81998  0.08008  Biso   1.000  N
  N32      1.0000 0.58080  0.18002  0.58008  Biso   1.000  N
  N33      1.0000 0.19390  0.56565  0.47656  Biso   1.000  N
  N34      1.0000 0.30610  0.43435  0.97656  Biso   1.000  N
  N35      1.0000 0.80610  0.06565  0.02344  Biso   1.000  N
  N36      1.0000 0.69390  0.93435  0.52344  Biso   1.000  N
  N37      1.0000 0.80610  0.43435  0.52344  Biso   1.000  N
  N38      1.0000 0.69390  0.56565  0.02344  Biso   1.000  N
  N39      1.0000 0.19390  0.93435  0.97656  Biso   1.000  N
  N40      1.0000 0.30610  0.06565  0.47656  Biso   1.000  N
  N41      1.0000 0.23460  0.60614  0.33463  Biso   1.000  N
  N42      1.0000 0.26540  0.39386  0.83463  Biso   1.000  N
  N43      1.0000 0.76540  0.10614  0.16537  Biso   1.000  N
  N44      1.0000 0.73460  0.89386  0.66537  Biso   1.000  N
  N45      1.0000 0.76540  0.39386  0.66537  Biso   1.000  N
  N46      1.0000 0.73460  0.60614  0.16537  Biso   1.000  N
  N47      1.0000 0.23460  0.89386  0.83463  Biso   1.000  N
  N48      1.0000 0.26540  0.10614  0.33463  Biso   1.000  N
  N49      1.0000 0.33210  0.53800  0.31895  Biso   1.000  N
  N50      1.0000 0.16790  0.46200  0.81895  Biso   1.000  N
  N51      1.0000 0.66790  0.03800  0.18105  Biso   1.000  N
  N52      1.0000 0.83210  0.96200  0.68105  Biso   1.000  N
  N53      1.0000 0.66790  0.46200  0.68105  Biso   1.000  N
  N54      1.0000 0.83210  0.53800  0.18105  Biso   1.000  N
  N55      1.0000 0.33210  0.96200  0.81895  Biso   1.000  N
  N56      1.0000 0.16790  0.03800  0.31895  Biso   1.000  N
  N57      1.0000 0.34510  0.53719  0.25631  Biso   1.000  N
  N58      1.0000 0.15490  0.46281  0.75631  Biso   1.000  N
  N59      1.0000 0.65490  0.03719  0.24369  Biso   1.000  N
  N60      1.0000 0.84510  0.96281  0.74369  Biso   1.000  N
  N61      1.0000 0.65490  0.46281  0.74369  Biso   1.000  N
  N62      1.0000 0.84510  0.53719  0.24369  Biso   1.000  N
  N63      1.0000 0.34510  0.96281  0.75631  Biso   1.000  N
  N64      1.0000 0.15490  0.03719  0.25631  Biso   1.000  N
  N65      1.0000 0.25840  0.60382  0.23010  Biso   1.000  N
  N66      1.0000 0.24160  0.39618  0.73010  Biso   1.000  N
  N67      1.0000 0.74160  0.10382  0.26990  Biso   1.000  N
  N68      1.0000 0.75840  0.89618  0.76990  Biso   1.000  N
  N69      1.0000 0.74160  0.39618  0.76990  Biso   1.000  N
  N70      1.0000 0.75840  0.60382  0.26990  Biso   1.000  N
  N71      1.0000 0.25840  0.89618  0.73010  Biso   1.000  N
  N72      1.0000 0.24160  0.10382  0.23010  Biso   1.000  N
  N73      1.0000 0.05450  0.74744  0.34215  Biso   1.000  N
  N74      1.0000 0.44550  0.25256  0.84215  Biso   1.000  N
  N75      1.0000 0.94550  0.24744  0.15785  Biso   1.000  N
  N76      1.0000 0.55450  0.75256  0.65785  Biso   1.000  N
  N77      1.0000 0.94550  0.25256  0.65785  Biso   1.000  N
  N78      1.0000 0.55450  0.74744  0.15785  Biso   1.000  N
  N79      1.0000 0.05450  0.75256  0.84215  Biso   1.000  N
  N80      1.0000 0.44550  0.24744  0.34215  Biso   1.000  N
  C1       1.0000 0.01490  0.65195  0.53450  Biso   1.000  C
  C2       1.0000 0.48510  0.34805  0.03450  Biso   1.000  C
  C3       1.0000 0.98510  0.15195  0.96550  Biso   1.000  C
  C4       1.0000 0.51490  0.84805  0.46550  Biso   1.000  C
  C5       1.0000 0.98510  0.34805  0.46550  Biso   1.000  C
  C6       1.0000 0.51490  0.65195  0.96550  Biso   1.000  C
  C7       1.0000 0.01490  0.84805  0.03450  Biso   1.000  C
  C8       1.0000 0.48510  0.15195  0.53450  Biso   1.000  C
  C9       1.0000 0.12340  0.57621  0.53389  Biso   1.000  C
  C10      1.0000 0.37660  0.42379  0.03389  Biso   1.000  C
  C11      1.0000 0.87660  0.07621  0.96611  Biso   1.000  C
  C12      1.0000 0.62340  0.92379  0.46611  Biso   1.000  C
  C13      1.0000 0.87660  0.42379  0.46611  Biso   1.000  C
  C14      1.0000 0.62340  0.57621  0.96611  Biso   1.000  C
  C15      1.0000 0.12340  0.92379  0.03389  Biso   1.000  C
  C16      1.0000 0.37660  0.07621  0.53389  Biso   1.000  C
  C17      1.0000 0.15190  0.51949  0.58505  Biso   1.000  C
  C18      1.0000 0.34810  0.48051  0.08505  Biso   1.000  C
  C19      1.0000 0.84810  0.01949  0.91495  Biso   1.000  C
  C20      1.0000 0.65190  0.98051  0.41495  Biso   1.000  C
  C21      1.0000 0.84810  0.48051  0.41495  Biso   1.000  C
  C22      1.0000 0.65190  0.51949  0.91495  Biso   1.000  C
  C23      1.0000 0.15190  0.98051  0.08505  Biso   1.000  C
  C24      1.0000 0.34810  0.01949  0.58505  Biso   1.000  C
  H1       1.0000 0.10130  0.52800  0.62390  Biso   1.000  H
  H2       1.0000 0.39870  0.47200  0.12390  Biso   1.000  H
  H3       1.0000 0.89870  0.02800  0.87610  Biso   1.000  H
  H4       1.0000 0.60130  0.97200  0.37610  Biso   1.000  H
  H5       1.0000 0.89870  0.47200  0.37610  Biso   1.000  H
  H6       1.0000 0.60130  0.52800  0.87610  Biso   1.000  H
  H7       1.0000 0.10130  0.97200  0.12390  Biso   1.000  H
  H8       1.0000 0.39870  0.02800  0.62390  Biso   1.000  H
  C25      1.0000 0.25750  0.44974  0.57718  Biso   1.000  C
  C26      1.0000 0.24250  0.55026  0.07718  Biso   1.000  C
  C27      1.0000 0.74250  0.94974  0.92282  Biso   1.000  C
  C28      1.0000 0.75750  0.05026  0.42282  Biso   1.000  C
  C29      1.0000 0.74250  0.55026  0.42282  Biso   1.000  C
  C30      1.0000 0.75750  0.44974  0.92282  Biso   1.000  C
  C31      1.0000 0.25750  0.05026  0.07718  Biso   1.000  C
  C32      1.0000 0.24250  0.94974  0.57718  Biso   1.000  C
  H9       1.0000 0.28030  0.41110  0.61090  Biso   1.000  H
  H10      1.0000 0.21970  0.58890  0.11090  Biso   1.000  H
  H11      1.0000 0.71970  0.91110  0.88910  Biso   1.000  H
  H12      1.0000 0.78030  0.08890  0.38910  Biso   1.000  H
  H13      1.0000 0.71970  0.58890  0.38910  Biso   1.000  H
  H14      1.0000 0.78030  0.41110  0.88910  Biso   1.000  H
  H15      1.0000 0.28030  0.08890  0.11090  Biso   1.000  H
  H16      1.0000 0.21970  0.91110  0.61090  Biso   1.000  H
  C33      1.0000 0.32810  0.43854  0.51872  Biso   1.000  C
  C34      1.0000 0.17190  0.56146  0.01872  Biso   1.000  C
  C35      1.0000 0.67190  0.93854  0.98128  Biso   1.000  C
  C36      1.0000 0.82810  0.06146  0.48128  Biso   1.000  C
  C37      1.0000 0.67190  0.56146  0.48128  Biso   1.000  C
  C38      1.0000 0.82810  0.43854  0.98128  Biso   1.000  C
  C39      1.0000 0.32810  0.06146  0.01872  Biso   1.000  C
  C40      1.0000 0.17190  0.93854  0.51872  Biso   1.000  C
  H17      1.0000 0.39860  0.39180  0.51240  Biso   1.000  H
  H18      1.0000 0.10140  0.60820  0.01240  Biso   1.000  H
  H19      1.0000 0.60140  0.89180  0.98760  Biso   1.000  H
  H20      1.0000 0.89860  0.10820  0.48760  Biso   1.000  H
  H21      1.0000 0.60140  0.60820  0.48760  Biso   1.000  H
  H22      1.0000 0.89860  0.39180  0.98760  Biso   1.000  H
  H23      1.0000 0.39860  0.10820  0.01240  Biso   1.000  H
  H24      1.0000 0.10140  0.89180  0.51240  Biso   1.000  H
  C41      1.0000 0.29360  0.49731  0.46930  Biso   1.000  C
  C42      1.0000 0.20640  0.50269  0.96930  Biso   1.000  C
  C43      1.0000 0.70640  0.99731  0.03070  Biso   1.000  C
  C44      1.0000 0.79360  0.00269  0.53070  Biso   1.000  C
  C45      1.0000 0.70640  0.50269  0.53070  Biso   1.000  C
  C46      1.0000 0.79360  0.49731  0.03070  Biso   1.000  C
  C47      1.0000 0.29360  0.00269  0.96930  Biso   1.000  C
  C48      1.0000 0.20640  0.99731  0.46930  Biso   1.000  C
  H25      1.0000 0.34130  0.48900  0.42980  Biso   1.000  H
  H26      1.0000 0.15870  0.51100  0.92980  Biso   1.000  H
  H27      1.0000 0.65870  0.98900  0.07020  Biso   1.000  H
  H28      1.0000 0.84130  0.01100  0.57020  Biso   1.000  H
  H29      1.0000 0.65870  0.51100  0.57020  Biso   1.000  H
  H30      1.0000 0.84130  0.48900  0.07020  Biso   1.000  H
  H31      1.0000 0.34130  0.01100  0.92980  Biso   1.000  H
  H32      1.0000 0.15870  0.98900  0.42980  Biso   1.000  H
  C49      1.0000 0.19270  0.64422  0.27966  Biso   1.000  C
  C50      1.0000 0.30730  0.35578  0.77966  Biso   1.000  C
  C51      1.0000 0.80730  0.14422  0.22034  Biso   1.000  C
  C52      1.0000 0.69270  0.85578  0.72034  Biso   1.000  C
  C53      1.0000 0.80730  0.35578  0.72034  Biso   1.000  C
  C54      1.0000 0.69270  0.64422  0.22034  Biso   1.000  C
  C55      1.0000 0.19270  0.85578  0.77966  Biso   1.000  C
  C56      1.0000 0.30730  0.14422  0.27966  Biso   1.000  C
  C57      1.0000 0.09050  0.72220  0.28170  Biso   1.000  C
  C58      1.0000 0.40950  0.27780  0.78170  Biso   1.000  C
  C59      1.0000 0.90950  0.22220  0.21830  Biso   1.000  C
  C60      1.0000 0.59050  0.77780  0.71830  Biso   1.000  C
  C61      1.0000 0.90950  0.27780  0.71830  Biso   1.000  C
  C62      1.0000 0.59050  0.72220  0.21830  Biso   1.000  C
  C63      1.0000 0.09050  0.77780  0.78170  Biso   1.000  C
  C64      1.0000 0.40950  0.22220  0.28170  Biso   1.000  C
  C65      1.0000 0.03370  0.76779  0.22914  Biso   1.000  C
  C66      1.0000 0.46630  0.23221  0.72914  Biso   1.000  C
  C67      1.0000 0.96630  0.26779  0.27086  Biso   1.000  C
  C68      1.0000 0.53370  0.73221  0.77086  Biso   1.000  C
  C69      1.0000 0.96630  0.23221  0.77086  Biso   1.000  C
  C70      1.0000 0.53370  0.76779  0.27086  Biso   1.000  C
  C71      1.0000 0.03370  0.73221  0.72914  Biso   1.000  C
  C72      1.0000 0.46630  0.26779  0.22914  Biso   1.000  C
  H33      1.0000 0.05820  0.74850  0.18800  Biso   1.000  H
  H34      1.0000 0.44180  0.25150  0.68800  Biso   1.000  H
  H35      1.0000 0.94180  0.24850  0.31200  Biso   1.000  H
  H36      1.0000 0.55820  0.75150  0.81200  Biso   1.000  H
  H37      1.0000 0.94180  0.25150  0.81200  Biso   1.000  H
  H38      1.0000 0.55820  0.74850  0.31200  Biso   1.000  H
  H39      1.0000 0.05820  0.75150  0.68800  Biso   1.000  H
  H40      1.0000 0.44180  0.24850  0.18800  Biso   1.000  H
  C73      1.0000 0.94070  0.84200  0.23832  Biso   1.000  C
  C74      1.0000 0.55930  0.15800  0.73832  Biso   1.000  C
  C75      1.0000 0.05930  0.34200  0.26168  Biso   1.000  C
  C76      1.0000 0.44070  0.65800  0.76168  Biso   1.000  C
  C77      1.0000 0.05930  0.15800  0.76168  Biso   1.000  C
  C78      1.0000 0.44070  0.84200  0.26168  Biso   1.000  C
  C79      1.0000 0.94070  0.65800  0.73832  Biso   1.000  C
  C80      1.0000 0.55930  0.34200  0.23832  Biso   1.000  C
  H41      1.0000 0.90090  0.87330  0.20340  Biso   1.000  H
  H42      1.0000 0.59910  0.12670  0.70340  Biso   1.000  H
  H43      1.0000 0.09910  0.37330  0.29660  Biso   1.000  H
  H44      1.0000 0.40090  0.62670  0.79660  Biso   1.000  H
  H45      1.0000 0.09910  0.12670  0.79660  Biso   1.000  H
  H46      1.0000 0.40090  0.87330  0.29660  Biso   1.000  H
  H47      1.0000 0.90090  0.62670  0.70340  Biso   1.000  H
  H48      1.0000 0.59910  0.37330  0.20340  Biso   1.000  H
  C81      1.0000 0.90720  0.86950  0.29970  Biso   1.000  C
  C82      1.0000 0.59280  0.13050  0.79970  Biso   1.000  C
  C83      1.0000 0.09280  0.36950  0.20030  Biso   1.000  C
  C84      1.0000 0.40720  0.63050  0.70030  Biso   1.000  C
  C85      1.0000 0.09280  0.13050  0.70030  Biso   1.000  C
  C86      1.0000 0.40720  0.86950  0.20030  Biso   1.000  C
  C87      1.0000 0.90720  0.63050  0.79970  Biso   1.000  C
  C88      1.0000 0.59280  0.36950  0.29970  Biso   1.000  C
  H49      1.0000 0.84650  0.92040  0.30690  Biso   1.000  H
  H50      1.0000 0.65350  0.07960  0.80690  Biso   1.000  H
  H51      1.0000 0.15350  0.42040  0.19310  Biso   1.000  H
  H52      1.0000 0.34650  0.57960  0.69310  Biso   1.000  H
  H53      1.0000 0.15350  0.07960  0.69310  Biso   1.000  H
  H54      1.0000 0.34650  0.92040  0.19310  Biso   1.000  H
  H55      1.0000 0.84650  0.57960  0.80690  Biso   1.000  H
  H56      1.0000 0.65350  0.42040  0.30690  Biso   1.000  H
  C89      1.0000 0.96500  0.82024  0.35020  Biso   1.000  C
  C90      1.0000 0.53500  0.17976  0.85020  Biso   1.000  C
  C91      1.0000 0.03500  0.32024  0.14980  Biso   1.000  C
  C92      1.0000 0.46500  0.67976  0.64980  Biso   1.000  C
  C93      1.0000 0.03500  0.17976  0.64980  Biso   1.000  C
  C94      1.0000 0.46500  0.82024  0.14980  Biso   1.000  C
  C95      1.0000 0.96500  0.67976  0.85020  Biso   1.000  C
  C96      1.0000 0.53500  0.32024  0.35020  Biso   1.000  C
  H57      1.0000 0.94080  0.83840  0.39160  Biso   1.000  H
  H58      1.0000 0.55920  0.16160  0.89160  Biso   1.000  H
  H59      1.0000 0.05920  0.33840  0.10840  Biso   1.000  H
  H60      1.0000 0.44080  0.66160  0.60840  Biso   1.000  H
  H61      1.0000 0.05920  0.16160  0.60840  Biso   1.000  H
  H62      1.0000 0.44080  0.83840  0.10840  Biso   1.000  H
  H63      1.0000 0.94080  0.66160  0.89160  Biso   1.000  H
  H64      1.0000 0.55920  0.33840  0.39160  Biso   1.000  H
