data_image0
_cell_length_a       42.82
_cell_length_b       7.8197
_cell_length_c       20.118
_cell_angle_alpha    90
_cell_angle_beta     110.59
_cell_angle_gamma    90

_symmetry_space_group_name_H-M    "P 1"
_symmetry_int_tables_number       1

loop_
  _symmetry_equiv_pos_as_xyz
  'x, y, z'

loop_
  _atom_site_label
  _atom_site_occupancy
  _atom_site_fract_x
  _atom_site_fract_y
  _atom_site_fract_z
  _atom_site_thermal_displace_type
  _atom_site_B_iso_or_equiv
  _atom_site_type_symbol
  Cu1      1.0000 0.08321  0.47295  0.05509  Biso   1.000  Cu
  Cu2      1.0000 0.91678  0.47295  0.44491  Biso   1.000  Cu
  Cu3      1.0000 0.58322  0.97295  0.05509  Biso   1.000  Cu
  Cu4      1.0000 0.41679  0.97295  0.44491  Biso   1.000  Cu
  Cu5      1.0000 0.91678  0.52705  0.94491  Biso   1.000  Cu
  Cu6      1.0000 0.08321  0.52705  0.55509  Biso   1.000  Cu
  Cu7      1.0000 0.41679  0.02705  0.94491  Biso   1.000  Cu
  Cu8      1.0000 0.58322  0.02705  0.55509  Biso   1.000  Cu
  Cu9      1.0000 0.17591  0.79280  0.11182  Biso   1.000  Cu
  Cu10     1.0000 0.82409  0.79280  0.38818  Biso   1.000  Cu
  Cu11     1.0000 0.67591  0.29280  0.11182  Biso   1.000  Cu
  Cu12     1.0000 0.32409  0.29280  0.38818  Biso   1.000  Cu
  Cu13     1.0000 0.82409  0.20720  0.88818  Biso   1.000  Cu
  Cu14     1.0000 0.17591  0.20720  0.61182  Biso   1.000  Cu
  Cu15     1.0000 0.32409  0.70720  0.88818  Biso   1.000  Cu
  Cu16     1.0000 0.67591  0.70720  0.61182  Biso   1.000  Cu
  N1       1.0000 0.04125  0.58830  0.99397  Biso   1.000  N
  N2       1.0000 0.95875  0.58830  0.50603  Biso   1.000  N
  N3       1.0000 0.54125  0.08830  0.99397  Biso   1.000  N
  N4       1.0000 0.45875  0.08830  0.50603  Biso   1.000  N
  N5       1.0000 0.95875  0.41170  0.00603  Biso   1.000  N
  N6       1.0000 0.04125  0.41170  0.49397  Biso   1.000  N
  N7       1.0000 0.45875  0.91170  0.00603  Biso   1.000  N
  N8       1.0000 0.54125  0.91170  0.49397  Biso   1.000  N
  N9       1.0000 0.07046  0.57310  0.13005  Biso   1.000  N
  N10      1.0000 0.92954  0.57310  0.36995  Biso   1.000  N
  N11      1.0000 0.57046  0.07310  0.13005  Biso   1.000  N
  N12      1.0000 0.42954  0.07310  0.36995  Biso   1.000  N
  N13      1.0000 0.92954  0.42690  0.86995  Biso   1.000  N
  N14      1.0000 0.07046  0.42690  0.63005  Biso   1.000  N
  N15      1.0000 0.42954  0.92690  0.86995  Biso   1.000  N
  N16      1.0000 0.57046  0.92690  0.63005  Biso   1.000  N
  N17      1.0000 0.12259  0.39840  0.13847  Biso   1.000  N
  N18      1.0000 0.87741  0.39840  0.36153  Biso   1.000  N
  N19      1.0000 0.62259  0.89840  0.13847  Biso   1.000  N
  N20      1.0000 0.37741  0.89840  0.36153  Biso   1.000  N
  N21      1.0000 0.87741  0.60160  0.86153  Biso   1.000  N
  N22      1.0000 0.12259  0.60160  0.63847  Biso   1.000  N
  N23      1.0000 0.37741  0.10160  0.86153  Biso   1.000  N
  N24      1.0000 0.62259  0.10160  0.63847  Biso   1.000  N
  N25      1.0000 0.20023  0.65860  0.05889  Biso   1.000  N
  N26      1.0000 0.79977  0.65860  0.44111  Biso   1.000  N
  N27      1.0000 0.70023  0.15860  0.05889  Biso   1.000  N
  N28      1.0000 0.29977  0.15860  0.44111  Biso   1.000  N
  N29      1.0000 0.79977  0.34140  0.94111  Biso   1.000  N
  N30      1.0000 0.20023  0.34140  0.55889  Biso   1.000  N
  N31      1.0000 0.29977  0.84140  0.94111  Biso   1.000  N
  N32      1.0000 0.70023  0.84140  0.55889  Biso   1.000  N
  N33      1.0000 0.20810  0.67900  0.19248  Biso   1.000  N
  N34      1.0000 0.79190  0.67900  0.30752  Biso   1.000  N
  N35      1.0000 0.70810  0.17900  0.19248  Biso   1.000  N
  N36      1.0000 0.29190  0.17900  0.30752  Biso   1.000  N
  N37      1.0000 0.79190  0.32100  0.80752  Biso   1.000  N
  N38      1.0000 0.20810  0.32100  0.69248  Biso   1.000  N
  N39      1.0000 0.29190  0.82100  0.80752  Biso   1.000  N
  N40      1.0000 0.70810  0.82100  0.69248  Biso   1.000  N
  N41      1.0000 0.15540  0.84720  0.18418  Biso   1.000  N
  N42      1.0000 0.84460  0.84720  0.31582  Biso   1.000  N
  N43      1.0000 0.65540  0.34720  0.18418  Biso   1.000  N
  N44      1.0000 0.34460  0.34720  0.31582  Biso   1.000  N
  N45      1.0000 0.84460  0.15280  0.81582  Biso   1.000  N
  N46      1.0000 0.15540  0.15280  0.68418  Biso   1.000  N
  N47      1.0000 0.34460  0.65280  0.81582  Biso   1.000  N
  N48      1.0000 0.65540  0.65280  0.68418  Biso   1.000  N
  O1       1.0000 0.08390  0.57010  0.25237  Biso   1.000  O
  O2       1.0000 0.91610  0.57010  0.24763  Biso   1.000  O
  O3       1.0000 0.58390  0.07010  0.25237  Biso   1.000  O
  O4       1.0000 0.41610  0.07010  0.24763  Biso   1.000  O
  O5       1.0000 0.91610  0.42990  0.74763  Biso   1.000  O
  O6       1.0000 0.08390  0.42990  0.75237  Biso   1.000  O
  O7       1.0000 0.41610  0.92990  0.74763  Biso   1.000  O
  O8       1.0000 0.58390  0.92990  0.75237  Biso   1.000  O
  O9       1.0000 0.02979  0.74480  0.14819  Biso   1.000  O
  O10      1.0000 0.97021  0.74480  0.35181  Biso   1.000  O
  O11      1.0000 0.52979  0.24480  0.14819  Biso   1.000  O
  O12      1.0000 0.47021  0.24480  0.35181  Biso   1.000  O
  O13      1.0000 0.97021  0.25520  0.85181  Biso   1.000  O
  O14      1.0000 0.02979  0.25520  0.64819  Biso   1.000  O
  O15      1.0000 0.47021  0.75520  0.85181  Biso   1.000  O
  O16      1.0000 0.52979  0.75520  0.64819  Biso   1.000  O
  O17      1.0000 0.25818  0.53120  0.22516  Biso   1.000  O
  O18      1.0000 0.74182  0.53120  0.27484  Biso   1.000  O
  O19      1.0000 0.75818  0.03120  0.22516  Biso   1.000  O
  O20      1.0000 0.24182  0.03120  0.27484  Biso   1.000  O
  O21      1.0000 0.74182  0.46880  0.77484  Biso   1.000  O
  O22      1.0000 0.25818  0.46880  0.72516  Biso   1.000  O
  O23      1.0000 0.24182  0.96880  0.77484  Biso   1.000  O
  O24      1.0000 0.75818  0.96880  0.72516  Biso   1.000  O
  O25      1.0000 0.22289  0.64240  0.31456  Biso   1.000  O
  O26      1.0000 0.77711  0.64240  0.18544  Biso   1.000  O
  O27      1.0000 0.72289  0.14240  0.31456  Biso   1.000  O
  O28      1.0000 0.27711  0.14240  0.18544  Biso   1.000  O
  O29      1.0000 0.77711  0.35760  0.68544  Biso   1.000  O
  O30      1.0000 0.22289  0.35760  0.81456  Biso   1.000  O
  O31      1.0000 0.27711  0.85760  0.68544  Biso   1.000  O
  O32      1.0000 0.72289  0.85760  0.81456  Biso   1.000  O
  O33      1.0000 0.07762  0.09770  0.04145  Biso   1.000  O
  O34      1.0000 0.92238  0.09770  0.45855  Biso   1.000  O
  O35      1.0000 0.57762  0.59770  0.04145  Biso   1.000  O
  O36      1.0000 0.42238  0.59770  0.45855  Biso   1.000  O
  O37      1.0000 0.92238  0.90230  0.95855  Biso   1.000  O
  O38      1.0000 0.07762  0.90230  0.54145  Biso   1.000  O
  O39      1.0000 0.42238  0.40230  0.95855  Biso   1.000  O
  O40      1.0000 0.57762  0.40230  0.54145  Biso   1.000  O
  O41      1.0000 0.08724  0.31887  0.98173  Biso   1.000  O
  O42      1.0000 0.91276  0.31887  0.51827  Biso   1.000  O
  O43      1.0000 0.58724  0.81887  0.98173  Biso   1.000  O
  O44      1.0000 0.41276  0.81887  0.51827  Biso   1.000  O
  O45      1.0000 0.91276  0.68113  0.01827  Biso   1.000  O
  O46      1.0000 0.08724  0.68113  0.48173  Biso   1.000  O
  O47      1.0000 0.41276  0.18113  0.01827  Biso   1.000  O
  O48      1.0000 0.58724  0.18113  0.48173  Biso   1.000  O
  O49      1.0000 0.14298  0.91130  0.03127  Biso   1.000  O
  O50      1.0000 0.85702  0.91130  0.46873  Biso   1.000  O
  O51      1.0000 0.64298  0.41130  0.03127  Biso   1.000  O
  O52      1.0000 0.35702  0.41130  0.46873  Biso   1.000  O
  O53      1.0000 0.85702  0.08870  0.96873  Biso   1.000  O
  O54      1.0000 0.14298  0.08870  0.53127  Biso   1.000  O
  O55      1.0000 0.35702  0.58870  0.96873  Biso   1.000  O
  O56      1.0000 0.64298  0.58870  0.53127  Biso   1.000  O
  O57      1.0000 0.11453  0.67230  0.02219  Biso   1.000  O
  O58      1.0000 0.88547  0.67230  0.47781  Biso   1.000  O
  O59      1.0000 0.61453  0.17230  0.02219  Biso   1.000  O
  O60      1.0000 0.38547  0.17230  0.47781  Biso   1.000  O
  O61      1.0000 0.88547  0.32770  0.97781  Biso   1.000  O
  O62      1.0000 0.11453  0.32770  0.52219  Biso   1.000  O
  O63      1.0000 0.38547  0.82770  0.97781  Biso   1.000  O
  O64      1.0000 0.61453  0.82770  0.52219  Biso   1.000  O
  O65      1.0000 0.21121  0.02060  0.11656  Biso   1.000  O
  O66      1.0000 0.78879  0.02060  0.38344  Biso   1.000  O
  O67      1.0000 0.71121  0.52060  0.11656  Biso   1.000  O
  O68      1.0000 0.28879  0.52060  0.38344  Biso   1.000  O
  O69      1.0000 0.78879  0.97940  0.88344  Biso   1.000  O
  O70      1.0000 0.21121  0.97940  0.61656  Biso   1.000  O
  O71      1.0000 0.28879  0.47940  0.88344  Biso   1.000  O
  O72      1.0000 0.71121  0.47940  0.61656  Biso   1.000  O
  H1       1.0000 0.20660  0.09700  0.08600  Biso   1.000  H
  H2       1.0000 0.79340  0.09700  0.41400  Biso   1.000  H
  H3       1.0000 0.70660  0.59700  0.08600  Biso   1.000  H
  H4       1.0000 0.29340  0.59700  0.41400  Biso   1.000  H
  H5       1.0000 0.79340  0.90300  0.91400  Biso   1.000  H
  H6       1.0000 0.20660  0.90300  0.58600  Biso   1.000  H
  H7       1.0000 0.29340  0.40300  0.91400  Biso   1.000  H
  H8       1.0000 0.70660  0.40300  0.58600  Biso   1.000  H
  H9       1.0000 0.22810  0.04700  0.14960  Biso   1.000  H
  H10      1.0000 0.77190  0.04700  0.35040  Biso   1.000  H
  H11      1.0000 0.72810  0.54700  0.14960  Biso   1.000  H
  H12      1.0000 0.27190  0.54700  0.35040  Biso   1.000  H
  H13      1.0000 0.77190  0.95300  0.85040  Biso   1.000  H
  H14      1.0000 0.22810  0.95300  0.64960  Biso   1.000  H
  H15      1.0000 0.27190  0.45300  0.85040  Biso   1.000  H
  H16      1.0000 0.72810  0.45300  0.64960  Biso   1.000  H
  C1       1.0000 0.14982  0.31710  0.13731  Biso   1.000  C
  C2       1.0000 0.85018  0.31710  0.36269  Biso   1.000  C
  C3       1.0000 0.64982  0.81710  0.13731  Biso   1.000  C
  C4       1.0000 0.35018  0.81710  0.36269  Biso   1.000  C
  C5       1.0000 0.85018  0.68290  0.86269  Biso   1.000  C
  C6       1.0000 0.14982  0.68290  0.63731  Biso   1.000  C
  C7       1.0000 0.35018  0.18290  0.86269  Biso   1.000  C
  C8       1.0000 0.64982  0.18290  0.63731  Biso   1.000  C
  H17      1.0000 0.15160  0.29070  0.09370  Biso   1.000  H
  H18      1.0000 0.84840  0.29070  0.40630  Biso   1.000  H
  H19      1.0000 0.65160  0.79070  0.09370  Biso   1.000  H
  H20      1.0000 0.34840  0.79070  0.40630  Biso   1.000  H
  H21      1.0000 0.84840  0.70930  0.90630  Biso   1.000  H
  H22      1.0000 0.15160  0.70930  0.59370  Biso   1.000  H
  H23      1.0000 0.34840  0.20930  0.90630  Biso   1.000  H
  H24      1.0000 0.65160  0.20930  0.59370  Biso   1.000  H
  C9       1.0000 0.17540  0.27100  0.19860  Biso   1.000  C
  C10      1.0000 0.82460  0.27100  0.30140  Biso   1.000  C
  C11      1.0000 0.67540  0.77100  0.19860  Biso   1.000  C
  C12      1.0000 0.32460  0.77100  0.30140  Biso   1.000  C
  C13      1.0000 0.82460  0.72900  0.80140  Biso   1.000  C
  C14      1.0000 0.17540  0.72900  0.69860  Biso   1.000  C
  C15      1.0000 0.32460  0.22900  0.80140  Biso   1.000  C
  C16      1.0000 0.67540  0.22900  0.69860  Biso   1.000  C
  H25      1.0000 0.19440  0.21750  0.19640  Biso   1.000  H
  H26      1.0000 0.80560  0.21750  0.30360  Biso   1.000  H
  H27      1.0000 0.69440  0.71750  0.19640  Biso   1.000  H
  H28      1.0000 0.30560  0.71750  0.30360  Biso   1.000  H
  H29      1.0000 0.80560  0.78250  0.80360  Biso   1.000  H
  H30      1.0000 0.19440  0.78250  0.69640  Biso   1.000  H
  H31      1.0000 0.30560  0.28250  0.80360  Biso   1.000  H
  H32      1.0000 0.69440  0.28250  0.69640  Biso   1.000  H
  C17      1.0000 0.17228  0.30540  0.26282  Biso   1.000  C
  C18      1.0000 0.82772  0.30540  0.23718  Biso   1.000  C
  C19      1.0000 0.67228  0.80540  0.26282  Biso   1.000  C
  C20      1.0000 0.32772  0.80540  0.23718  Biso   1.000  C
  C21      1.0000 0.82772  0.69460  0.73718  Biso   1.000  C
  C22      1.0000 0.17228  0.69460  0.76282  Biso   1.000  C
  C23      1.0000 0.32772  0.19460  0.73718  Biso   1.000  C
  C24      1.0000 0.67228  0.19460  0.76282  Biso   1.000  C
  H33      1.0000 0.18890  0.27250  0.30480  Biso   1.000  H
  H34      1.0000 0.81110  0.27250  0.19520  Biso   1.000  H
  H35      1.0000 0.68890  0.77250  0.30480  Biso   1.000  H
  H36      1.0000 0.31110  0.77250  0.19520  Biso   1.000  H
  H37      1.0000 0.81110  0.72750  0.69520  Biso   1.000  H
  H38      1.0000 0.18890  0.72750  0.80480  Biso   1.000  H
  H39      1.0000 0.31110  0.22750  0.69520  Biso   1.000  H
  H40      1.0000 0.68890  0.22750  0.80480  Biso   1.000  H
  C25      1.0000 0.14425  0.38930  0.26466  Biso   1.000  C
  C26      1.0000 0.85575  0.38930  0.23534  Biso   1.000  C
  C27      1.0000 0.64425  0.88930  0.26466  Biso   1.000  C
  C28      1.0000 0.35575  0.88930  0.23534  Biso   1.000  C
  C29      1.0000 0.85575  0.61070  0.73534  Biso   1.000  C
  C30      1.0000 0.14425  0.61070  0.76466  Biso   1.000  C
  C31      1.0000 0.35575  0.11070  0.73534  Biso   1.000  C
  C32      1.0000 0.64425  0.11070  0.76466  Biso   1.000  C
  H41      1.0000 0.14170  0.41420  0.30770  Biso   1.000  H
  H42      1.0000 0.85830  0.41420  0.19230  Biso   1.000  H
  H43      1.0000 0.64170  0.91420  0.30770  Biso   1.000  H
  H44      1.0000 0.35830  0.91420  0.19230  Biso   1.000  H
  H45      1.0000 0.85830  0.58580  0.69230  Biso   1.000  H
  H46      1.0000 0.14170  0.58580  0.80770  Biso   1.000  H
  H47      1.0000 0.35830  0.08580  0.69230  Biso   1.000  H
  H48      1.0000 0.64170  0.08580  0.80770  Biso   1.000  H
  C33      1.0000 0.12005  0.43540  0.20133  Biso   1.000  C
  C34      1.0000 0.87995  0.43540  0.29867  Biso   1.000  C
  C35      1.0000 0.62005  0.93540  0.20133  Biso   1.000  C
  C36      1.0000 0.37995  0.93540  0.29867  Biso   1.000  C
  C37      1.0000 0.87995  0.56460  0.79867  Biso   1.000  C
  C38      1.0000 0.12005  0.56460  0.70133  Biso   1.000  C
  C39      1.0000 0.37995  0.06460  0.79867  Biso   1.000  C
  C40      1.0000 0.62005  0.06460  0.70133  Biso   1.000  C
  C41      1.0000 0.08933  0.53470  0.19826  Biso   1.000  C
  C42      1.0000 0.91067  0.53470  0.30174  Biso   1.000  C
  C43      1.0000 0.58933  0.03470  0.19826  Biso   1.000  C
  C44      1.0000 0.41067  0.03470  0.30174  Biso   1.000  C
  C45      1.0000 0.91067  0.46530  0.80174  Biso   1.000  C
  C46      1.0000 0.08933  0.46530  0.69826  Biso   1.000  C
  C47      1.0000 0.41067  0.96530  0.80174  Biso   1.000  C
  C48      1.0000 0.58933  0.96530  0.69826  Biso   1.000  C
  C49      1.0000 0.04228  0.67160  0.11039  Biso   1.000  C
  C50      1.0000 0.95772  0.67160  0.38961  Biso   1.000  C
  C51      1.0000 0.54228  0.17160  0.11039  Biso   1.000  C
  C52      1.0000 0.45772  0.17160  0.38961  Biso   1.000  C
  C53      1.0000 0.95772  0.32840  0.88961  Biso   1.000  C
  C54      1.0000 0.04228  0.32840  0.61039  Biso   1.000  C
  C55      1.0000 0.45772  0.82840  0.88961  Biso   1.000  C
  C56      1.0000 0.54228  0.82840  0.61039  Biso   1.000  C
  C57      1.0000 0.02674  0.68240  0.03090  Biso   1.000  C
  C58      1.0000 0.97326  0.68240  0.46910  Biso   1.000  C
  C59      1.0000 0.52674  0.18240  0.03090  Biso   1.000  C
  C60      1.0000 0.47326  0.18240  0.46910  Biso   1.000  C
  C61      1.0000 0.97326  0.31760  0.96910  Biso   1.000  C
  C62      1.0000 0.02674  0.31760  0.53090  Biso   1.000  C
  C63      1.0000 0.47326  0.81760  0.96910  Biso   1.000  C
  C64      1.0000 0.52674  0.81760  0.53090  Biso   1.000  C
  C65      1.0000 0.99905  0.78270  0.99762  Biso   1.000  C
  C66      1.0000 0.00095  0.78270  0.50238  Biso   1.000  C
  C67      1.0000 0.49905  0.28270  0.99762  Biso   1.000  C
  C68      1.0000 0.50095  0.28270  0.50238  Biso   1.000  C
  C69      1.0000 0.00095  0.21730  0.00238  Biso   1.000  C
  C70      1.0000 0.99905  0.21730  0.49762  Biso   1.000  C
  C71      1.0000 0.50095  0.71730  0.00238  Biso   1.000  C
  C72      1.0000 0.49905  0.71730  0.49762  Biso   1.000  C
  H49      1.0000 0.98900  0.84470  0.02410  Biso   1.000  H
  H50      1.0000 0.01100  0.84470  0.47590  Biso   1.000  H
  H51      1.0000 0.48900  0.34470  0.02410  Biso   1.000  H
  H52      1.0000 0.51100  0.34470  0.47590  Biso   1.000  H
  H53      1.0000 0.01100  0.15530  0.97590  Biso   1.000  H
  H54      1.0000 0.98900  0.15530  0.52410  Biso   1.000  H
  H55      1.0000 0.51100  0.65530  0.97590  Biso   1.000  H
  H56      1.0000 0.48900  0.65530  0.52410  Biso   1.000  H
  C73      1.0000 0.98661  0.78920  0.92477  Biso   1.000  C
  C74      1.0000 0.01339  0.78920  0.57523  Biso   1.000  C
  C75      1.0000 0.48661  0.28920  0.92477  Biso   1.000  C
  C76      1.0000 0.51339  0.28920  0.57523  Biso   1.000  C
  C77      1.0000 0.01339  0.21080  0.07523  Biso   1.000  C
  C78      1.0000 0.98661  0.21080  0.42477  Biso   1.000  C
  C79      1.0000 0.51339  0.71080  0.07523  Biso   1.000  C
  C80      1.0000 0.48661  0.71080  0.42477  Biso   1.000  C
  H57      1.0000 0.96830  0.85790  0.90130  Biso   1.000  H
  H58      1.0000 0.03170  0.85790  0.59870  Biso   1.000  H
  H59      1.0000 0.46830  0.35790  0.90130  Biso   1.000  H
  H60      1.0000 0.53170  0.35790  0.59870  Biso   1.000  H
  H61      1.0000 0.03170  0.14210  0.09870  Biso   1.000  H
  H62      1.0000 0.96830  0.14210  0.40130  Biso   1.000  H
  H63      1.0000 0.53170  0.64210  0.09870  Biso   1.000  H
  H64      1.0000 0.46830  0.64210  0.40130  Biso   1.000  H
  C81      1.0000 0.00153  0.69270  0.88675  Biso   1.000  C
  C82      1.0000 0.99847  0.69270  0.61325  Biso   1.000  C
  C83      1.0000 0.50153  0.19270  0.88675  Biso   1.000  C
  C84      1.0000 0.49847  0.19270  0.61325  Biso   1.000  C
  C85      1.0000 0.99847  0.30730  0.11325  Biso   1.000  C
  C86      1.0000 0.00153  0.30730  0.38675  Biso   1.000  C
  C87      1.0000 0.49847  0.80730  0.11325  Biso   1.000  C
  C88      1.0000 0.50153  0.80730  0.38675  Biso   1.000  C
  H65      1.0000 0.99340  0.69500  0.83740  Biso   1.000  H
  H66      1.0000 0.00660  0.69500  0.66260  Biso   1.000  H
  H67      1.0000 0.49340  0.19500  0.83740  Biso   1.000  H
  H68      1.0000 0.50660  0.19500  0.66260  Biso   1.000  H
  H69      1.0000 0.00660  0.30500  0.16260  Biso   1.000  H
  H70      1.0000 0.99340  0.30500  0.33740  Biso   1.000  H
  H71      1.0000 0.50660  0.80500  0.16260  Biso   1.000  H
  H72      1.0000 0.49340  0.80500  0.33740  Biso   1.000  H
  C89      1.0000 0.02872  0.59300  0.92336  Biso   1.000  C
  C90      1.0000 0.97128  0.59300  0.57664  Biso   1.000  C
  C91      1.0000 0.52872  0.09300  0.92336  Biso   1.000  C
  C92      1.0000 0.47128  0.09300  0.57664  Biso   1.000  C
  C93      1.0000 0.97128  0.40700  0.07664  Biso   1.000  C
  C94      1.0000 0.02872  0.40700  0.42336  Biso   1.000  C
  C95      1.0000 0.47128  0.90700  0.07664  Biso   1.000  C
  C96      1.0000 0.52872  0.90700  0.42336  Biso   1.000  C
  H73      1.0000 0.03860  0.52680  0.89780  Biso   1.000  H
  H74      1.0000 0.96140  0.52680  0.60220  Biso   1.000  H
  H75      1.0000 0.53860  0.02680  0.89780  Biso   1.000  H
  H76      1.0000 0.46140  0.02680  0.60220  Biso   1.000  H
  H77      1.0000 0.96140  0.47320  0.10220  Biso   1.000  H
  H78      1.0000 0.03860  0.47320  0.39780  Biso   1.000  H
  H79      1.0000 0.46140  0.97320  0.10220  Biso   1.000  H
  H80      1.0000 0.53860  0.97320  0.39780  Biso   1.000  H
  C97      1.0000 0.19382  0.64800  0.98934  Biso   1.000  C
  C98      1.0000 0.80618  0.64800  0.51066  Biso   1.000  C
  C99      1.0000 0.69382  0.14800  0.98934  Biso   1.000  C
  C100     1.0000 0.30618  0.14800  0.51066  Biso   1.000  C
  C101     1.0000 0.80618  0.35200  0.01066  Biso   1.000  C
  C102     1.0000 0.19382  0.35200  0.48934  Biso   1.000  C
  C103     1.0000 0.30618  0.85200  0.01066  Biso   1.000  C
  C104     1.0000 0.69382  0.85200  0.48934  Biso   1.000  C
  H81      1.0000 0.17480  0.70120  0.95850  Biso   1.000  H
  H82      1.0000 0.82520  0.70120  0.54150  Biso   1.000  H
  H83      1.0000 0.67480  0.20120  0.95850  Biso   1.000  H
  H84      1.0000 0.32520  0.20120  0.54150  Biso   1.000  H
  H85      1.0000 0.82520  0.29880  0.04150  Biso   1.000  H
  H86      1.0000 0.17480  0.29880  0.45850  Biso   1.000  H
  H87      1.0000 0.32520  0.79880  0.04150  Biso   1.000  H
  H88      1.0000 0.67480  0.79880  0.45850  Biso   1.000  H
  C105     1.0000 0.21444  0.56070  0.96143  Biso   1.000  C
  C106     1.0000 0.78556  0.56070  0.53857  Biso   1.000  C
  C107     1.0000 0.71444  0.06070  0.96143  Biso   1.000  C
  C108     1.0000 0.28556  0.06070  0.53857  Biso   1.000  C
  C109     1.0000 0.78556  0.43930  0.03857  Biso   1.000  C
  C110     1.0000 0.21444  0.43930  0.46143  Biso   1.000  C
  C111     1.0000 0.28556  0.93930  0.03857  Biso   1.000  C
  C112     1.0000 0.71444  0.93930  0.46143  Biso   1.000  C
  H89      1.0000 0.20930  0.55460  0.91260  Biso   1.000  H
  H90      1.0000 0.79070  0.55460  0.58740  Biso   1.000  H
  H91      1.0000 0.70930  0.05460  0.91260  Biso   1.000  H
  H92      1.0000 0.29070  0.05460  0.58740  Biso   1.000  H
  H93      1.0000 0.79070  0.44540  0.08740  Biso   1.000  H
  H94      1.0000 0.20930  0.44540  0.41260  Biso   1.000  H
  H95      1.0000 0.29070  0.94540  0.08740  Biso   1.000  H
  H96      1.0000 0.70930  0.94540  0.41260  Biso   1.000  H
  C113     1.0000 0.24243  0.48380  0.00652  Biso   1.000  C
  C114     1.0000 0.75757  0.48380  0.49348  Biso   1.000  C
  C115     1.0000 0.74243  0.98380  0.00652  Biso   1.000  C
  C116     1.0000 0.25757  0.98380  0.49348  Biso   1.000  C
  C117     1.0000 0.75757  0.51620  0.99348  Biso   1.000  C
  C118     1.0000 0.24243  0.51620  0.50652  Biso   1.000  C
  C119     1.0000 0.25757  0.01620  0.99348  Biso   1.000  C
  C120     1.0000 0.74243  0.01620  0.50652  Biso   1.000  C
  H97      1.0000 0.25680  0.42580  0.98890  Biso   1.000  H
  H98      1.0000 0.74320  0.42580  0.51110  Biso   1.000  H
  H99      1.0000 0.75680  0.92580  0.98890  Biso   1.000  H
  H100     1.0000 0.24320  0.92580  0.51110  Biso   1.000  H
  H101     1.0000 0.74320  0.57420  0.01110  Biso   1.000  H
  H102     1.0000 0.25680  0.57420  0.48890  Biso   1.000  H
  H103     1.0000 0.24320  0.07420  0.01110  Biso   1.000  H
  H104     1.0000 0.75680  0.07420  0.48890  Biso   1.000  H
  C121     1.0000 0.24919  0.49320  0.07888  Biso   1.000  C
  C122     1.0000 0.75081  0.49320  0.42112  Biso   1.000  C
  C123     1.0000 0.74919  0.99320  0.07888  Biso   1.000  C
  C124     1.0000 0.25081  0.99320  0.42112  Biso   1.000  C
  C125     1.0000 0.75081  0.50680  0.92112  Biso   1.000  C
  C126     1.0000 0.24919  0.50680  0.57888  Biso   1.000  C
  C127     1.0000 0.25081  0.00680  0.92112  Biso   1.000  C
  C128     1.0000 0.74919  0.00680  0.57888  Biso   1.000  C
  H105     1.0000 0.26800  0.44060  0.11060  Biso   1.000  H
  H106     1.0000 0.73200  0.44060  0.38940  Biso   1.000  H
  H107     1.0000 0.76800  0.94060  0.11060  Biso   1.000  H
  H108     1.0000 0.23200  0.94060  0.38940  Biso   1.000  H
  H109     1.0000 0.73200  0.55940  0.88940  Biso   1.000  H
  H110     1.0000 0.26800  0.55940  0.61060  Biso   1.000  H
  H111     1.0000 0.23200  0.05940  0.88940  Biso   1.000  H
  H112     1.0000 0.76800  0.05940  0.61060  Biso   1.000  H
  C129     1.0000 0.22764  0.58140  0.10326  Biso   1.000  C
  C130     1.0000 0.77236  0.58140  0.39674  Biso   1.000  C
  C131     1.0000 0.72764  0.08140  0.10326  Biso   1.000  C
  C132     1.0000 0.27236  0.08140  0.39674  Biso   1.000  C
  C133     1.0000 0.77236  0.41860  0.89674  Biso   1.000  C
  C134     1.0000 0.22764  0.41860  0.60326  Biso   1.000  C
  C135     1.0000 0.27236  0.91860  0.89674  Biso   1.000  C
  C136     1.0000 0.72764  0.91860  0.60326  Biso   1.000  C
  C137     1.0000 0.23341  0.59330  0.18115  Biso   1.000  C
  C138     1.0000 0.76659  0.59330  0.31885  Biso   1.000  C
  C139     1.0000 0.73341  0.09330  0.18115  Biso   1.000  C
  C140     1.0000 0.26659  0.09330  0.31885  Biso   1.000  C
  C141     1.0000 0.76659  0.40670  0.81885  Biso   1.000  C
  C142     1.0000 0.23341  0.40670  0.68115  Biso   1.000  C
  C143     1.0000 0.26659  0.90670  0.81885  Biso   1.000  C
  C144     1.0000 0.73341  0.90670  0.68115  Biso   1.000  C
  C145     1.0000 0.20503  0.69860  0.25683  Biso   1.000  C
  C146     1.0000 0.79497  0.69860  0.24317  Biso   1.000  C
  C147     1.0000 0.70503  0.19860  0.25683  Biso   1.000  C
  C148     1.0000 0.29497  0.19860  0.24317  Biso   1.000  C
  C149     1.0000 0.79497  0.30140  0.74317  Biso   1.000  C
  C150     1.0000 0.20503  0.30140  0.75683  Biso   1.000  C
  C151     1.0000 0.29497  0.80140  0.74317  Biso   1.000  C
  C152     1.0000 0.70503  0.80140  0.75683  Biso   1.000  C
  C153     1.0000 0.17407  0.79780  0.25055  Biso   1.000  C
  C154     1.0000 0.82593  0.79780  0.24945  Biso   1.000  C
  C155     1.0000 0.67407  0.29780  0.25055  Biso   1.000  C
  C156     1.0000 0.32593  0.29780  0.24945  Biso   1.000  C
  C157     1.0000 0.82593  0.20220  0.74945  Biso   1.000  C
  C158     1.0000 0.17407  0.20220  0.75055  Biso   1.000  C
  C159     1.0000 0.32593  0.70220  0.74945  Biso   1.000  C
  C160     1.0000 0.67407  0.70220  0.75055  Biso   1.000  C
  C161     1.0000 0.16445  0.82930  0.30741  Biso   1.000  C
  C162     1.0000 0.83555  0.82930  0.19259  Biso   1.000  C
  C163     1.0000 0.66445  0.32930  0.30741  Biso   1.000  C
  C164     1.0000 0.33555  0.32930  0.19259  Biso   1.000  C
  C165     1.0000 0.83555  0.17070  0.69259  Biso   1.000  C
  C166     1.0000 0.16445  0.17070  0.80741  Biso   1.000  C
  C167     1.0000 0.33555  0.67070  0.69259  Biso   1.000  C
  C168     1.0000 0.66445  0.67070  0.80741  Biso   1.000  C
  H113     1.0000 0.17770  0.79500  0.35280  Biso   1.000  H
  H114     1.0000 0.82230  0.79500  0.14720  Biso   1.000  H
  H115     1.0000 0.67770  0.29500  0.35280  Biso   1.000  H
  H116     1.0000 0.32230  0.29500  0.14720  Biso   1.000  H
  H117     1.0000 0.82230  0.20500  0.64720  Biso   1.000  H
  H118     1.0000 0.17770  0.20500  0.85280  Biso   1.000  H
  H119     1.0000 0.32230  0.70500  0.64720  Biso   1.000  H
  H120     1.0000 0.67770  0.70500  0.85280  Biso   1.000  H
  C169     1.0000 0.13450  0.91340  0.29609  Biso   1.000  C
  C170     1.0000 0.86550  0.91340  0.20391  Biso   1.000  C
  C171     1.0000 0.63450  0.41340  0.29609  Biso   1.000  C
  C172     1.0000 0.36550  0.41340  0.20391  Biso   1.000  C
  C173     1.0000 0.86550  0.08660  0.70391  Biso   1.000  C
  C174     1.0000 0.13450  0.08660  0.79609  Biso   1.000  C
  C175     1.0000 0.36550  0.58660  0.70391  Biso   1.000  C
  C176     1.0000 0.63450  0.58660  0.79609  Biso   1.000  C
  H121     1.0000 0.12760  0.93840  0.33400  Biso   1.000  H
  H122     1.0000 0.87240  0.93840  0.16600  Biso   1.000  H
  H123     1.0000 0.62760  0.43840  0.33400  Biso   1.000  H
  H124     1.0000 0.37240  0.43840  0.16600  Biso   1.000  H
  H125     1.0000 0.87240  0.06160  0.66600  Biso   1.000  H
  H126     1.0000 0.12760  0.06160  0.83400  Biso   1.000  H
  H127     1.0000 0.37240  0.56160  0.66600  Biso   1.000  H
  H128     1.0000 0.62760  0.56160  0.83400  Biso   1.000  H
  C177     1.0000 0.11516  0.95930  0.22813  Biso   1.000  C
  C178     1.0000 0.88484  0.95930  0.27187  Biso   1.000  C
  C179     1.0000 0.61516  0.45930  0.22813  Biso   1.000  C
  C180     1.0000 0.38484  0.45930  0.27187  Biso   1.000  C
  C181     1.0000 0.88484  0.04070  0.77187  Biso   1.000  C
  C182     1.0000 0.11516  0.04070  0.72813  Biso   1.000  C
  C183     1.0000 0.38484  0.54070  0.77187  Biso   1.000  C
  C184     1.0000 0.61516  0.54070  0.72813  Biso   1.000  C
  H129     1.0000 0.09470  0.01300  0.21930  Biso   1.000  H
  H130     1.0000 0.90530  0.01300  0.28070  Biso   1.000  H
  H131     1.0000 0.59470  0.51300  0.21930  Biso   1.000  H
  H132     1.0000 0.40530  0.51300  0.28070  Biso   1.000  H
  H133     1.0000 0.90530  0.98700  0.78070  Biso   1.000  H
  H134     1.0000 0.09470  0.98700  0.71930  Biso   1.000  H
  H135     1.0000 0.40530  0.48700  0.78070  Biso   1.000  H
  H136     1.0000 0.59470  0.48700  0.71930  Biso   1.000  H
  C185     1.0000 0.12626  0.92540  0.17358  Biso   1.000  C
  C186     1.0000 0.87374  0.92540  0.32642  Biso   1.000  C
  C187     1.0000 0.62626  0.42540  0.17358  Biso   1.000  C
  C188     1.0000 0.37374  0.42540  0.32642  Biso   1.000  C
  C189     1.0000 0.87374  0.07460  0.82642  Biso   1.000  C
  C190     1.0000 0.12626  0.07460  0.67358  Biso   1.000  C
  C191     1.0000 0.37374  0.57460  0.82642  Biso   1.000  C
  C192     1.0000 0.62626  0.57460  0.67358  Biso   1.000  C
  H137     1.0000 0.11320  0.95760  0.12770  Biso   1.000  H
  H138     1.0000 0.88680  0.95760  0.37230  Biso   1.000  H
  H139     1.0000 0.61320  0.45760  0.12770  Biso   1.000  H
  H140     1.0000 0.38680  0.45760  0.37230  Biso   1.000  H
  H141     1.0000 0.88680  0.04240  0.87230  Biso   1.000  H
  H142     1.0000 0.11320  0.04240  0.62770  Biso   1.000  H
  H143     1.0000 0.38680  0.54240  0.87230  Biso   1.000  H
  H144     1.0000 0.61320  0.54240  0.62770  Biso   1.000  H
  C193     1.0000 0.09258  0.88480  0.93295  Biso   1.000  C
  C194     1.0000 0.90742  0.88480  0.56705  Biso   1.000  C
  C195     1.0000 0.59258  0.38480  0.93295  Biso   1.000  C
  C196     1.0000 0.40742  0.38480  0.56705  Biso   1.000  C
  C197     1.0000 0.90742  0.11520  0.06705  Biso   1.000  C
  C198     1.0000 0.09258  0.11520  0.43295  Biso   1.000  C
  C199     1.0000 0.40742  0.61520  0.06705  Biso   1.000  C
  C200     1.0000 0.59258  0.61520  0.43295  Biso   1.000  C
  C201     1.0000 0.08498  0.78120  0.87311  Biso   1.000  C
  C202     1.0000 0.91502  0.78120  0.62689  Biso   1.000  C
  C203     1.0000 0.58498  0.28120  0.87311  Biso   1.000  C
  C204     1.0000 0.41502  0.28120  0.62689  Biso   1.000  C
  C205     1.0000 0.91502  0.21880  0.12689  Biso   1.000  C
  C206     1.0000 0.08498  0.21880  0.37311  Biso   1.000  C
  C207     1.0000 0.41502  0.71880  0.12689  Biso   1.000  C
  C208     1.0000 0.58498  0.71880  0.37311  Biso   1.000  C
  H145     1.0000 0.09460  0.67340  0.87710  Biso   1.000  H
  H146     1.0000 0.90540  0.67340  0.62290  Biso   1.000  H
  H147     1.0000 0.59460  0.17340  0.87710  Biso   1.000  H
  H148     1.0000 0.40540  0.17340  0.62290  Biso   1.000  H
  H149     1.0000 0.90540  0.32660  0.12290  Biso   1.000  H
  H150     1.0000 0.09460  0.32660  0.37710  Biso   1.000  H
  H151     1.0000 0.40540  0.82660  0.12290  Biso   1.000  H
  H152     1.0000 0.59460  0.82660  0.37710  Biso   1.000  H
  C209     1.0000 0.06339  0.83570  0.80801  Biso   1.000  C
  C210     1.0000 0.93661  0.83570  0.69199  Biso   1.000  C
  C211     1.0000 0.56339  0.33570  0.80801  Biso   1.000  C
  C212     1.0000 0.43661  0.33570  0.69199  Biso   1.000  C
  C213     1.0000 0.93661  0.16430  0.19199  Biso   1.000  C
  C214     1.0000 0.06339  0.16430  0.30801  Biso   1.000  C
  C215     1.0000 0.43661  0.66430  0.19199  Biso   1.000  C
  C216     1.0000 0.56339  0.66430  0.30801  Biso   1.000  C
  H153     1.0000 0.05830  0.76390  0.76880  Biso   1.000  H
  H154     1.0000 0.94170  0.76390  0.73120  Biso   1.000  H
  H155     1.0000 0.55830  0.26390  0.76880  Biso   1.000  H
  H156     1.0000 0.44170  0.26390  0.73120  Biso   1.000  H
  H157     1.0000 0.94170  0.23610  0.23120  Biso   1.000  H
  H158     1.0000 0.05830  0.23610  0.26880  Biso   1.000  H
  H159     1.0000 0.44170  0.73610  0.23120  Biso   1.000  H
  H160     1.0000 0.55830  0.73610  0.26880  Biso   1.000  H
  C217     1.0000 0.04929  0.99580  0.80086  Biso   1.000  C
  C218     1.0000 0.95071  0.99580  0.69914  Biso   1.000  C
  C219     1.0000 0.54929  0.49580  0.80086  Biso   1.000  C
  C220     1.0000 0.45071  0.49580  0.69914  Biso   1.000  C
  C221     1.0000 0.95071  0.00420  0.19914  Biso   1.000  C
  C222     1.0000 0.04929  0.00420  0.30086  Biso   1.000  C
  C223     1.0000 0.45071  0.50420  0.19914  Biso   1.000  C
  C224     1.0000 0.54929  0.50420  0.30086  Biso   1.000  C
  H161     1.0000 0.03480  0.03300  0.75690  Biso   1.000  H
  H162     1.0000 0.96520  0.03300  0.74310  Biso   1.000  H
  H163     1.0000 0.53480  0.53300  0.75690  Biso   1.000  H
  H164     1.0000 0.46520  0.53300  0.74310  Biso   1.000  H
  H165     1.0000 0.96520  0.96700  0.24310  Biso   1.000  H
  H166     1.0000 0.03480  0.96700  0.25690  Biso   1.000  H
  H167     1.0000 0.46520  0.46700  0.24310  Biso   1.000  H
  H168     1.0000 0.53480  0.46700  0.25690  Biso   1.000  H
  C225     1.0000 0.05687  0.10080  0.85978  Biso   1.000  C
  C226     1.0000 0.94313  0.10080  0.64022  Biso   1.000  C
  C227     1.0000 0.55687  0.60080  0.85978  Biso   1.000  C
  C228     1.0000 0.44313  0.60080  0.64022  Biso   1.000  C
  C229     1.0000 0.94313  0.89920  0.14022  Biso   1.000  C
  C230     1.0000 0.05687  0.89920  0.35978  Biso   1.000  C
  C231     1.0000 0.44313  0.39920  0.14022  Biso   1.000  C
  C232     1.0000 0.55687  0.39920  0.35978  Biso   1.000  C
  H169     1.0000 0.04750  0.20950  0.85490  Biso   1.000  H
  H170     1.0000 0.95250  0.20950  0.64510  Biso   1.000  H
  H171     1.0000 0.54750  0.70950  0.85490  Biso   1.000  H
  H172     1.0000 0.45250  0.70950  0.64510  Biso   1.000  H
  H173     1.0000 0.95250  0.79050  0.14510  Biso   1.000  H
  H174     1.0000 0.04750  0.79050  0.35490  Biso   1.000  H
  H175     1.0000 0.45250  0.29050  0.14510  Biso   1.000  H
  H176     1.0000 0.54750  0.29050  0.35490  Biso   1.000  H
  C233     1.0000 0.07813  0.04760  0.92600  Biso   1.000  C
  C234     1.0000 0.92187  0.04760  0.57400  Biso   1.000  C
  C235     1.0000 0.57813  0.54760  0.92600  Biso   1.000  C
  C236     1.0000 0.42187  0.54760  0.57400  Biso   1.000  C
  C237     1.0000 0.92187  0.95240  0.07400  Biso   1.000  C
  C238     1.0000 0.07813  0.95240  0.42600  Biso   1.000  C
  C239     1.0000 0.42187  0.45240  0.07400  Biso   1.000  C
  C240     1.0000 0.57813  0.45240  0.42600  Biso   1.000  C
  C241     1.0000 0.08171  0.15940  0.98928  Biso   1.000  C
  C242     1.0000 0.91829  0.15940  0.51072  Biso   1.000  C
  C243     1.0000 0.58171  0.65940  0.98928  Biso   1.000  C
  C244     1.0000 0.41829  0.65940  0.51072  Biso   1.000  C
  C245     1.0000 0.91829  0.84060  0.01072  Biso   1.000  C
  C246     1.0000 0.08171  0.84060  0.48928  Biso   1.000  C
  C247     1.0000 0.41829  0.34060  0.01072  Biso   1.000  C
  C248     1.0000 0.58171  0.34060  0.48928  Biso   1.000  C
  C249     1.0000 0.11756  0.81690  0.00059  Biso   1.000  C
  C250     1.0000 0.88244  0.81690  0.49941  Biso   1.000  C
  C251     1.0000 0.61756  0.31690  0.00059  Biso   1.000  C
  C252     1.0000 0.38244  0.31690  0.49941  Biso   1.000  C
  C253     1.0000 0.88244  0.18310  0.99941  Biso   1.000  C
  C254     1.0000 0.11756  0.18310  0.50059  Biso   1.000  C
  C255     1.0000 0.38244  0.68310  0.99941  Biso   1.000  C
  C256     1.0000 0.61756  0.68310  0.50059  Biso   1.000  C
  O73      1.0000 0.00000  0.55930  0.25000  Biso   1.000  O
  O74      1.0000 0.50000  0.05930  0.25000  Biso   1.000  O
  O75      1.0000 0.00000  0.44070  0.75000  Biso   1.000  O
  O76      1.0000 0.50000  0.94070  0.75000  Biso   1.000  O
  H177     1.0000 0.01720  0.59900  0.24900  Biso   1.000  H
  H178     1.0000 0.98280  0.59900  0.25100  Biso   1.000  H
  H179     1.0000 0.51720  0.09900  0.24900  Biso   1.000  H
  H180     1.0000 0.48280  0.09900  0.25100  Biso   1.000  H
  H181     1.0000 0.98280  0.40100  0.75100  Biso   1.000  H
  H182     1.0000 0.01720  0.40100  0.74900  Biso   1.000  H
  H183     1.0000 0.48280  0.90100  0.75100  Biso   1.000  H
  H184     1.0000 0.51720  0.90100  0.74900  Biso   1.000  H
  O77      1.0000 0.17638  0.16640  0.98436  Biso   1.000  O
  O78      1.0000 0.82362  0.16640  0.51564  Biso   1.000  O
  O79      1.0000 0.67638  0.66640  0.98436  Biso   1.000  O
  O80      1.0000 0.32362  0.66640  0.51564  Biso   1.000  O
  O81      1.0000 0.82362  0.83360  0.01564  Biso   1.000  O
  O82      1.0000 0.17638  0.83360  0.48436  Biso   1.000  O
  O83      1.0000 0.32362  0.33360  0.01564  Biso   1.000  O
  O84      1.0000 0.67638  0.33360  0.48436  Biso   1.000  O
  H185     1.0000 0.16420  0.09300  0.99200  Biso   1.000  H
  H186     1.0000 0.83580  0.09300  0.50800  Biso   1.000  H
  H187     1.0000 0.66420  0.59300  0.99200  Biso   1.000  H
  H188     1.0000 0.33580  0.59300  0.50800  Biso   1.000  H
  H189     1.0000 0.83580  0.90700  0.00800  Biso   1.000  H
  H190     1.0000 0.16420  0.90700  0.49200  Biso   1.000  H
  H191     1.0000 0.33580  0.40700  0.00800  Biso   1.000  H
  H192     1.0000 0.66420  0.40700  0.49200  Biso   1.000  H
  H193     1.0000 0.16520  0.24800  0.96400  Biso   1.000  H
  H194     1.0000 0.83480  0.24800  0.53600  Biso   1.000  H
  H195     1.0000 0.66520  0.74800  0.96400  Biso   1.000  H
  H196     1.0000 0.33480  0.74800  0.53600  Biso   1.000  H
  H197     1.0000 0.83480  0.75200  0.03600  Biso   1.000  H
  H198     1.0000 0.16520  0.75200  0.46400  Biso   1.000  H
  H199     1.0000 0.33480  0.25200  0.03600  Biso   1.000  H
  H200     1.0000 0.66520  0.25200  0.46400  Biso   1.000  H
  O85      1.0000 0.12717  0.39790  0.90181  Biso   1.000  O
  O86      1.0000 0.87283  0.39790  0.59819  Biso   1.000  O
  O87      1.0000 0.62717  0.89790  0.90181  Biso   1.000  O
  O88      1.0000 0.37283  0.89790  0.59819  Biso   1.000  O
  O89      1.0000 0.87283  0.60210  0.09819  Biso   1.000  O
  O90      1.0000 0.12717  0.60210  0.40181  Biso   1.000  O
  O91      1.0000 0.37283  0.10210  0.09819  Biso   1.000  O
  O92      1.0000 0.62717  0.10210  0.40181  Biso   1.000  O
  H201     1.0000 0.11500  0.38400  0.86020  Biso   1.000  H
  H202     1.0000 0.88500  0.38400  0.63980  Biso   1.000  H
  H203     1.0000 0.61500  0.88400  0.86020  Biso   1.000  H
  H204     1.0000 0.38500  0.88400  0.63980  Biso   1.000  H
  H205     1.0000 0.88500  0.61600  0.13980  Biso   1.000  H
  H206     1.0000 0.11500  0.61600  0.36020  Biso   1.000  H
  H207     1.0000 0.38500  0.11600  0.13980  Biso   1.000  H
  H208     1.0000 0.61500  0.11600  0.36020  Biso   1.000  H
  H209     1.0000 0.11430  0.38300  0.92540  Biso   1.000  H
  H210     1.0000 0.88570  0.38300  0.57460  Biso   1.000  H
  H211     1.0000 0.61430  0.88300  0.92540  Biso   1.000  H
  H212     1.0000 0.38570  0.88300  0.57460  Biso   1.000  H
  H213     1.0000 0.88570  0.61700  0.07460  Biso   1.000  H
  H214     1.0000 0.11430  0.61700  0.42540  Biso   1.000  H
  H215     1.0000 0.38570  0.11700  0.07460  Biso   1.000  H
  H216     1.0000 0.61430  0.11700  0.42540  Biso   1.000  H
