data_image0
_cell_length_a       8.1582
_cell_length_b       6.362
_cell_length_c       18.679
_cell_angle_alpha    90
_cell_angle_beta     101.862
_cell_angle_gamma    90

_symmetry_space_group_name_H-M    "P 1"
_symmetry_int_tables_number       1

loop_
  _symmetry_equiv_pos_as_xyz
  'x, y, z'

loop_
  _atom_site_label
  _atom_site_occupancy
  _atom_site_fract_x
  _atom_site_fract_y
  _atom_site_fract_z
  _atom_site_thermal_displace_type
  _atom_site_B_iso_or_equiv
  _atom_site_type_symbol
  Cu1      1.0000 0.11209  0.72576  0.50180  Biso   1.000  Cu
  Cu2      1.0000 0.88791  0.22576  0.99820  Biso   1.000  Cu
  Cu3      1.0000 0.88791  0.27424  0.49820  Biso   1.000  Cu
  Cu4      1.0000 0.11209  0.77424  0.00180  Biso   1.000  Cu
  C1       1.0000 0.33560  0.72600  0.63644  Biso   1.000  C
  C2       1.0000 0.66440  0.22600  0.86356  Biso   1.000  C
  C3       1.0000 0.66440  0.27400  0.36356  Biso   1.000  C
  C4       1.0000 0.33560  0.77400  0.13644  Biso   1.000  C
  C5       1.0000 0.23730  0.92620  0.63423  Biso   1.000  C
  C6       1.0000 0.76270  0.42620  0.86577  Biso   1.000  C
  C7       1.0000 0.76270  0.07380  0.36577  Biso   1.000  C
  C8       1.0000 0.23730  0.57380  0.13423  Biso   1.000  C
  C9       1.0000 0.22600  0.10110  0.67817  Biso   1.000  C
  C10      1.0000 0.77400  0.60110  0.82183  Biso   1.000  C
  C11      1.0000 0.77400  0.89890  0.32183  Biso   1.000  C
  C12      1.0000 0.22600  0.39890  0.17817  Biso   1.000  C
  H1       1.0000 0.28430  0.12660  0.72560  Biso   1.000  H
  H2       1.0000 0.71570  0.62660  0.77440  Biso   1.000  H
  H3       1.0000 0.71570  0.87340  0.27440  Biso   1.000  H
  H4       1.0000 0.28430  0.37340  0.22560  Biso   1.000  H
  C13      1.0000 0.10670  0.22880  0.63437  Biso   1.000  C
  C14      1.0000 0.89330  0.72880  0.86563  Biso   1.000  C
  C15      1.0000 0.89330  0.77120  0.36563  Biso   1.000  C
  C16      1.0000 0.10670  0.27120  0.13437  Biso   1.000  C
  C17      1.0000 0.02250  0.43540  0.63753  Biso   1.000  C
  C18      1.0000 0.97750  0.93540  0.86247  Biso   1.000  C
  C19      1.0000 0.97750  0.56460  0.36247  Biso   1.000  C
  C20      1.0000 0.02250  0.06460  0.13753  Biso   1.000  C
  C21      1.0000 0.38330  0.71400  0.85036  Biso   1.000  C
  C22      1.0000 0.61670  0.21400  0.64964  Biso   1.000  C
  C23      1.0000 0.61670  0.28600  0.14964  Biso   1.000  C
  C24      1.0000 0.38330  0.78600  0.35036  Biso   1.000  C
  H5       1.0000 0.40110  0.82920  0.82230  Biso   1.000  H
  H6       1.0000 0.59890  0.32920  0.67770  Biso   1.000  H
  H7       1.0000 0.59890  0.17080  0.17770  Biso   1.000  H
  H8       1.0000 0.40110  0.67080  0.32230  Biso   1.000  H
  C25      1.0000 0.47290  0.69250  0.92106  Biso   1.000  C
  C26      1.0000 0.52710  0.19250  0.57894  Biso   1.000  C
  C27      1.0000 0.52710  0.30750  0.07894  Biso   1.000  C
  C28      1.0000 0.47290  0.80750  0.42106  Biso   1.000  C
  H9       1.0000 0.54940  0.79560  0.94130  Biso   1.000  H
  H10      1.0000 0.45060  0.29560  0.55870  Biso   1.000  H
  H11      1.0000 0.45060  0.20440  0.05870  Biso   1.000  H
  H12      1.0000 0.54940  0.70440  0.44130  Biso   1.000  H
  C29      1.0000 0.44910  0.51650  0.96242  Biso   1.000  C
  C30      1.0000 0.55090  0.01650  0.53758  Biso   1.000  C
  C31      1.0000 0.55090  0.48350  0.03758  Biso   1.000  C
  C32      1.0000 0.44910  0.98350  0.46242  Biso   1.000  C
  C33      1.0000 0.32840  0.37020  0.93080  Biso   1.000  C
  C34      1.0000 0.67160  0.87020  0.56920  Biso   1.000  C
  C35      1.0000 0.67160  0.62980  0.06920  Biso   1.000  C
  C36      1.0000 0.32840  0.12980  0.43080  Biso   1.000  C
  H13      1.0000 0.30780  0.25250  0.95710  Biso   1.000  H
  H14      1.0000 0.69220  0.75250  0.54290  Biso   1.000  H
  H15      1.0000 0.69220  0.74750  0.04290  Biso   1.000  H
  H16      1.0000 0.30780  0.24750  0.45710  Biso   1.000  H
  C37      1.0000 0.23990  0.40060  0.86062  Biso   1.000  C
  C38      1.0000 0.76010  0.90060  0.63938  Biso   1.000  C
  C39      1.0000 0.76010  0.59940  0.13938  Biso   1.000  C
  C40      1.0000 0.23990  0.09940  0.36062  Biso   1.000  C
  H17      1.0000 0.15840  0.30430  0.83960  Biso   1.000  H
  H18      1.0000 0.84160  0.80430  0.66040  Biso   1.000  H
  H19      1.0000 0.84160  0.69570  0.16040  Biso   1.000  H
  H20      1.0000 0.15840  0.19570  0.33960  Biso   1.000  H
  N1       1.0000 0.13150  0.95170  0.56971  Biso   1.000  N
  N2       1.0000 0.86850  0.45170  0.93029  Biso   1.000  N
  N3       1.0000 0.86850  0.04830  0.43029  Biso   1.000  N
  N4       1.0000 0.13150  0.54830  0.06971  Biso   1.000  N
  N5       1.0000 0.05350  0.13460  0.56948  Biso   1.000  N
  N6       1.0000 0.94650  0.63460  0.93052  Biso   1.000  N
  N7       1.0000 0.94650  0.86540  0.43052  Biso   1.000  N
  N8       1.0000 0.05350  0.36540  0.06948  Biso   1.000  N
  N9       1.0000 0.27070  0.56810  0.82268  Biso   1.000  N
  N10      1.0000 0.72930  0.06810  0.67732  Biso   1.000  N
  N11      1.0000 0.72930  0.43190  0.17732  Biso   1.000  N
  N12      1.0000 0.27070  0.93190  0.32268  Biso   1.000  N
  H21      1.0000 0.21580  0.58260  0.77850  Biso   1.000  H
  H22      1.0000 0.78420  0.08260  0.72150  Biso   1.000  H
  H23      1.0000 0.78420  0.41740  0.22150  Biso   1.000  H
  H24      1.0000 0.21580  0.91740  0.27850  Biso   1.000  H
  O1       1.0000 0.29805  0.61620  0.57641  Biso   1.000  O
  O2       1.0000 0.70195  0.11620  0.92359  Biso   1.000  O
  O3       1.0000 0.70195  0.38380  0.42359  Biso   1.000  O
  O4       1.0000 0.29805  0.88380  0.07641  Biso   1.000  O
  O5       1.0000 0.44127  0.67630  0.69028  Biso   1.000  O
  O6       1.0000 0.55873  0.17630  0.80972  Biso   1.000  O
  O7       1.0000 0.55873  0.32370  0.30972  Biso   1.000  O
  O8       1.0000 0.44127  0.82370  0.19028  Biso   1.000  O
  O9       1.0000 0.92084  0.48920  0.57719  Biso   1.000  O
  O10      1.0000 0.07916  0.98920  0.92281  Biso   1.000  O
  O11      1.0000 0.07916  0.51080  0.42281  Biso   1.000  O
  O12      1.0000 0.92084  0.01080  0.07719  Biso   1.000  O
  O13      1.0000 0.04633  0.54470  0.69333  Biso   1.000  O
  O14      1.0000 0.95367  0.04470  0.80667  Biso   1.000  O
  O15      1.0000 0.95367  0.45530  0.30667  Biso   1.000  O
  O16      1.0000 0.04633  0.95530  0.19333  Biso   1.000  O
