data_image0
_cell_length_a       18.5943
_cell_length_b       18.5943
_cell_length_c       19.761
_cell_angle_alpha    90
_cell_angle_beta     90
_cell_angle_gamma    120

_symmetry_space_group_name_H-M    "P 1"
_symmetry_int_tables_number       1

loop_
  _symmetry_equiv_pos_as_xyz
  'x, y, z'

loop_
  _atom_site_label
  _atom_site_occupancy
  _atom_site_fract_x
  _atom_site_fract_y
  _atom_site_fract_z
  _atom_site_thermal_displace_type
  _atom_site_B_iso_or_equiv
  _atom_site_type_symbol
  C1       1.0000 0.55580  0.15600  0.99270  Biso   1.000  C
  C2       1.0000 0.84400  0.39980  0.99270  Biso   1.000  C
  C3       1.0000 0.60020  0.44420  0.99270  Biso   1.000  C
  C4       1.0000 0.22247  0.48933  0.32603  Biso   1.000  C
  C5       1.0000 0.51067  0.73313  0.32603  Biso   1.000  C
  C6       1.0000 0.26687  0.77753  0.32603  Biso   1.000  C
  C7       1.0000 0.88913  0.82267  0.65937  Biso   1.000  C
  C8       1.0000 0.17733  0.06647  0.65937  Biso   1.000  C
  C9       1.0000 0.93353  0.11087  0.65937  Biso   1.000  C
  C10      1.0000 0.44420  0.84400  0.00730  Biso   1.000  C
  C11      1.0000 0.15600  0.60020  0.00730  Biso   1.000  C
  C12      1.0000 0.39980  0.55580  0.00730  Biso   1.000  C
  C13      1.0000 0.11087  0.17733  0.34063  Biso   1.000  C
  C14      1.0000 0.82267  0.93353  0.34063  Biso   1.000  C
  C15      1.0000 0.06647  0.88913  0.34063  Biso   1.000  C
  C16      1.0000 0.77753  0.51067  0.67397  Biso   1.000  C
  C17      1.0000 0.48933  0.26687  0.67397  Biso   1.000  C
  C18      1.0000 0.73313  0.22247  0.67397  Biso   1.000  C
  C19      1.0000 0.61340  0.24800  0.99130  Biso   1.000  C
  C20      1.0000 0.75200  0.36540  0.99130  Biso   1.000  C
  C21      1.0000 0.63460  0.38660  0.99130  Biso   1.000  C
  C22      1.0000 0.28007  0.58133  0.32463  Biso   1.000  C
  C23      1.0000 0.41867  0.69873  0.32463  Biso   1.000  C
  C24      1.0000 0.30127  0.71993  0.32463  Biso   1.000  C
  C25      1.0000 0.94673  0.91467  0.65797  Biso   1.000  C
  C26      1.0000 0.08533  0.03207  0.65797  Biso   1.000  C
  C27      1.0000 0.96793  0.05327  0.65797  Biso   1.000  C
  C28      1.0000 0.38660  0.75200  0.00870  Biso   1.000  C
  C29      1.0000 0.24800  0.63460  0.00870  Biso   1.000  C
  C30      1.0000 0.36540  0.61340  0.00870  Biso   1.000  C
  C31      1.0000 0.05327  0.08533  0.34203  Biso   1.000  C
  C32      1.0000 0.91467  0.96793  0.34203  Biso   1.000  C
  C33      1.0000 0.03207  0.94673  0.34203  Biso   1.000  C
  C34      1.0000 0.71993  0.41867  0.67537  Biso   1.000  C
  C35      1.0000 0.58133  0.30127  0.67537  Biso   1.000  C
  C36      1.0000 0.69873  0.28007  0.67537  Biso   1.000  C
  C37      1.0000 0.69900  0.28040  0.99120  Biso   1.000  C
  C38      1.0000 0.71960  0.41860  0.99120  Biso   1.000  C
  C39      1.0000 0.58140  0.30100  0.99120  Biso   1.000  C
  C40      1.0000 0.36567  0.61373  0.32453  Biso   1.000  C
  C41      1.0000 0.38627  0.75193  0.32453  Biso   1.000  C
  C42      1.0000 0.24807  0.63433  0.32453  Biso   1.000  C
  C43      1.0000 0.03233  0.94707  0.65787  Biso   1.000  C
  C44      1.0000 0.05293  0.08527  0.65787  Biso   1.000  C
  C45      1.0000 0.91473  0.96767  0.65787  Biso   1.000  C
  C46      1.0000 0.30100  0.71960  0.00880  Biso   1.000  C
  C47      1.0000 0.28040  0.58140  0.00880  Biso   1.000  C
  C48      1.0000 0.41860  0.69900  0.00880  Biso   1.000  C
  C49      1.0000 0.96767  0.05293  0.34213  Biso   1.000  C
  C50      1.0000 0.94707  0.91473  0.34213  Biso   1.000  C
  C51      1.0000 0.08527  0.03233  0.34213  Biso   1.000  C
  C52      1.0000 0.63433  0.38627  0.67547  Biso   1.000  C
  C53      1.0000 0.61373  0.24807  0.67547  Biso   1.000  C
  C54      1.0000 0.75193  0.36567  0.67547  Biso   1.000  C
  H1       1.0000 0.72060  0.24480  0.99090  Biso   1.000  H
  H2       1.0000 0.75520  0.47580  0.99090  Biso   1.000  H
  H3       1.0000 0.52420  0.27940  0.99090  Biso   1.000  H
  H4       1.0000 0.38727  0.57813  0.32423  Biso   1.000  H
  H5       1.0000 0.42187  0.80913  0.32423  Biso   1.000  H
  H6       1.0000 0.19087  0.61273  0.32423  Biso   1.000  H
  H7       1.0000 0.05393  0.91147  0.65757  Biso   1.000  H
  H8       1.0000 0.08853  0.14247  0.65757  Biso   1.000  H
  H9       1.0000 0.85753  0.94607  0.65757  Biso   1.000  H
  H10      1.0000 0.27940  0.75520  0.00910  Biso   1.000  H
  H11      1.0000 0.24480  0.52420  0.00910  Biso   1.000  H
  H12      1.0000 0.47580  0.72060  0.00910  Biso   1.000  H
  H13      1.0000 0.94607  0.08853  0.34243  Biso   1.000  H
  H14      1.0000 0.91147  0.85753  0.34243  Biso   1.000  H
  H15      1.0000 0.14247  0.05393  0.34243  Biso   1.000  H
  H16      1.0000 0.61273  0.42187  0.67577  Biso   1.000  H
  H17      1.0000 0.57813  0.19087  0.67577  Biso   1.000  H
  H18      1.0000 0.80913  0.38727  0.67577  Biso   1.000  H
  C55      1.0000 0.40890  0.96050  0.87210  Biso   1.000  C
  C56      1.0000 0.03950  0.44840  0.87210  Biso   1.000  C
  C57      1.0000 0.55160  0.59110  0.87210  Biso   1.000  C
  C58      1.0000 0.07557  0.29383  0.20543  Biso   1.000  C
  C59      1.0000 0.70617  0.78173  0.20543  Biso   1.000  C
  C60      1.0000 0.21827  0.92443  0.20543  Biso   1.000  C
  C61      1.0000 0.74223  0.62717  0.53877  Biso   1.000  C
  C62      1.0000 0.37283  0.11507  0.53877  Biso   1.000  C
  C63      1.0000 0.88493  0.25777  0.53877  Biso   1.000  C
  C64      1.0000 0.59110  0.03950  0.12790  Biso   1.000  C
  C65      1.0000 0.96050  0.55160  0.12790  Biso   1.000  C
  C66      1.0000 0.44840  0.40890  0.12790  Biso   1.000  C
  C67      1.0000 0.25777  0.37283  0.46123  Biso   1.000  C
  C68      1.0000 0.62717  0.88493  0.46123  Biso   1.000  C
  C69      1.0000 0.11507  0.74223  0.46123  Biso   1.000  C
  C70      1.0000 0.92443  0.70617  0.79457  Biso   1.000  C
  C71      1.0000 0.29383  0.21827  0.79457  Biso   1.000  C
  C72      1.0000 0.78173  0.07557  0.79457  Biso   1.000  C
  H19      1.0000 0.36350  0.93890  0.90110  Biso   1.000  H
  H20      1.0000 0.06110  0.42460  0.90110  Biso   1.000  H
  H21      1.0000 0.57540  0.63650  0.90110  Biso   1.000  H
  H22      1.0000 0.03017  0.27223  0.23443  Biso   1.000  H
  H23      1.0000 0.72777  0.75793  0.23443  Biso   1.000  H
  H24      1.0000 0.24207  0.96983  0.23443  Biso   1.000  H
  H25      1.0000 0.69683  0.60557  0.56777  Biso   1.000  H
  H26      1.0000 0.39443  0.09127  0.56777  Biso   1.000  H
  H27      1.0000 0.90873  0.30317  0.56777  Biso   1.000  H
  H28      1.0000 0.63650  0.06110  0.09890  Biso   1.000  H
  H29      1.0000 0.93890  0.57540  0.09890  Biso   1.000  H
  H30      1.0000 0.42460  0.36350  0.09890  Biso   1.000  H
  H31      1.0000 0.30317  0.39443  0.43223  Biso   1.000  H
  H32      1.0000 0.60557  0.90873  0.43223  Biso   1.000  H
  H33      1.0000 0.09127  0.69683  0.43223  Biso   1.000  H
  H34      1.0000 0.96983  0.72777  0.76557  Biso   1.000  H
  H35      1.0000 0.27223  0.24207  0.76557  Biso   1.000  H
  H36      1.0000 0.75793  0.03017  0.76557  Biso   1.000  H
  C73      1.0000 0.39520  0.95770  0.80420  Biso   1.000  C
  C74      1.0000 0.04230  0.43750  0.80420  Biso   1.000  C
  C75      1.0000 0.56250  0.60480  0.80420  Biso   1.000  C
  C76      1.0000 0.06187  0.29103  0.13753  Biso   1.000  C
  C77      1.0000 0.70897  0.77083  0.13753  Biso   1.000  C
  C78      1.0000 0.22917  0.93813  0.13753  Biso   1.000  C
  C79      1.0000 0.72853  0.62437  0.47087  Biso   1.000  C
  C80      1.0000 0.37563  0.10417  0.47087  Biso   1.000  C
  C81      1.0000 0.89583  0.27147  0.47087  Biso   1.000  C
  C82      1.0000 0.60480  0.04230  0.19580  Biso   1.000  C
  C83      1.0000 0.95770  0.56250  0.19580  Biso   1.000  C
  C84      1.0000 0.43750  0.39520  0.19580  Biso   1.000  C
  C85      1.0000 0.27147  0.37563  0.52913  Biso   1.000  C
  C86      1.0000 0.62437  0.89583  0.52913  Biso   1.000  C
  C87      1.0000 0.10417  0.72853  0.52913  Biso   1.000  C
  C88      1.0000 0.93813  0.70897  0.86247  Biso   1.000  C
  C89      1.0000 0.29103  0.22917  0.86247  Biso   1.000  C
  C90      1.0000 0.77083  0.06187  0.86247  Biso   1.000  C
  H37      1.0000 0.34120  0.93550  0.78810  Biso   1.000  H
  H38      1.0000 0.06450  0.40570  0.78810  Biso   1.000  H
  H39      1.0000 0.59430  0.65880  0.78810  Biso   1.000  H
  H40      1.0000 0.00787  0.26883  0.12143  Biso   1.000  H
  H41      1.0000 0.73117  0.73903  0.12143  Biso   1.000  H
  H42      1.0000 0.26097  0.99213  0.12143  Biso   1.000  H
  H43      1.0000 0.67453  0.60217  0.45477  Biso   1.000  H
  H44      1.0000 0.39783  0.07237  0.45477  Biso   1.000  H
  H45      1.0000 0.92763  0.32547  0.45477  Biso   1.000  H
  H46      1.0000 0.65880  0.06450  0.21190  Biso   1.000  H
  H47      1.0000 0.93550  0.59430  0.21190  Biso   1.000  H
  H48      1.0000 0.40570  0.34120  0.21190  Biso   1.000  H
  H49      1.0000 0.32547  0.39783  0.54523  Biso   1.000  H
  H50      1.0000 0.60217  0.92763  0.54523  Biso   1.000  H
  H51      1.0000 0.07237  0.67453  0.54523  Biso   1.000  H
  H52      1.0000 0.99213  0.73117  0.87857  Biso   1.000  H
  H53      1.0000 0.26883  0.26097  0.87857  Biso   1.000  H
  H54      1.0000 0.73903  0.00787  0.87857  Biso   1.000  H
  C91      1.0000 0.54770  0.02220  0.85570  Biso   1.000  C
  C92      1.0000 0.97780  0.52550  0.85570  Biso   1.000  C
  C93      1.0000 0.47450  0.45230  0.85570  Biso   1.000  C
  C94      1.0000 0.21437  0.35553  0.18903  Biso   1.000  C
  C95      1.0000 0.64447  0.85883  0.18903  Biso   1.000  C
  C96      1.0000 0.14117  0.78563  0.18903  Biso   1.000  C
  C97      1.0000 0.88103  0.68887  0.52237  Biso   1.000  C
  C98      1.0000 0.31113  0.19217  0.52237  Biso   1.000  C
  C99      1.0000 0.80783  0.11897  0.52237  Biso   1.000  C
  C100     1.0000 0.45230  0.97780  0.14430  Biso   1.000  C
  C101     1.0000 0.02220  0.47450  0.14430  Biso   1.000  C
  C102     1.0000 0.52550  0.54770  0.14430  Biso   1.000  C
  C103     1.0000 0.11897  0.31113  0.47763  Biso   1.000  C
  C104     1.0000 0.68887  0.80783  0.47763  Biso   1.000  C
  C105     1.0000 0.19217  0.88103  0.47763  Biso   1.000  C
  C106     1.0000 0.78563  0.64447  0.81097  Biso   1.000  C
  C107     1.0000 0.35553  0.14117  0.81097  Biso   1.000  C
  C108     1.0000 0.85883  0.21437  0.81097  Biso   1.000  C
  H55      1.0000 0.60100  0.04500  0.87340  Biso   1.000  H
  H56      1.0000 0.95500  0.55600  0.87340  Biso   1.000  H
  H57      1.0000 0.44400  0.39900  0.87340  Biso   1.000  H
  H58      1.0000 0.26767  0.37833  0.20673  Biso   1.000  H
  H59      1.0000 0.62167  0.88933  0.20673  Biso   1.000  H
  H60      1.0000 0.11067  0.73233  0.20673  Biso   1.000  H
  H61      1.0000 0.93433  0.71167  0.54007  Biso   1.000  H
  H62      1.0000 0.28833  0.22267  0.54007  Biso   1.000  H
  H63      1.0000 0.77733  0.06567  0.54007  Biso   1.000  H
  H64      1.0000 0.39900  0.95500  0.12660  Biso   1.000  H
  H65      1.0000 0.04500  0.44400  0.12660  Biso   1.000  H
  H66      1.0000 0.55600  0.60100  0.12660  Biso   1.000  H
  H67      1.0000 0.06567  0.28833  0.45993  Biso   1.000  H
  H68      1.0000 0.71167  0.77733  0.45993  Biso   1.000  H
  H69      1.0000 0.22267  0.93433  0.45993  Biso   1.000  H
  H70      1.0000 0.73233  0.62167  0.79327  Biso   1.000  H
  H71      1.0000 0.37833  0.11067  0.79327  Biso   1.000  H
  H72      1.0000 0.88933  0.26767  0.79327  Biso   1.000  H
  C109     1.0000 0.53890  0.02080  0.78640  Biso   1.000  C
  C110     1.0000 0.97920  0.51810  0.78640  Biso   1.000  C
  C111     1.0000 0.48190  0.46110  0.78640  Biso   1.000  C
  C112     1.0000 0.20557  0.35413  0.11973  Biso   1.000  C
  C113     1.0000 0.64587  0.85143  0.11973  Biso   1.000  C
  C114     1.0000 0.14857  0.79443  0.11973  Biso   1.000  C
  C115     1.0000 0.87223  0.68747  0.45307  Biso   1.000  C
  C116     1.0000 0.31253  0.18477  0.45307  Biso   1.000  C
  C117     1.0000 0.81523  0.12777  0.45307  Biso   1.000  C
  C118     1.0000 0.46110  0.97920  0.21360  Biso   1.000  C
  C119     1.0000 0.02080  0.48190  0.21360  Biso   1.000  C
  C120     1.0000 0.51810  0.53890  0.21360  Biso   1.000  C
  C121     1.0000 0.12777  0.31253  0.54693  Biso   1.000  C
  C122     1.0000 0.68747  0.81523  0.54693  Biso   1.000  C
  C123     1.0000 0.18477  0.87223  0.54693  Biso   1.000  C
  C124     1.0000 0.79443  0.64587  0.88027  Biso   1.000  C
  C125     1.0000 0.35413  0.14857  0.88027  Biso   1.000  C
  C126     1.0000 0.85143  0.20557  0.88027  Biso   1.000  C
  H73      1.0000 0.58520  0.04210  0.75840  Biso   1.000  H
  H74      1.0000 0.95790  0.54310  0.75840  Biso   1.000  H
  H75      1.0000 0.45690  0.41480  0.75840  Biso   1.000  H
  H76      1.0000 0.25187  0.37543  0.09173  Biso   1.000  H
  H77      1.0000 0.62457  0.87643  0.09173  Biso   1.000  H
  H78      1.0000 0.12357  0.74813  0.09173  Biso   1.000  H
  H79      1.0000 0.91853  0.70877  0.42507  Biso   1.000  H
  H80      1.0000 0.29123  0.20977  0.42507  Biso   1.000  H
  H81      1.0000 0.79023  0.08147  0.42507  Biso   1.000  H
  H82      1.0000 0.41480  0.95790  0.24160  Biso   1.000  H
  H83      1.0000 0.04210  0.45690  0.24160  Biso   1.000  H
  H84      1.0000 0.54310  0.58520  0.24160  Biso   1.000  H
  H85      1.0000 0.08147  0.29123  0.57493  Biso   1.000  H
  H86      1.0000 0.70877  0.79023  0.57493  Biso   1.000  H
  H87      1.0000 0.20977  0.91853  0.57493  Biso   1.000  H
  H88      1.0000 0.74813  0.62457  0.90827  Biso   1.000  H
  H89      1.0000 0.37543  0.12357  0.90827  Biso   1.000  H
  H90      1.0000 0.87643  0.25187  0.90827  Biso   1.000  H
  C127     1.0000 0.46020  0.98740  0.75920  Biso   1.000  C
  C128     1.0000 0.01260  0.47280  0.75920  Biso   1.000  C
  C129     1.0000 0.52720  0.53980  0.75920  Biso   1.000  C
  C130     1.0000 0.12687  0.32073  0.09253  Biso   1.000  C
  C131     1.0000 0.67927  0.80613  0.09253  Biso   1.000  C
  C132     1.0000 0.19387  0.87313  0.09253  Biso   1.000  C
  C133     1.0000 0.79353  0.65407  0.42587  Biso   1.000  C
  C134     1.0000 0.34593  0.13947  0.42587  Biso   1.000  C
  C135     1.0000 0.86053  0.20647  0.42587  Biso   1.000  C
  C136     1.0000 0.53980  0.01260  0.24080  Biso   1.000  C
  C137     1.0000 0.98740  0.52720  0.24080  Biso   1.000  C
  C138     1.0000 0.47280  0.46020  0.24080  Biso   1.000  C
  C139     1.0000 0.20647  0.34593  0.57413  Biso   1.000  C
  C140     1.0000 0.65407  0.86053  0.57413  Biso   1.000  C
  C141     1.0000 0.13947  0.79353  0.57413  Biso   1.000  C
  C142     1.0000 0.87313  0.67927  0.90747  Biso   1.000  C
  C143     1.0000 0.32073  0.19387  0.90747  Biso   1.000  C
  C144     1.0000 0.80613  0.12687  0.90747  Biso   1.000  C
  C145     1.0000 0.44050  0.98210  0.68440  Biso   1.000  C
  C146     1.0000 0.01790  0.45840  0.68440  Biso   1.000  C
  C147     1.0000 0.54160  0.55950  0.68440  Biso   1.000  C
  C148     1.0000 0.10717  0.31543  0.01773  Biso   1.000  C
  C149     1.0000 0.68457  0.79173  0.01773  Biso   1.000  C
  C150     1.0000 0.20827  0.89283  0.01773  Biso   1.000  C
  C151     1.0000 0.77383  0.64877  0.35107  Biso   1.000  C
  C152     1.0000 0.35123  0.12507  0.35107  Biso   1.000  C
  C153     1.0000 0.87493  0.22617  0.35107  Biso   1.000  C
  C154     1.0000 0.55950  0.01790  0.31560  Biso   1.000  C
  C155     1.0000 0.98210  0.54160  0.31560  Biso   1.000  C
  C156     1.0000 0.45840  0.44050  0.31560  Biso   1.000  C
  C157     1.0000 0.22617  0.35123  0.64893  Biso   1.000  C
  C158     1.0000 0.64877  0.87493  0.64893  Biso   1.000  C
  C159     1.0000 0.12507  0.77383  0.64893  Biso   1.000  C
  C160     1.0000 0.89283  0.68457  0.98227  Biso   1.000  C
  C161     1.0000 0.31543  0.20827  0.98227  Biso   1.000  C
  C162     1.0000 0.79173  0.10717  0.98227  Biso   1.000  C
  C163     1.0000 0.49980  0.00410  0.57070  Biso   1.000  C
  C164     1.0000 0.99590  0.49570  0.57070  Biso   1.000  C
  C165     1.0000 0.50430  0.50020  0.57070  Biso   1.000  C
  C166     1.0000 0.16647  0.33743  0.90403  Biso   1.000  C
  C167     1.0000 0.66257  0.82903  0.90403  Biso   1.000  C
  C168     1.0000 0.17097  0.83353  0.90403  Biso   1.000  C
  C169     1.0000 0.83313  0.67077  0.23737  Biso   1.000  C
  C170     1.0000 0.32923  0.16237  0.23737  Biso   1.000  C
  C171     1.0000 0.83763  0.16687  0.23737  Biso   1.000  C
  C172     1.0000 0.50020  0.99590  0.42930  Biso   1.000  C
  C173     1.0000 0.00410  0.50430  0.42930  Biso   1.000  C
  C174     1.0000 0.49570  0.49980  0.42930  Biso   1.000  C
  C175     1.0000 0.16687  0.32923  0.76263  Biso   1.000  C
  C176     1.0000 0.67077  0.83763  0.76263  Biso   1.000  C
  C177     1.0000 0.16237  0.83313  0.76263  Biso   1.000  C
  C178     1.0000 0.83353  0.66257  0.09597  Biso   1.000  C
  C179     1.0000 0.33743  0.17097  0.09597  Biso   1.000  C
  C180     1.0000 0.82903  0.16647  0.09597  Biso   1.000  C
  C181     1.0000 0.56770  0.05970  0.53410  Biso   1.000  C
  C182     1.0000 0.94030  0.50800  0.53410  Biso   1.000  C
  C183     1.0000 0.49200  0.43230  0.53410  Biso   1.000  C
  C184     1.0000 0.23437  0.39303  0.86743  Biso   1.000  C
  C185     1.0000 0.60697  0.84133  0.86743  Biso   1.000  C
  C186     1.0000 0.15867  0.76563  0.86743  Biso   1.000  C
  C187     1.0000 0.90103  0.72637  0.20077  Biso   1.000  C
  C188     1.0000 0.27363  0.17467  0.20077  Biso   1.000  C
  C189     1.0000 0.82533  0.09897  0.20077  Biso   1.000  C
  C190     1.0000 0.43230  0.94030  0.46590  Biso   1.000  C
  C191     1.0000 0.05970  0.49200  0.46590  Biso   1.000  C
  C192     1.0000 0.50800  0.56770  0.46590  Biso   1.000  C
  C193     1.0000 0.09897  0.27363  0.79923  Biso   1.000  C
  C194     1.0000 0.72637  0.82533  0.79923  Biso   1.000  C
  C195     1.0000 0.17467  0.90103  0.79923  Biso   1.000  C
  C196     1.0000 0.76563  0.60697  0.13257  Biso   1.000  C
  C197     1.0000 0.39303  0.15867  0.13257  Biso   1.000  C
  C198     1.0000 0.84133  0.23437  0.13257  Biso   1.000  C
  H91      1.0000 0.61390  0.10050  0.55690  Biso   1.000  H
  H92      1.0000 0.89950  0.51340  0.55690  Biso   1.000  H
  H93      1.0000 0.48660  0.38610  0.55690  Biso   1.000  H
  H94      1.0000 0.28057  0.43383  0.89023  Biso   1.000  H
  H95      1.0000 0.56617  0.84673  0.89023  Biso   1.000  H
  H96      1.0000 0.15327  0.71943  0.89023  Biso   1.000  H
  H97      1.0000 0.94723  0.76717  0.22357  Biso   1.000  H
  H98      1.0000 0.23283  0.18007  0.22357  Biso   1.000  H
  H99      1.0000 0.81993  0.05277  0.22357  Biso   1.000  H
  H100     1.0000 0.38610  0.89950  0.44310  Biso   1.000  H
  H101     1.0000 0.10050  0.48660  0.44310  Biso   1.000  H
  H102     1.0000 0.51340  0.61390  0.44310  Biso   1.000  H
  H103     1.0000 0.05277  0.23283  0.77643  Biso   1.000  H
  H104     1.0000 0.76717  0.81993  0.77643  Biso   1.000  H
  H105     1.0000 0.18007  0.94723  0.77643  Biso   1.000  H
  H106     1.0000 0.71943  0.56617  0.10977  Biso   1.000  H
  H107     1.0000 0.43383  0.15327  0.10977  Biso   1.000  H
  H108     1.0000 0.84673  0.28057  0.10977  Biso   1.000  H
  C199     1.0000 0.43090  0.94330  0.53630  Biso   1.000  C
  C200     1.0000 0.05670  0.48760  0.53630  Biso   1.000  C
  C201     1.0000 0.51240  0.56910  0.53630  Biso   1.000  C
  C202     1.0000 0.09757  0.27663  0.86963  Biso   1.000  C
  C203     1.0000 0.72337  0.82093  0.86963  Biso   1.000  C
  C204     1.0000 0.17907  0.90243  0.86963  Biso   1.000  C
  C205     1.0000 0.76423  0.60997  0.20297  Biso   1.000  C
  C206     1.0000 0.39003  0.15427  0.20297  Biso   1.000  C
  C207     1.0000 0.84573  0.23577  0.20297  Biso   1.000  C
  C208     1.0000 0.56910  0.05670  0.46370  Biso   1.000  C
  C209     1.0000 0.94330  0.51240  0.46370  Biso   1.000  C
  C210     1.0000 0.48760  0.43090  0.46370  Biso   1.000  C
  C211     1.0000 0.23577  0.39003  0.79703  Biso   1.000  C
  C212     1.0000 0.60997  0.84573  0.79703  Biso   1.000  C
  C213     1.0000 0.15427  0.76423  0.79703  Biso   1.000  C
  C214     1.0000 0.90243  0.72337  0.13037  Biso   1.000  C
  C215     1.0000 0.27663  0.17907  0.13037  Biso   1.000  C
  C216     1.0000 0.82093  0.09757  0.13037  Biso   1.000  C
  H109     1.0000 0.38410  0.90500  0.56010  Biso   1.000  H
  H110     1.0000 0.09500  0.47910  0.56010  Biso   1.000  H
  H111     1.0000 0.52090  0.61590  0.56010  Biso   1.000  H
  H112     1.0000 0.05077  0.23833  0.89343  Biso   1.000  H
  H113     1.0000 0.76167  0.81243  0.89343  Biso   1.000  H
  H114     1.0000 0.18757  0.94923  0.89343  Biso   1.000  H
  H115     1.0000 0.71743  0.57167  0.22677  Biso   1.000  H
  H116     1.0000 0.42833  0.14577  0.22677  Biso   1.000  H
  H117     1.0000 0.85423  0.28257  0.22677  Biso   1.000  H
  H118     1.0000 0.61590  0.09500  0.43990  Biso   1.000  H
  H119     1.0000 0.90500  0.52090  0.43990  Biso   1.000  H
  H120     1.0000 0.47910  0.38410  0.43990  Biso   1.000  H
  H121     1.0000 0.28257  0.42833  0.77323  Biso   1.000  H
  H122     1.0000 0.57167  0.85423  0.77323  Biso   1.000  H
  H123     1.0000 0.14577  0.71743  0.77323  Biso   1.000  H
  H124     1.0000 0.94923  0.76167  0.10657  Biso   1.000  H
  H125     1.0000 0.23833  0.18757  0.10657  Biso   1.000  H
  H126     1.0000 0.81243  0.05077  0.10657  Biso   1.000  H
  Cu1      1.0000 0.50000  0.00000  0.00000  Biso   1.000  Cu
  Cu2      1.0000 0.00000  0.50000  0.00000  Biso   1.000  Cu
  Cu3      1.0000 0.50000  0.50000  0.00000  Biso   1.000  Cu
  Cu4      1.0000 0.16667  0.33333  0.33333  Biso   1.000  Cu
  Cu5      1.0000 0.66667  0.83333  0.33333  Biso   1.000  Cu
  Cu6      1.0000 0.16667  0.83333  0.33333  Biso   1.000  Cu
  Cu7      1.0000 0.83333  0.66667  0.66667  Biso   1.000  Cu
  Cu8      1.0000 0.33333  0.16667  0.66667  Biso   1.000  Cu
  Cu9      1.0000 0.83333  0.16667  0.66667  Biso   1.000  Cu
  H127     1.0000 0.55800  0.04100  0.65700  Biso   1.000  H
  H128     1.0000 0.95900  0.51700  0.65700  Biso   1.000  H
  H129     1.0000 0.48300  0.44200  0.65700  Biso   1.000  H
  H130     1.0000 0.22467  0.37433  0.99033  Biso   1.000  H
  H131     1.0000 0.62567  0.85033  0.99033  Biso   1.000  H
  H132     1.0000 0.14967  0.77533  0.99033  Biso   1.000  H
  H133     1.0000 0.89133  0.70767  0.32367  Biso   1.000  H
  H134     1.0000 0.29233  0.18367  0.32367  Biso   1.000  H
  H135     1.0000 0.81633  0.10867  0.32367  Biso   1.000  H
  H136     1.0000 0.44200  0.95900  0.34300  Biso   1.000  H
  H137     1.0000 0.04100  0.48300  0.34300  Biso   1.000  H
  H138     1.0000 0.51700  0.55800  0.34300  Biso   1.000  H
  H139     1.0000 0.10867  0.29233  0.67633  Biso   1.000  H
  H140     1.0000 0.70767  0.81633  0.67633  Biso   1.000  H
  H141     1.0000 0.18367  0.89133  0.67633  Biso   1.000  H
  H142     1.0000 0.77533  0.62567  0.00967  Biso   1.000  H
  H143     1.0000 0.37433  0.14967  0.00967  Biso   1.000  H
  H144     1.0000 0.85033  0.22467  0.00967  Biso   1.000  H
  N1       1.0000 0.48430  0.99270  0.89861  Biso   1.000  N
  N2       1.0000 0.00730  0.49160  0.89861  Biso   1.000  N
  N3       1.0000 0.50840  0.51570  0.89861  Biso   1.000  N
  N4       1.0000 0.15097  0.32603  0.23194  Biso   1.000  N
  N5       1.0000 0.67397  0.82493  0.23194  Biso   1.000  N
  N6       1.0000 0.17507  0.84903  0.23194  Biso   1.000  N
  N7       1.0000 0.81763  0.65937  0.56528  Biso   1.000  N
  N8       1.0000 0.34063  0.15827  0.56528  Biso   1.000  N
  N9       1.0000 0.84173  0.18237  0.56528  Biso   1.000  N
  N10      1.0000 0.51570  0.00730  0.10139  Biso   1.000  N
  N11      1.0000 0.99270  0.50840  0.10139  Biso   1.000  N
  N12      1.0000 0.49160  0.48430  0.10139  Biso   1.000  N
  N13      1.0000 0.18237  0.34063  0.43472  Biso   1.000  N
  N14      1.0000 0.65937  0.84173  0.43472  Biso   1.000  N
  N15      1.0000 0.15827  0.81763  0.43472  Biso   1.000  N
  N16      1.0000 0.84903  0.67397  0.76806  Biso   1.000  N
  N17      1.0000 0.32603  0.17507  0.76806  Biso   1.000  N
  N18      1.0000 0.82493  0.15097  0.76806  Biso   1.000  N
  N19      1.0000 0.50440  0.00960  0.64190  Biso   1.000  N
  N20      1.0000 0.99040  0.49480  0.64190  Biso   1.000  N
  N21      1.0000 0.50520  0.49560  0.64190  Biso   1.000  N
  N22      1.0000 0.17107  0.34293  0.97523  Biso   1.000  N
  N23      1.0000 0.65707  0.82813  0.97523  Biso   1.000  N
  N24      1.0000 0.17187  0.82893  0.97523  Biso   1.000  N
  N25      1.0000 0.83773  0.67627  0.30857  Biso   1.000  N
  N26      1.0000 0.32373  0.16147  0.30857  Biso   1.000  N
  N27      1.0000 0.83853  0.16227  0.30857  Biso   1.000  N
  N28      1.0000 0.49560  0.99040  0.35810  Biso   1.000  N
  N29      1.0000 0.00960  0.50520  0.35810  Biso   1.000  N
  N30      1.0000 0.49480  0.50440  0.35810  Biso   1.000  N
  N31      1.0000 0.16227  0.32373  0.69143  Biso   1.000  N
  N32      1.0000 0.67627  0.83853  0.69143  Biso   1.000  N
  N33      1.0000 0.16147  0.83773  0.69143  Biso   1.000  N
  N34      1.0000 0.82893  0.65707  0.02477  Biso   1.000  N
  N35      1.0000 0.34293  0.17187  0.02477  Biso   1.000  N
  N36      1.0000 0.82813  0.17107  0.02477  Biso   1.000  N
  O1       1.0000 0.59150  0.11200  0.99152  Biso   1.000  O
  O2       1.0000 0.88800  0.47950  0.99152  Biso   1.000  O
  O3       1.0000 0.52050  0.40850  0.99152  Biso   1.000  O
  O4       1.0000 0.25817  0.44533  0.32485  Biso   1.000  O
  O5       1.0000 0.55467  0.81283  0.32485  Biso   1.000  O
  O6       1.0000 0.18717  0.74183  0.32485  Biso   1.000  O
  O7       1.0000 0.92483  0.77867  0.65819  Biso   1.000  O
  O8       1.0000 0.22133  0.14617  0.65819  Biso   1.000  O
  O9       1.0000 0.85383  0.07517  0.65819  Biso   1.000  O
  O10      1.0000 0.40850  0.88800  0.00848  Biso   1.000  O
  O11      1.0000 0.11200  0.52050  0.00848  Biso   1.000  O
  O12      1.0000 0.47950  0.59150  0.00848  Biso   1.000  O
  O13      1.0000 0.07517  0.22133  0.34181  Biso   1.000  O
  O14      1.0000 0.77867  0.85383  0.34181  Biso   1.000  O
  O15      1.0000 0.14617  0.92483  0.34181  Biso   1.000  O
  O16      1.0000 0.74183  0.55467  0.67515  Biso   1.000  O
  O17      1.0000 0.44533  0.18717  0.67515  Biso   1.000  O
  O18      1.0000 0.81283  0.25817  0.67515  Biso   1.000  O
  O19      1.0000 0.47950  0.12600  0.99553  Biso   1.000  O
  O20      1.0000 0.87400  0.35350  0.99553  Biso   1.000  O
  O21      1.0000 0.64650  0.52050  0.99553  Biso   1.000  O
  O22      1.0000 0.14617  0.45933  0.32886  Biso   1.000  O
  O23      1.0000 0.54067  0.68683  0.32886  Biso   1.000  O
  O24      1.0000 0.31317  0.85383  0.32886  Biso   1.000  O
  O25      1.0000 0.81283  0.79267  0.66220  Biso   1.000  O
  O26      1.0000 0.20733  0.02017  0.66220  Biso   1.000  O
  O27      1.0000 0.97983  0.18717  0.66220  Biso   1.000  O
  O28      1.0000 0.52050  0.87400  0.00447  Biso   1.000  O
  O29      1.0000 0.12600  0.64650  0.00447  Biso   1.000  O
  O30      1.0000 0.35350  0.47950  0.00447  Biso   1.000  O
  O31      1.0000 0.18717  0.20733  0.33780  Biso   1.000  O
  O32      1.0000 0.79267  0.97983  0.33780  Biso   1.000  O
  O33      1.0000 0.02017  0.81283  0.33780  Biso   1.000  O
  O34      1.0000 0.85383  0.54067  0.67114  Biso   1.000  O
  O35      1.0000 0.45933  0.31317  0.67114  Biso   1.000  O
  O36      1.0000 0.68683  0.14617  0.67114  Biso   1.000  O
  O37      1.0000 0.36860  0.95310  0.66680  Biso   1.000  O
  O38      1.0000 0.04690  0.41550  0.66680  Biso   1.000  O
  O39      1.0000 0.58450  0.63140  0.66680  Biso   1.000  O
  O40      1.0000 0.03527  0.28643  0.00013  Biso   1.000  O
  O41      1.0000 0.71357  0.74883  0.00013  Biso   1.000  O
  O42      1.0000 0.25117  0.96473  0.00013  Biso   1.000  O
  O43      1.0000 0.70193  0.61977  0.33347  Biso   1.000  O
  O44      1.0000 0.38023  0.08217  0.33347  Biso   1.000  O
  O45      1.0000 0.91783  0.29807  0.33347  Biso   1.000  O
  O46      1.0000 0.63140  0.04690  0.33320  Biso   1.000  O
  O47      1.0000 0.95310  0.58450  0.33320  Biso   1.000  O
  O48      1.0000 0.41550  0.36860  0.33320  Biso   1.000  O
  O49      1.0000 0.29807  0.38023  0.66653  Biso   1.000  O
  O50      1.0000 0.61977  0.91783  0.66653  Biso   1.000  O
  O51      1.0000 0.08217  0.70193  0.66653  Biso   1.000  O
  O52      1.0000 0.96473  0.71357  0.99987  Biso   1.000  O
  O53      1.0000 0.28643  0.25117  0.99987  Biso   1.000  O
  O54      1.0000 0.74883  0.03527  0.99987  Biso   1.000  O
