data_image0
_cell_length_a       6.986
_cell_length_b       23.74
_cell_length_c       8.172
_cell_angle_alpha    90
_cell_angle_beta     90
_cell_angle_gamma    90

_symmetry_space_group_name_H-M    "P 1"
_symmetry_int_tables_number       1

loop_
  _symmetry_equiv_pos_as_xyz
  'x, y, z'

loop_
  _atom_site_label
  _atom_site_occupancy
  _atom_site_fract_x
  _atom_site_fract_y
  _atom_site_fract_z
  _atom_site_thermal_displace_type
  _atom_site_B_iso_or_equiv
  _atom_site_type_symbol
  Cu1      1.0000 0.34022  0.28501  0.18286  Biso   1.000  Cu
  Cu2      1.0000 0.65978  0.71499  0.68286  Biso   1.000  Cu
  Cu3      1.0000 0.15978  0.78501  0.68286  Biso   1.000  Cu
  Cu4      1.0000 0.84022  0.21499  0.18286  Biso   1.000  Cu
  Cl1      1.0000 0.65900  0.26988  0.01130  Biso   1.000  Cl
  Cl2      1.0000 0.34100  0.73012  0.51130  Biso   1.000  Cl
  Cl3      1.0000 0.84100  0.76988  0.51130  Biso   1.000  Cl
  Cl4      1.0000 0.15900  0.23012  0.01130  Biso   1.000  Cl
  O1       1.0000 0.33100  0.42730  0.23740  Biso   1.000  O
  O2       1.0000 0.66900  0.57270  0.73740  Biso   1.000  O
  O3       1.0000 0.16900  0.92730  0.73740  Biso   1.000  O
  O4       1.0000 0.83100  0.07270  0.23740  Biso   1.000  O
  O5       1.0000 0.29520  0.34890  0.02500  Biso   1.000  O
  O6       1.0000 0.70480  0.65110  0.52500  Biso   1.000  O
  O7       1.0000 0.20480  0.84890  0.52500  Biso   1.000  O
  O8       1.0000 0.79520  0.15110  0.02500  Biso   1.000  O
  O9       1.0000 0.51390  0.38590  0.75960  Biso   1.000  O
  O10      1.0000 0.48610  0.61410  0.25960  Biso   1.000  O
  O11      1.0000 0.98610  0.88590  0.25960  Biso   1.000  O
  O12      1.0000 0.01390  0.11410  0.75960  Biso   1.000  O
  N1       1.0000 0.38570  0.34030  0.36320  Biso   1.000  N
  N2       1.0000 0.61430  0.65970  0.86320  Biso   1.000  N
  N3       1.0000 0.11430  0.84030  0.86320  Biso   1.000  N
  N4       1.0000 0.88570  0.15970  0.36320  Biso   1.000  N
  N5       1.0000 0.42500  0.42130  0.50690  Biso   1.000  N
  N6       1.0000 0.57500  0.57870  0.00690  Biso   1.000  N
  N7       1.0000 0.07500  0.92130  0.00690  Biso   1.000  N
  N8       1.0000 0.92500  0.07870  0.50690  Biso   1.000  N
  N9       1.0000 0.44700  0.17090  0.55640  Biso   1.000  N
  N10      1.0000 0.55300  0.82910  0.05640  Biso   1.000  N
  N11      1.0000 0.05300  0.67090  0.05640  Biso   1.000  N
  N12      1.0000 0.94700  0.32910  0.55640  Biso   1.000  N
  N13      1.0000 0.38960  0.22220  0.33540  Biso   1.000  N
  N14      1.0000 0.61040  0.77780  0.83540  Biso   1.000  N
  N15      1.0000 0.11040  0.72220  0.83540  Biso   1.000  N
  N16      1.0000 0.88960  0.27780  0.33540  Biso   1.000  N
  C1       1.0000 0.37500  0.39730  0.35520  Biso   1.000  C
  C2       1.0000 0.62500  0.60270  0.85520  Biso   1.000  C
  C3       1.0000 0.12500  0.89730  0.85520  Biso   1.000  C
  C4       1.0000 0.87500  0.10270  0.35520  Biso   1.000  C
  C5       1.0000 0.42120  0.48180  0.54300  Biso   1.000  C
  C6       1.0000 0.57880  0.51820  0.04300  Biso   1.000  C
  C7       1.0000 0.07880  0.98180  0.04300  Biso   1.000  C
  C8       1.0000 0.92120  0.01820  0.54300  Biso   1.000  C
  H1       1.0000 0.44230  0.50300  0.44310  Biso   1.000  H
  H2       1.0000 0.55770  0.49700  0.94310  Biso   1.000  H
  H3       1.0000 0.05770  0.00300  0.94310  Biso   1.000  H
  H4       1.0000 0.94230  0.99700  0.44310  Biso   1.000  H
  H5       1.0000 0.52320  0.49100  0.61900  Biso   1.000  H
  H6       1.0000 0.47680  0.50900  0.11900  Biso   1.000  H
  H7       1.0000 0.97680  0.99100  0.11900  Biso   1.000  H
  H8       1.0000 0.02320  0.00900  0.61900  Biso   1.000  H
  C9       1.0000 0.46830  0.37890  0.61640  Biso   1.000  C
  C10      1.0000 0.53170  0.62110  0.11640  Biso   1.000  C
  C11      1.0000 0.03170  0.87890  0.11640  Biso   1.000  C
  C12      1.0000 0.96830  0.12110  0.61640  Biso   1.000  C
  C13      1.0000 0.43780  0.32610  0.51820  Biso   1.000  C
  C14      1.0000 0.56220  0.67390  0.01820  Biso   1.000  C
  C15      1.0000 0.06220  0.82610  0.01820  Biso   1.000  C
  C16      1.0000 0.93780  0.17390  0.51820  Biso   1.000  C
  C17      1.0000 0.46190  0.27360  0.58680  Biso   1.000  C
  C18      1.0000 0.53810  0.72640  0.08680  Biso   1.000  C
  C19      1.0000 0.03810  0.77360  0.08680  Biso   1.000  C
  C20      1.0000 0.96190  0.22640  0.58680  Biso   1.000  C
  H9       1.0000 0.49600  0.27030  0.69640  Biso   1.000  H
  H10      1.0000 0.50400  0.72970  0.19640  Biso   1.000  H
  H11      1.0000 0.00400  0.77030  0.19640  Biso   1.000  H
  H12      1.0000 0.99600  0.22970  0.69640  Biso   1.000  H
  C21      1.0000 0.43430  0.22390  0.48890  Biso   1.000  C
  C22      1.0000 0.56570  0.77610  0.98890  Biso   1.000  C
  C23      1.0000 0.06570  0.72390  0.98890  Biso   1.000  C
  C24      1.0000 0.93430  0.27610  0.48890  Biso   1.000  C
  C25      1.0000 0.48640  0.15670  0.72730  Biso   1.000  C
  C26      1.0000 0.51360  0.84330  0.22730  Biso   1.000  C
  C27      1.0000 0.01360  0.65670  0.22730  Biso   1.000  C
  C28      1.0000 0.98640  0.34330  0.72730  Biso   1.000  C
  H13      1.0000 0.53580  0.11910  0.73370  Biso   1.000  H
  H14      1.0000 0.46420  0.88090  0.23370  Biso   1.000  H
  H15      1.0000 0.96420  0.61910  0.23370  Biso   1.000  H
  H16      1.0000 0.03580  0.38090  0.73370  Biso   1.000  H
  H17      1.0000 0.37020  0.15930  0.78960  Biso   1.000  H
  H18      1.0000 0.62980  0.84070  0.28960  Biso   1.000  H
  H19      1.0000 0.12980  0.65930  0.28960  Biso   1.000  H
  H20      1.0000 0.87020  0.34070  0.78960  Biso   1.000  H
  H21      1.0000 0.57890  0.18260  0.77080  Biso   1.000  H
  H22      1.0000 0.42110  0.81740  0.27080  Biso   1.000  H
  H23      1.0000 0.92110  0.68260  0.27080  Biso   1.000  H
  H24      1.0000 0.07890  0.31740  0.77080  Biso   1.000  H
  C29      1.0000 0.41140  0.13360  0.43230  Biso   1.000  C
  C30      1.0000 0.58860  0.86640  0.93230  Biso   1.000  C
  C31      1.0000 0.08860  0.63360  0.93230  Biso   1.000  C
  C32      1.0000 0.91140  0.36640  0.43230  Biso   1.000  C
  H25      1.0000 0.41290  0.09450  0.43980  Biso   1.000  H
  H26      1.0000 0.58710  0.90550  0.93980  Biso   1.000  H
  H27      1.0000 0.08710  0.59450  0.93980  Biso   1.000  H
  H28      1.0000 0.91290  0.40550  0.43980  Biso   1.000  H
  C33      1.0000 0.37320  0.16470  0.29470  Biso   1.000  C
  C34      1.0000 0.62680  0.83530  0.79470  Biso   1.000  C
  C35      1.0000 0.12680  0.66470  0.79470  Biso   1.000  C
  C36      1.0000 0.87320  0.33530  0.29470  Biso   1.000  C
  H29      1.0000 0.34180  0.15040  0.19230  Biso   1.000  H
  H30      1.0000 0.65820  0.84960  0.69230  Biso   1.000  H
  H31      1.0000 0.15820  0.65040  0.69230  Biso   1.000  H
  H32      1.0000 0.84180  0.34960  0.19230  Biso   1.000  H
  C37      1.0000 0.20600  0.50040  0.62600  Biso   1.000  C
  C38      1.0000 0.79400  0.49960  0.12600  Biso   1.000  C
  C39      1.0000 0.29400  0.00040  0.12600  Biso   1.000  C
  C40      1.0000 0.70600  0.99960  0.62600  Biso   1.000  C
  H33      1.0000 0.13080  0.46630  0.63980  Biso   1.000  H
  H34      1.0000 0.86920  0.53370  0.13980  Biso   1.000  H
  H35      1.0000 0.36920  0.96630  0.13980  Biso   1.000  H
  H36      1.0000 0.63080  0.03370  0.63980  Biso   1.000  H
  H37      1.0000 0.22970  0.51560  0.73430  Biso   1.000  H
  H38      1.0000 0.77030  0.48440  0.23430  Biso   1.000  H
  H39      1.0000 0.27030  0.01560  0.23430  Biso   1.000  H
  H40      1.0000 0.72970  0.98440  0.73430  Biso   1.000  H
  C41      1.0000 0.11230  0.53310  0.55380  Biso   1.000  C
  C42      1.0000 0.88770  0.46690  0.05380  Biso   1.000  C
  C43      1.0000 0.38770  0.03310  0.05380  Biso   1.000  C
  C44      1.0000 0.61230  0.96690  0.55380  Biso   1.000  C
  H41      1.0000 0.98460  0.53320  0.59730  Biso   1.000  H
  H42      1.0000 0.01540  0.46680  0.09730  Biso   1.000  H
  H43      1.0000 0.51540  0.03320  0.09730  Biso   1.000  H
  H44      1.0000 0.48460  0.96680  0.59730  Biso   1.000  H
  H45      1.0000 0.10850  0.52280  0.44020  Biso   1.000  H
  H46      1.0000 0.89150  0.47720  0.94020  Biso   1.000  H
  H47      1.0000 0.39150  0.02280  0.94020  Biso   1.000  H
  H48      1.0000 0.60850  0.97720  0.44020  Biso   1.000  H
  H49      1.0000 0.16710  0.57000  0.56490  Biso   1.000  H
  H50      1.0000 0.83290  0.43000  0.06490  Biso   1.000  H
  H51      1.0000 0.33290  0.07000  0.06490  Biso   1.000  H
  H52      1.0000 0.66710  0.93000  0.56490  Biso   1.000  H
  C45      1.0000 0.26600  0.49650  0.61900  Biso   1.000  C
  C46      1.0000 0.73400  0.50350  0.11900  Biso   1.000  C
  C47      1.0000 0.23400  0.99650  0.11900  Biso   1.000  C
  C48      1.0000 0.76600  0.00350  0.61900  Biso   1.000  C
  H53      1.0000 0.16440  0.48300  0.54840  Biso   1.000  H
  H54      1.0000 0.83560  0.51700  0.04840  Biso   1.000  H
  H55      1.0000 0.33560  0.98300  0.04840  Biso   1.000  H
  H56      1.0000 0.66440  0.01700  0.54840  Biso   1.000  H
  H57      1.0000 0.26400  0.53720  0.60840  Biso   1.000  H
  H58      1.0000 0.73600  0.46280  0.10840  Biso   1.000  H
  H59      1.0000 0.23600  0.03720  0.10840  Biso   1.000  H
  H60      1.0000 0.76400  0.96280  0.60840  Biso   1.000  H
  C49      1.0000 0.19200  0.48630  0.78700  Biso   1.000  C
  C50      1.0000 0.80800  0.51370  0.28700  Biso   1.000  C
  C51      1.0000 0.30800  0.98630  0.28700  Biso   1.000  C
  C52      1.0000 0.69200  0.01370  0.78700  Biso   1.000  C
  H61      1.0000 0.06320  0.50030  0.79500  Biso   1.000  H
  H62      1.0000 0.93680  0.49970  0.29500  Biso   1.000  H
  H63      1.0000 0.43680  0.00030  0.29500  Biso   1.000  H
  H64      1.0000 0.56320  0.99970  0.79500  Biso   1.000  H
  H65      1.0000 0.27140  0.50550  0.86500  Biso   1.000  H
  H66      1.0000 0.72860  0.49450  0.36500  Biso   1.000  H
  H67      1.0000 0.22860  0.00550  0.36500  Biso   1.000  H
  H68      1.0000 0.77140  0.99450  0.86500  Biso   1.000  H
  H69      1.0000 0.19300  0.44660  0.80950  Biso   1.000  H
  H70      1.0000 0.80700  0.55340  0.30950  Biso   1.000  H
  H71      1.0000 0.30700  0.94660  0.30950  Biso   1.000  H
  H72      1.0000 0.69300  0.05340  0.80950  Biso   1.000  H
