data_image0
_cell_length_a       7.1434
_cell_length_b       10.8066
_cell_length_c       19.909
_cell_angle_alpha    96.025
_cell_angle_beta     90.517
_cell_angle_gamma    98.325

_symmetry_space_group_name_H-M    "P 1"
_symmetry_int_tables_number       1

loop_
  _symmetry_equiv_pos_as_xyz
  'x, y, z'

loop_
  _atom_site_label
  _atom_site_occupancy
  _atom_site_fract_x
  _atom_site_fract_y
  _atom_site_fract_z
  _atom_site_thermal_displace_type
  _atom_site_B_iso_or_equiv
  _atom_site_type_symbol
  Cu1      1.0000 0.20710  0.41700  0.90090  Biso   1.000  Cu
  Cu2      1.0000 0.79290  0.58300  0.09910  Biso   1.000  Cu
  Cl1      1.0000 0.32740  0.95360  0.70760  Biso   1.000  Cl
  Cl2      1.0000 0.67260  0.04640  0.29240  Biso   1.000  Cl
  Cl3      1.0000 0.33450  0.85600  0.96750  Biso   1.000  Cl
  Cl4      1.0000 0.66550  0.14400  0.03250  Biso   1.000  Cl
  O1       1.0000 0.23100  0.59670  0.91050  Biso   1.000  O
  O2       1.0000 0.76900  0.40330  0.08950  Biso   1.000  O
  N1       1.0000 0.20300  0.40800  0.80170  Biso   1.000  N
  N2       1.0000 0.79700  0.59200  0.19830  Biso   1.000  N
  N3       1.0000 0.18100  0.23200  0.88640  Biso   1.000  N
  N4       1.0000 0.81900  0.76800  0.11360  Biso   1.000  N
  H1       1.0000 0.31460  0.21400  0.88610  Biso   1.000  H
  H2       1.0000 0.68540  0.78600  0.11390  Biso   1.000  H
  N5       1.0000 0.17300  0.39020  0.99980  Biso   1.000  N
  N6       1.0000 0.82700  0.60980  0.00020  Biso   1.000  N
  H3       1.0000 0.26590  0.43980  0.02580  Biso   1.000  H
  H4       1.0000 0.73410  0.56020  0.97420  Biso   1.000  H
  H5       1.0000 0.05910  0.41020  0.01390  Biso   1.000  H
  H6       1.0000 0.94090  0.58980  0.98610  Biso   1.000  H
  C1       1.0000 0.20800  0.49600  0.76860  Biso   1.000  C
  C2       1.0000 0.79200  0.50400  0.23140  Biso   1.000  C
  H7       1.0000 0.18360  0.47580  0.72140  Biso   1.000  H
  H8       1.0000 0.81640  0.52420  0.27860  Biso   1.000  H
  C3       1.0000 0.24500  0.62500  0.79240  Biso   1.000  C
  C4       1.0000 0.75500  0.37500  0.20760  Biso   1.000  C
  C5       1.0000 0.26500  0.71800  0.74690  Biso   1.000  C
  C6       1.0000 0.73500  0.28200  0.25310  Biso   1.000  C
  H9       1.0000 0.24820  0.69000  0.70010  Biso   1.000  H
  H10      1.0000 0.75180  0.31000  0.29990  Biso   1.000  H
  C7       1.0000 0.30600  0.84100  0.76410  Biso   1.000  C
  C8       1.0000 0.69400  0.15900  0.23590  Biso   1.000  C
  C9       1.0000 0.32600  0.88000  0.83450  Biso   1.000  C
  C10      1.0000 0.67400  0.12000  0.16550  Biso   1.000  C
  H11      1.0000 0.35810  0.96710  0.84800  Biso   1.000  H
  H12      1.0000 0.64190  0.03290  0.15200  Biso   1.000  H
  C11      1.0000 0.30500  0.80500  0.88220  Biso   1.000  C
  C12      1.0000 0.69500  0.19500  0.11780  Biso   1.000  C
  C13      1.0000 0.25800  0.67100  0.86390  Biso   1.000  C
  C14      1.0000 0.74200  0.32900  0.13610  Biso   1.000  C
  C15      1.0000 0.18300  0.27700  0.77130  Biso   1.000  C
  C16      1.0000 0.81700  0.72300  0.22870  Biso   1.000  C
  H13      1.0000 0.09420  0.26540  0.73190  Biso   1.000  H
  H14      1.0000 0.90580  0.73460  0.26810  Biso   1.000  H
  H15      1.0000 0.30720  0.25790  0.75500  Biso   1.000  H
  H16      1.0000 0.69280  0.74210  0.24500  Biso   1.000  H
  C17      1.0000 0.11300  0.19000  0.81950  Biso   1.000  C
  C18      1.0000 0.88700  0.81000  0.18050  Biso   1.000  C
  H17      1.0000 0.97300  0.17990  0.81880  Biso   1.000  H
  H18      1.0000 0.02700  0.82010  0.18120  Biso   1.000  H
  H19      1.0000 0.15130  0.10730  0.80550  Biso   1.000  H
  H20      1.0000 0.84870  0.89270  0.19450  Biso   1.000  H
  C19      1.0000 0.10200  0.17500  0.94350  Biso   1.000  C
  C20      1.0000 0.89800  0.82500  0.05650  Biso   1.000  C
  H21      1.0000 0.13560  0.08880  0.94340  Biso   1.000  H
  H22      1.0000 0.86440  0.91120  0.05660  Biso   1.000  H
  H23      1.0000 0.96250  0.16840  0.94190  Biso   1.000  H
  H24      1.0000 0.03750  0.83160  0.05810  Biso   1.000  H
  C21      1.0000 0.18200  0.25600  0.00580  Biso   1.000  C
  C22      1.0000 0.81800  0.74400  0.99420  Biso   1.000  C
  H25      1.0000 0.11030  0.22950  0.04550  Biso   1.000  H
  H26      1.0000 0.88970  0.77050  0.95450  Biso   1.000  H
  H27      1.0000 0.31560  0.24390  0.01300  Biso   1.000  H
  H28      1.0000 0.68440  0.75610  0.98700  Biso   1.000  H
  O3       1.0000 0.54900  0.41000  0.92530  Biso   1.000  O
  O4       1.0000 0.45100  0.59000  0.07470  Biso   1.000  O
  O5       1.0000 0.57900  0.23010  0.86500  Biso   1.000  O
  O6       1.0000 0.42100  0.76990  0.13500  Biso   1.000  O
  O7       1.0000 0.82400  0.38000  0.88200  Biso   1.000  O
  O8       1.0000 0.17600  0.62000  0.11800  Biso   1.000  O
  N7       1.0000 0.64700  0.34320  0.88680  Biso   1.000  N
  N8       1.0000 0.35300  0.65680  0.11320  Biso   1.000  N
  O9       1.0000 0.85900  0.41200  0.90500  Biso   1.000  O
  O10      1.0000 0.14100  0.58800  0.09500  Biso   1.000  O
  N9       1.0000 0.68800  0.36230  0.89200  Biso   1.000  N
  N10      1.0000 0.31200  0.63770  0.10800  Biso   1.000  N
  O11      1.0000 0.65100  0.24700  0.86800  Biso   1.000  O
  O12      1.0000 0.34900  0.75300  0.13200  Biso   1.000  O
  O13      1.0000 0.55900  0.43300  0.89300  Biso   1.000  O
  O14      1.0000 0.44100  0.56700  0.10700  Biso   1.000  O
  Cu3      1.0000 0.72400  0.39970  0.58180  Biso   1.000  Cu
  Cu4      1.0000 0.27600  0.60030  0.41820  Biso   1.000  Cu
  Cl5      1.0000 0.80330  0.91000  0.84760  Biso   1.000  Cl
  Cl6      1.0000 0.19670  0.09000  0.15240  Biso   1.000  Cl
  Cl7      1.0000 0.82730  0.84290  0.57780  Biso   1.000  Cl
  Cl8      1.0000 0.17270  0.15710  0.42220  Biso   1.000  Cl
  O15      1.0000 0.76500  0.57800  0.59590  Biso   1.000  O
  O16      1.0000 0.23500  0.42200  0.40410  Biso   1.000  O
  C23      1.0000 0.71700  0.46000  0.72140  Biso   1.000  C
  C24      1.0000 0.28300  0.54000  0.27860  Biso   1.000  C
  H29      1.0000 0.69510  0.43460  0.76530  Biso   1.000  H
  H30      1.0000 0.30490  0.56540  0.23470  Biso   1.000  H
  C25      1.0000 0.75300  0.59200  0.71740  Biso   1.000  C
  C26      1.0000 0.24700  0.40800  0.28260  Biso   1.000  C
  C27      1.0000 0.75900  0.68300  0.77480  Biso   1.000  C
  C28      1.0000 0.24100  0.31700  0.22520  Biso   1.000  C
  H31      1.0000 0.73800  0.65100  0.81720  Biso   1.000  H
  H32      1.0000 0.26200  0.34900  0.18280  Biso   1.000  H
  C29      1.0000 0.79200  0.80700  0.77580  Biso   1.000  C
  C30      1.0000 0.20800  0.19300  0.22420  Biso   1.000  C
  C31      1.0000 0.81800  0.86500  0.71090  Biso   1.000  C
  C32      1.0000 0.18200  0.13500  0.28910  Biso   1.000  C
  H33      1.0000 0.84180  0.95350  0.70860  Biso   1.000  H
  H34      1.0000 0.15820  0.04650  0.29140  Biso   1.000  H
  C33      1.0000 0.80300  0.78100  0.65710  Biso   1.000  C
  C34      1.0000 0.19700  0.21900  0.34290  Biso   1.000  C
  C35      1.0000 0.77100  0.64900  0.65420  Biso   1.000  C
  C36      1.0000 0.22900  0.35100  0.34580  Biso   1.000  C
  O17      1.0000 0.08000  0.38500  0.60130  Biso   1.000  O
  O18      1.0000 0.92000  0.61500  0.39870  Biso   1.000  O
  O19      1.0000 0.21300  0.21100  0.58700  Biso   1.000  O
  O20      1.0000 0.78700  0.78900  0.41300  Biso   1.000  O
  O21      1.0000 0.37300  0.39300  0.56800  Biso   1.000  O
  O22      1.0000 0.62700  0.60700  0.43200  Biso   1.000  O
  N11      1.0000 0.22400  0.33000  0.58900  Biso   1.000  N
  N12      1.0000 0.77600  0.67000  0.41100  Biso   1.000  N
  N13      1.0000 0.71200  0.37900  0.67830  Biso   1.000  N
  N14      1.0000 0.28800  0.62100  0.32170  Biso   1.000  N
  C37      1.0000 0.66300  0.24500  0.68980  Biso   1.000  C
  C38      1.0000 0.33700  0.75500  0.31020  Biso   1.000  C
  H35      1.0000 0.73270  0.22870  0.73030  Biso   1.000  H
  H36      1.0000 0.26730  0.77130  0.26970  Biso   1.000  H
  H37      1.0000 0.52580  0.22620  0.69770  Biso   1.000  H
  H38      1.0000 0.47420  0.77380  0.30230  Biso   1.000  H
  C39      1.0000 0.71300  0.16500  0.63090  Biso   1.000  C
  C40      1.0000 0.28700  0.83500  0.36910  Biso   1.000  C
  H39      1.0000 0.85000  0.16060  0.63270  Biso   1.000  H
  H40      1.0000 0.15000  0.83940  0.36730  Biso   1.000  H
  H41      1.0000 0.64350  0.07920  0.63160  Biso   1.000  H
  H42      1.0000 0.35650  0.92080  0.36840  Biso   1.000  H
  N15      1.0000 0.66600  0.21400  0.56990  Biso   1.000  N
  N16      1.0000 0.33400  0.78600  0.43010  Biso   1.000  N
  H43      1.0000 0.52510  0.19420  0.56460  Biso   1.000  H
  H44      1.0000 0.47490  0.80580  0.43540  Biso   1.000  H
  C41      1.0000 0.73900  0.16800  0.50670  Biso   1.000  C
  C42      1.0000 0.26100  0.83200  0.49330  Biso   1.000  C
  H45      1.0000 0.68170  0.07980  0.49290  Biso   1.000  H
  H46      1.0000 0.31830  0.92020  0.50710  Biso   1.000  H
  H47      1.0000 0.87820  0.17190  0.51000  Biso   1.000  H
  H48      1.0000 0.12180  0.82810  0.49000  Biso   1.000  H
  C43      1.0000 0.68600  0.25300  0.45740  Biso   1.000  C
  C44      1.0000 0.31400  0.74700  0.54260  Biso   1.000  C
  H49      1.0000 0.73860  0.23020  0.41280  Biso   1.000  H
  H50      1.0000 0.26140  0.76980  0.58720  Biso   1.000  H
  H51      1.0000 0.54620  0.24270  0.45200  Biso   1.000  H
  H52      1.0000 0.45380  0.75730  0.54800  Biso   1.000  H
  N17      1.0000 0.75900  0.38600  0.48110  Biso   1.000  N
  N18      1.0000 0.24100  0.61400  0.51890  Biso   1.000  N
  H53      1.0000 0.69200  0.43920  0.46160  Biso   1.000  H
  H54      1.0000 0.30800  0.56080  0.53840  Biso   1.000  H
  H55      1.0000 0.88310  0.40510  0.47120  Biso   1.000  H
  H56      1.0000 0.11690  0.59490  0.52880  Biso   1.000  H
  O23      1.0000 0.08700  0.41600  0.56700  Biso   1.000  O
  O24      1.0000 0.91300  0.58400  0.43300  Biso   1.000  O
  O25      1.0000 0.11600  0.22900  0.59700  Biso   1.000  O
  O26      1.0000 0.88400  0.77100  0.40300  Biso   1.000  O
  O27      1.0000 0.36200  0.37900  0.60300  Biso   1.000  O
  O28      1.0000 0.63800  0.62100  0.39700  Biso   1.000  O
  N19      1.0000 0.18600  0.34300  0.59200  Biso   1.000  N
  N20      1.0000 0.81400  0.65700  0.40800  Biso   1.000  N
  C45      1.0000 0.69500  0.24500  0.69040  Biso   1.000  C
  C46      1.0000 0.30500  0.75500  0.30960  Biso   1.000  C
  H57      1.0000 0.82020  0.22450  0.70240  Biso   1.000  H
  H58      1.0000 0.17980  0.77550  0.29760  Biso   1.000  H
  H59      1.0000 0.60930  0.22950  0.72850  Biso   1.000  H
  H60      1.0000 0.39070  0.77050  0.27150  Biso   1.000  H
  C47      1.0000 0.61800  0.16700  0.62940  Biso   1.000  C
  C48      1.0000 0.38200  0.83300  0.37060  Biso   1.000  C
  H61      1.0000 0.47940  0.16490  0.62680  Biso   1.000  H
  H62      1.0000 0.52060  0.83510  0.37320  Biso   1.000  H
  N21      1.0000 0.70100  0.21400  0.57030  Biso   1.000  N
  N22      1.0000 0.29900  0.78600  0.42970  Biso   1.000  N
  H63      1.0000 0.83310  0.19440  0.56990  Biso   1.000  H
  H64      1.0000 0.16690  0.80560  0.43010  Biso   1.000  H
  C49      1.0000 0.61900  0.16500  0.50500  Biso   1.000  C
  C50      1.0000 0.38100  0.83500  0.49500  Biso   1.000  C
  H65      1.0000 0.48020  0.16160  0.50490  Biso   1.000  H
  H66      1.0000 0.51980  0.83840  0.49510  Biso   1.000  H
  H67      1.0000 0.65000  0.07960  0.49190  Biso   1.000  H
  H68      1.0000 0.35000  0.92040  0.50810  Biso   1.000  H
  C51      1.0000 0.70700  0.25500  0.45780  Biso   1.000  C
  C52      1.0000 0.29300  0.74500  0.54220  Biso   1.000  C
  H69      1.0000 0.84400  0.25030  0.45480  Biso   1.000  H
  H70      1.0000 0.15600  0.74970  0.54520  Biso   1.000  H
  H71      1.0000 0.64900  0.23090  0.41210  Biso   1.000  H
  H72      1.0000 0.35100  0.76910  0.58790  Biso   1.000  H
  N23      1.0000 0.68000  0.38600  0.48110  Biso   1.000  N
  N24      1.0000 0.32000  0.61400  0.51890  Biso   1.000  N
  H73      1.0000 0.56030  0.39950  0.47090  Biso   1.000  H
  H74      1.0000 0.43970  0.60050  0.52910  Biso   1.000  H
  H75      1.0000 0.76420  0.44240  0.46200  Biso   1.000  H
  H76      1.0000 0.23580  0.55760  0.53800  Biso   1.000  H
