data_image0
_cell_length_a       9.7008
_cell_length_b       18.6698
_cell_length_c       23.501
_cell_angle_alpha    90
_cell_angle_beta     101.775
_cell_angle_gamma    90

_symmetry_space_group_name_H-M    "P 1"
_symmetry_int_tables_number       1

loop_
  _symmetry_equiv_pos_as_xyz
  'x, y, z'

loop_
  _atom_site_label
  _atom_site_occupancy
  _atom_site_fract_x
  _atom_site_fract_y
  _atom_site_fract_z
  _atom_site_thermal_displace_type
  _atom_site_B_iso_or_equiv
  _atom_site_type_symbol
  Cu1      1.0000 0.62980  0.66500  0.72022  Biso   1.000  Cu
  Cu2      1.0000 0.37020  0.16500  0.77978  Biso   1.000  Cu
  Cu3      1.0000 0.37020  0.33500  0.27978  Biso   1.000  Cu
  Cu4      1.0000 0.62980  0.83500  0.22022  Biso   1.000  Cu
  Cu5      1.0000 0.13370  0.66394  0.72928  Biso   1.000  Cu
  Cu6      1.0000 0.86630  0.16394  0.77072  Biso   1.000  Cu
  Cu7      1.0000 0.86630  0.33606  0.27072  Biso   1.000  Cu
  Cu8      1.0000 0.13370  0.83606  0.22928  Biso   1.000  Cu
  O1       1.0000 0.62620  0.67740  0.63870  Biso   1.000  O
  O2       1.0000 0.37380  0.17740  0.86130  Biso   1.000  O
  O3       1.0000 0.37380  0.32260  0.36130  Biso   1.000  O
  O4       1.0000 0.62620  0.82260  0.13870  Biso   1.000  O
  O5       1.0000 0.70790  0.56970  0.71690  Biso   1.000  O
  O6       1.0000 0.29210  0.06970  0.78310  Biso   1.000  O
  O7       1.0000 0.29210  0.43030  0.28310  Biso   1.000  O
  O8       1.0000 0.70790  0.93030  0.21690  Biso   1.000  O
  O9       1.0000 0.90140  0.63000  0.71890  Biso   1.000  O
  O10      1.0000 0.09860  0.13000  0.78110  Biso   1.000  O
  O11      1.0000 0.09860  0.37000  0.28110  Biso   1.000  O
  O12      1.0000 0.90140  0.87000  0.21890  Biso   1.000  O
  O13      1.0000 0.19990  0.58210  0.77870  Biso   1.000  O
  O14      1.0000 0.80010  0.08210  0.72130  Biso   1.000  O
  O15      1.0000 0.80010  0.41790  0.22130  Biso   1.000  O
  O16      1.0000 0.19990  0.91790  0.27870  Biso   1.000  O
  O17      1.0000 0.17710  0.61560  0.66180  Biso   1.000  O
  O18      1.0000 0.82290  0.11560  0.83820  Biso   1.000  O
  O19      1.0000 0.82290  0.38440  0.33820  Biso   1.000  O
  O20      1.0000 0.17710  0.88440  0.16180  Biso   1.000  O
  O21      1.0000 0.39490  0.64150  0.70280  Biso   1.000  O
  O22      1.0000 0.60510  0.14150  0.79720  Biso   1.000  O
  O23      1.0000 0.60510  0.35850  0.29720  Biso   1.000  O
  O24      1.0000 0.39490  0.85850  0.20280  Biso   1.000  O
  N1       1.0000 0.59560  0.76470  0.73210  Biso   1.000  N
  N2       1.0000 0.40440  0.26470  0.76790  Biso   1.000  N
  N3       1.0000 0.40440  0.23530  0.26790  Biso   1.000  N
  N4       1.0000 0.59560  0.73530  0.23210  Biso   1.000  N
  N5       1.0000 0.63950  0.65810  0.80990  Biso   1.000  N
  N6       1.0000 0.36050  0.15810  0.69010  Biso   1.000  N
  N7       1.0000 0.36050  0.34190  0.19010  Biso   1.000  N
  N8       1.0000 0.63950  0.84190  0.30990  Biso   1.000  N
  N9       1.0000 0.13520  0.72220  0.79820  Biso   1.000  N
  N10      1.0000 0.86480  0.22220  0.70180  Biso   1.000  N
  N11      1.0000 0.86480  0.27780  0.20180  Biso   1.000  N
  N12      1.0000 0.13520  0.77780  0.29820  Biso   1.000  N
  N13      1.0000 0.07140  0.75850  0.68460  Biso   1.000  N
  N14      1.0000 0.92860  0.25850  0.81540  Biso   1.000  N
  N15      1.0000 0.92860  0.24150  0.31540  Biso   1.000  N
  N16      1.0000 0.07140  0.74150  0.18460  Biso   1.000  N
  C1       1.0000 0.57000  0.81450  0.69290  Biso   1.000  C
  C2       1.0000 0.43000  0.31450  0.80710  Biso   1.000  C
  C3       1.0000 0.43000  0.18550  0.30710  Biso   1.000  C
  C4       1.0000 0.57000  0.68550  0.19290  Biso   1.000  C
  H1       1.0000 0.55980  0.86220  0.70550  Biso   1.000  H
  H2       1.0000 0.44020  0.36220  0.79450  Biso   1.000  H
  H3       1.0000 0.44020  0.13780  0.29450  Biso   1.000  H
  H4       1.0000 0.55980  0.63780  0.20550  Biso   1.000  H
  C5       1.0000 0.55600  0.80220  0.63140  Biso   1.000  C
  C6       1.0000 0.44400  0.30220  0.86860  Biso   1.000  C
  C7       1.0000 0.44400  0.19780  0.36860  Biso   1.000  C
  C8       1.0000 0.55600  0.69780  0.13140  Biso   1.000  C
  C9       1.0000 0.51750  0.86320  0.59480  Biso   1.000  C
  C10      1.0000 0.48250  0.36320  0.90520  Biso   1.000  C
  C11      1.0000 0.48250  0.13680  0.40520  Biso   1.000  C
  C12      1.0000 0.51750  0.63680  0.09480  Biso   1.000  C
  H5       1.0000 0.50520  0.90890  0.61090  Biso   1.000  H
  H6       1.0000 0.49480  0.40890  0.88910  Biso   1.000  H
  H7       1.0000 0.49480  0.09110  0.38910  Biso   1.000  H
  H8       1.0000 0.50520  0.59110  0.11090  Biso   1.000  H
  C13      1.0000 0.49920  0.85400  0.53730  Biso   1.000  C
  C14      1.0000 0.50080  0.35400  0.96270  Biso   1.000  C
  C15      1.0000 0.50080  0.14600  0.46270  Biso   1.000  C
  C16      1.0000 0.49920  0.64600  0.03730  Biso   1.000  C
  H9       1.0000 0.47420  0.89450  0.51290  Biso   1.000  H
  H10      1.0000 0.52580  0.39450  0.98710  Biso   1.000  H
  H11      1.0000 0.52580  0.10550  0.48710  Biso   1.000  H
  H12      1.0000 0.47420  0.60550  0.01290  Biso   1.000  H
  C17      1.0000 0.51400  0.78920  0.51150  Biso   1.000  C
  C18      1.0000 0.48600  0.28920  0.98850  Biso   1.000  C
  C19      1.0000 0.48600  0.21080  0.48850  Biso   1.000  C
  C20      1.0000 0.51400  0.71080  0.01150  Biso   1.000  C
  H13      1.0000 0.49390  0.78440  0.47040  Biso   1.000  H
  H14      1.0000 0.50610  0.28440  0.02960  Biso   1.000  H
  H15      1.0000 0.50610  0.21560  0.52960  Biso   1.000  H
  H16      1.0000 0.49390  0.71560  0.97040  Biso   1.000  H
  C21      1.0000 0.55850  0.73400  0.54540  Biso   1.000  C
  C22      1.0000 0.44150  0.23400  0.95460  Biso   1.000  C
  C23      1.0000 0.44150  0.26600  0.45460  Biso   1.000  C
  C24      1.0000 0.55850  0.76600  0.04540  Biso   1.000  C
  H17      1.0000 0.57630  0.69080  0.52680  Biso   1.000  H
  H18      1.0000 0.42370  0.19080  0.97320  Biso   1.000  H
  H19      1.0000 0.42370  0.30920  0.47320  Biso   1.000  H
  H20      1.0000 0.57630  0.80920  0.02680  Biso   1.000  H
  C25      1.0000 0.58190  0.73300  0.60740  Biso   1.000  C
  C26      1.0000 0.41810  0.23300  0.89260  Biso   1.000  C
  C27      1.0000 0.41810  0.26700  0.39260  Biso   1.000  C
  C28      1.0000 0.58190  0.76700  0.10740  Biso   1.000  C
  C29      1.0000 0.60000  0.78480  0.79380  Biso   1.000  C
  C30      1.0000 0.40000  0.28480  0.70620  Biso   1.000  C
  C31      1.0000 0.40000  0.21520  0.20620  Biso   1.000  C
  C32      1.0000 0.60000  0.71520  0.29380  Biso   1.000  C
  H21      1.0000 0.53590  0.82560  0.79620  Biso   1.000  H
  H22      1.0000 0.46410  0.32560  0.70380  Biso   1.000  H
  H23      1.0000 0.46410  0.17440  0.20380  Biso   1.000  H
  H24      1.0000 0.53590  0.67440  0.29620  Biso   1.000  H
  H25      1.0000 0.69640  0.79810  0.81360  Biso   1.000  H
  H26      1.0000 0.30360  0.29810  0.68640  Biso   1.000  H
  H27      1.0000 0.30360  0.20190  0.18640  Biso   1.000  H
  H28      1.0000 0.69640  0.70190  0.31360  Biso   1.000  H
  C33      1.0000 0.55150  0.71880  0.82050  Biso   1.000  C
  C34      1.0000 0.44850  0.21880  0.67950  Biso   1.000  C
  C35      1.0000 0.44850  0.28120  0.17950  Biso   1.000  C
  C36      1.0000 0.55150  0.78120  0.32050  Biso   1.000  C
  H29      1.0000 0.56010  0.72600  0.86290  Biso   1.000  H
  H30      1.0000 0.43990  0.22600  0.63710  Biso   1.000  H
  H31      1.0000 0.43990  0.27400  0.13710  Biso   1.000  H
  H32      1.0000 0.56010  0.77400  0.36290  Biso   1.000  H
  H33      1.0000 0.45150  0.70910  0.80310  Biso   1.000  H
  H34      1.0000 0.54850  0.20910  0.69690  Biso   1.000  H
  H35      1.0000 0.54850  0.29090  0.19690  Biso   1.000  H
  H36      1.0000 0.45150  0.79090  0.30310  Biso   1.000  H
  C37      1.0000 0.78170  0.66500  0.84210  Biso   1.000  C
  C38      1.0000 0.21830  0.16500  0.65790  Biso   1.000  C
  C39      1.0000 0.21830  0.33500  0.15790  Biso   1.000  C
  C40      1.0000 0.78170  0.83500  0.34210  Biso   1.000  C
  H37      1.0000 0.81920  0.71190  0.83250  Biso   1.000  H
  H38      1.0000 0.18080  0.21190  0.66750  Biso   1.000  H
  H39      1.0000 0.18080  0.28810  0.16750  Biso   1.000  H
  H40      1.0000 0.81920  0.78810  0.33250  Biso   1.000  H
  H41      1.0000 0.83970  0.62720  0.82900  Biso   1.000  H
  H42      1.0000 0.16030  0.12720  0.67100  Biso   1.000  H
  H43      1.0000 0.16030  0.37280  0.17100  Biso   1.000  H
  H44      1.0000 0.83970  0.87280  0.32900  Biso   1.000  H
  C41      1.0000 0.79800  0.65990  0.90660  Biso   1.000  C
  C42      1.0000 0.20200  0.15990  0.59340  Biso   1.000  C
  C43      1.0000 0.20200  0.34010  0.09340  Biso   1.000  C
  C44      1.0000 0.79800  0.84010  0.40660  Biso   1.000  C
  H45      1.0000 0.74610  0.69950  0.92070  Biso   1.000  H
  H46      1.0000 0.25390  0.19950  0.57930  Biso   1.000  H
  H47      1.0000 0.25390  0.30050  0.07930  Biso   1.000  H
  H48      1.0000 0.74610  0.80050  0.42070  Biso   1.000  H
  H49      1.0000 0.89900  0.66470  0.92530  Biso   1.000  H
  H50      1.0000 0.10100  0.16470  0.57470  Biso   1.000  H
  H51      1.0000 0.10100  0.33530  0.07470  Biso   1.000  H
  H52      1.0000 0.89900  0.83530  0.42530  Biso   1.000  H
  C45      1.0000 0.74300  0.58940  0.92300  Biso   1.000  C
  C46      1.0000 0.25700  0.08940  0.57700  Biso   1.000  C
  C47      1.0000 0.25700  0.41060  0.07700  Biso   1.000  C
  C48      1.0000 0.74300  0.91060  0.42300  Biso   1.000  C
  H53      1.0000 0.74750  0.58780  0.96540  Biso   1.000  H
  H54      1.0000 0.25250  0.08780  0.53460  Biso   1.000  H
  H55      1.0000 0.25250  0.41220  0.03460  Biso   1.000  H
  H56      1.0000 0.74750  0.91220  0.46540  Biso   1.000  H
  H57      1.0000 0.80160  0.54980  0.91270  Biso   1.000  H
  H58      1.0000 0.19840  0.04980  0.58730  Biso   1.000  H
  H59      1.0000 0.19840  0.45020  0.08730  Biso   1.000  H
  H60      1.0000 0.80160  0.95020  0.41270  Biso   1.000  H
  C49      1.0000 0.58680  0.58080  0.88930  Biso   1.000  C
  C50      1.0000 0.41320  0.08080  0.61070  Biso   1.000  C
  C51      1.0000 0.41320  0.41920  0.11070  Biso   1.000  C
  C52      1.0000 0.58680  0.91920  0.38930  Biso   1.000  C
  H61      1.0000 0.55170  0.53250  0.89630  Biso   1.000  H
  H62      1.0000 0.44830  0.03250  0.60370  Biso   1.000  H
  H63      1.0000 0.44830  0.46750  0.10370  Biso   1.000  H
  H64      1.0000 0.55170  0.96750  0.39630  Biso   1.000  H
  H65      1.0000 0.52650  0.61660  0.90340  Biso   1.000  H
  H66      1.0000 0.47350  0.11660  0.59660  Biso   1.000  H
  H67      1.0000 0.47350  0.38340  0.09660  Biso   1.000  H
  H68      1.0000 0.52650  0.88340  0.40340  Biso   1.000  H
  C53      1.0000 0.58020  0.59070  0.82890  Biso   1.000  C
  C54      1.0000 0.41980  0.09070  0.67110  Biso   1.000  C
  C55      1.0000 0.41980  0.40930  0.17110  Biso   1.000  C
  C56      1.0000 0.58020  0.90930  0.32890  Biso   1.000  C
  H69      1.0000 0.48000  0.58780  0.80900  Biso   1.000  H
  H70      1.0000 0.52000  0.08780  0.69100  Biso   1.000  H
  H71      1.0000 0.52000  0.41220  0.19100  Biso   1.000  H
  H72      1.0000 0.48000  0.91220  0.30900  Biso   1.000  H
  H73      1.0000 0.62950  0.55000  0.81490  Biso   1.000  H
  H74      1.0000 0.37050  0.05000  0.68510  Biso   1.000  H
  H75      1.0000 0.37050  0.45000  0.18510  Biso   1.000  H
  H76      1.0000 0.62950  0.95000  0.31490  Biso   1.000  H
  C57      1.0000 0.83460  0.57130  0.71540  Biso   1.000  C
  C58      1.0000 0.16540  0.07130  0.78460  Biso   1.000  C
  C59      1.0000 0.16540  0.42870  0.28460  Biso   1.000  C
  C60      1.0000 0.83460  0.92870  0.21540  Biso   1.000  C
  C61      1.0000 0.91730  0.50240  0.71120  Biso   1.000  C
  C62      1.0000 0.08270  0.00240  0.78880  Biso   1.000  C
  C63      1.0000 0.08270  0.49760  0.28880  Biso   1.000  C
  C64      1.0000 0.91730  0.99760  0.21120  Biso   1.000  C
  H77      1.0000 0.93880  0.47900  0.74930  Biso   1.000  H
  H78      1.0000 0.06120  0.97900  0.75070  Biso   1.000  H
  H79      1.0000 0.06120  0.52100  0.25070  Biso   1.000  H
  H80      1.0000 0.93880  0.02100  0.24930  Biso   1.000  H
  H81      1.0000 0.00530  0.51390  0.69890  Biso   1.000  H
  H82      1.0000 0.99470  0.01390  0.80110  Biso   1.000  H
  H83      1.0000 0.99470  0.48610  0.30110  Biso   1.000  H
  H84      1.0000 0.00530  0.98610  0.19890  Biso   1.000  H
  H85      1.0000 0.86080  0.47010  0.68280  Biso   1.000  H
  H86      1.0000 0.13920  0.97010  0.81720  Biso   1.000  H
  H87      1.0000 0.13920  0.52990  0.31720  Biso   1.000  H
  H88      1.0000 0.86080  0.02990  0.18280  Biso   1.000  H
  C65      1.0000 0.14820  0.70260  0.85040  Biso   1.000  C
  C66      1.0000 0.85180  0.20260  0.64960  Biso   1.000  C
  C67      1.0000 0.85180  0.29740  0.14960  Biso   1.000  C
  C68      1.0000 0.14820  0.79740  0.35040  Biso   1.000  C
  H89      1.0000 0.13980  0.73780  0.87870  Biso   1.000  H
  H90      1.0000 0.86020  0.23780  0.62130  Biso   1.000  H
  H91      1.0000 0.86020  0.26220  0.12130  Biso   1.000  H
  H92      1.0000 0.13980  0.76220  0.37870  Biso   1.000  H
  C69      1.0000 0.17460  0.63110  0.86890  Biso   1.000  C
  C70      1.0000 0.82540  0.13110  0.63110  Biso   1.000  C
  C71      1.0000 0.82540  0.36890  0.13110  Biso   1.000  C
  C72      1.0000 0.17460  0.86890  0.36890  Biso   1.000  C
  C73      1.0000 0.17890  0.61990  0.92890  Biso   1.000  C
  C74      1.0000 0.82110  0.11990  0.57110  Biso   1.000  C
  C75      1.0000 0.82110  0.38010  0.07110  Biso   1.000  C
  C76      1.0000 0.17890  0.88010  0.42890  Biso   1.000  C
  H93      1.0000 0.16700  0.65910  0.95320  Biso   1.000  H
  H94      1.0000 0.83300  0.15910  0.54680  Biso   1.000  H
  H95      1.0000 0.83300  0.34090  0.04680  Biso   1.000  H
  H96      1.0000 0.16700  0.84090  0.45320  Biso   1.000  H
  C77      1.0000 0.20020  0.55210  0.95180  Biso   1.000  C
  C78      1.0000 0.79980  0.05210  0.54820  Biso   1.000  C
  C79      1.0000 0.79980  0.44790  0.04820  Biso   1.000  C
  C80      1.0000 0.20020  0.94790  0.45180  Biso   1.000  C
  H97      1.0000 0.20160  0.54390  0.99190  Biso   1.000  H
  H98      1.0000 0.79840  0.04390  0.50810  Biso   1.000  H
  H99      1.0000 0.79840  0.45610  0.00810  Biso   1.000  H
  H100     1.0000 0.20160  0.95610  0.49190  Biso   1.000  H
  C81      1.0000 0.21980  0.49550  0.91550  Biso   1.000  C
  C82      1.0000 0.78020  0.99550  0.58450  Biso   1.000  C
  C83      1.0000 0.78020  0.50450  0.08450  Biso   1.000  C
  C84      1.0000 0.21980  0.00450  0.41550  Biso   1.000  C
  H101     1.0000 0.23720  0.44890  0.93150  Biso   1.000  H
  H102     1.0000 0.76280  0.94890  0.56850  Biso   1.000  H
  H103     1.0000 0.76280  0.55110  0.06850  Biso   1.000  H
  H104     1.0000 0.23720  0.05110  0.43150  Biso   1.000  H
  C85      1.0000 0.21470  0.50530  0.85940  Biso   1.000  C
  C86      1.0000 0.78530  0.00530  0.64060  Biso   1.000  C
  C87      1.0000 0.78530  0.49470  0.14060  Biso   1.000  C
  C88      1.0000 0.21470  0.99470  0.35940  Biso   1.000  C
  H105     1.0000 0.22170  0.46470  0.83590  Biso   1.000  H
  H106     1.0000 0.77830  0.96470  0.66410  Biso   1.000  H
  H107     1.0000 0.77830  0.53530  0.16410  Biso   1.000  H
  H108     1.0000 0.22170  0.03530  0.33590  Biso   1.000  H
  C89      1.0000 0.19900  0.57440  0.83250  Biso   1.000  C
  C90      1.0000 0.80100  0.07440  0.66750  Biso   1.000  C
  C91      1.0000 0.80100  0.42560  0.16750  Biso   1.000  C
  C92      1.0000 0.19900  0.92560  0.33250  Biso   1.000  C
  C93      1.0000 0.09100  0.79980  0.78320  Biso   1.000  C
  C94      1.0000 0.90900  0.29980  0.71680  Biso   1.000  C
  C95      1.0000 0.90900  0.20020  0.21680  Biso   1.000  C
  C96      1.0000 0.09100  0.70020  0.28320  Biso   1.000  C
  H109     1.0000 0.03810  0.81930  0.81140  Biso   1.000  H
  H110     1.0000 0.96190  0.31930  0.68860  Biso   1.000  H
  H111     1.0000 0.96190  0.18070  0.18860  Biso   1.000  H
  H112     1.0000 0.03810  0.68070  0.31140  Biso   1.000  H
  H113     1.0000 0.17510  0.83030  0.78370  Biso   1.000  H
  H114     1.0000 0.82490  0.33030  0.71630  Biso   1.000  H
  H115     1.0000 0.82490  0.16970  0.21630  Biso   1.000  H
  H116     1.0000 0.17510  0.66970  0.28370  Biso   1.000  H
  C97      1.0000 0.99870  0.79790  0.72230  Biso   1.000  C
  C98      1.0000 0.00130  0.29790  0.77770  Biso   1.000  C
  C99      1.0000 0.00130  0.20210  0.27770  Biso   1.000  C
  C100     1.0000 0.99870  0.70210  0.22230  Biso   1.000  C
  H117     1.0000 0.90780  0.77440  0.72340  Biso   1.000  H
  H118     1.0000 0.09220  0.27440  0.77660  Biso   1.000  H
  H119     1.0000 0.09220  0.22560  0.27660  Biso   1.000  H
  H120     1.0000 0.90780  0.72560  0.22340  Biso   1.000  H
  H121     1.0000 0.97920  0.84730  0.70750  Biso   1.000  H
  H122     1.0000 0.02080  0.34730  0.79250  Biso   1.000  H
  H123     1.0000 0.02080  0.15270  0.29250  Biso   1.000  H
  H124     1.0000 0.97920  0.65270  0.20750  Biso   1.000  H
  C101     1.0000 0.97480  0.74000  0.62770  Biso   1.000  C
  C102     1.0000 0.02520  0.24000  0.87230  Biso   1.000  C
  C103     1.0000 0.02520  0.26000  0.37230  Biso   1.000  C
  C104     1.0000 0.97480  0.76000  0.12770  Biso   1.000  C
  H125     1.0000 0.89140  0.71410  0.63540  Biso   1.000  H
  H126     1.0000 0.10860  0.21410  0.86460  Biso   1.000  H
  H127     1.0000 0.10860  0.28590  0.36460  Biso   1.000  H
  H128     1.0000 0.89140  0.78590  0.13540  Biso   1.000  H
  H129     1.0000 0.02450  0.70790  0.60500  Biso   1.000  H
  H130     1.0000 0.97550  0.20790  0.89500  Biso   1.000  H
  H131     1.0000 0.97550  0.29210  0.39500  Biso   1.000  H
  H132     1.0000 0.02450  0.79210  0.10500  Biso   1.000  H
  C105     1.0000 0.92670  0.80840  0.59200  Biso   1.000  C
  C106     1.0000 0.07330  0.30840  0.90800  Biso   1.000  C
  C107     1.0000 0.07330  0.19160  0.40800  Biso   1.000  C
  C108     1.0000 0.92670  0.69160  0.09200  Biso   1.000  C
  H133     1.0000 0.86110  0.79540  0.55540  Biso   1.000  H
  H134     1.0000 0.13890  0.29540  0.94460  Biso   1.000  H
  H135     1.0000 0.13890  0.20460  0.44460  Biso   1.000  H
  H136     1.0000 0.86110  0.70460  0.05540  Biso   1.000  H
  H137     1.0000 0.87650  0.84050  0.61450  Biso   1.000  H
  H138     1.0000 0.12350  0.34050  0.88550  Biso   1.000  H
  H139     1.0000 0.12350  0.15950  0.38550  Biso   1.000  H
  H140     1.0000 0.87650  0.65950  0.11450  Biso   1.000  H
  C109     1.0000 0.05480  0.84730  0.57810  Biso   1.000  C
  C110     1.0000 0.94520  0.34730  0.92190  Biso   1.000  C
  C111     1.0000 0.94520  0.15270  0.42190  Biso   1.000  C
  C112     1.0000 0.05480  0.65270  0.07810  Biso   1.000  C
  H141     1.0000 0.10110  0.81650  0.55320  Biso   1.000  H
  H142     1.0000 0.89890  0.31650  0.94680  Biso   1.000  H
  H143     1.0000 0.89890  0.18350  0.44680  Biso   1.000  H
  H144     1.0000 0.10110  0.68350  0.05320  Biso   1.000  H
  H145     1.0000 0.02390  0.89190  0.55630  Biso   1.000  H
  H146     1.0000 0.97610  0.39190  0.94370  Biso   1.000  H
  H147     1.0000 0.97610  0.10810  0.44370  Biso   1.000  H
  H148     1.0000 0.02390  0.60810  0.05630  Biso   1.000  H
  C113     1.0000 0.15710  0.86510  0.63280  Biso   1.000  C
  C114     1.0000 0.84290  0.36510  0.86720  Biso   1.000  C
  C115     1.0000 0.84290  0.13490  0.36720  Biso   1.000  C
  C116     1.0000 0.15710  0.63490  0.13280  Biso   1.000  C
  H149     1.0000 0.11600  0.90190  0.65470  Biso   1.000  H
  H150     1.0000 0.88400  0.40190  0.84530  Biso   1.000  H
  H151     1.0000 0.88400  0.09810  0.34530  Biso   1.000  H
  H152     1.0000 0.11600  0.59810  0.15470  Biso   1.000  H
  H153     1.0000 0.24420  0.88500  0.62320  Biso   1.000  H
  H154     1.0000 0.75580  0.38500  0.87680  Biso   1.000  H
  H155     1.0000 0.75580  0.11500  0.37680  Biso   1.000  H
  H156     1.0000 0.24420  0.61500  0.12320  Biso   1.000  H
  C117     1.0000 0.19310  0.79790  0.67040  Biso   1.000  C
  C118     1.0000 0.80690  0.29790  0.82960  Biso   1.000  C
  C119     1.0000 0.80690  0.20210  0.32960  Biso   1.000  C
  C120     1.0000 0.19310  0.70210  0.17040  Biso   1.000  C
  H157     1.0000 0.24640  0.76470  0.65010  Biso   1.000  H
  H158     1.0000 0.75360  0.26470  0.84990  Biso   1.000  H
  H159     1.0000 0.75360  0.23530  0.34990  Biso   1.000  H
  H160     1.0000 0.24640  0.73530  0.15010  Biso   1.000  H
  H161     1.0000 0.25620  0.81210  0.70730  Biso   1.000  H
  H162     1.0000 0.74380  0.31210  0.79270  Biso   1.000  H
  H163     1.0000 0.74380  0.18790  0.29270  Biso   1.000  H
  H164     1.0000 0.25620  0.68790  0.20730  Biso   1.000  H
  C121     1.0000 0.31120  0.61240  0.66310  Biso   1.000  C
  C122     1.0000 0.68880  0.11240  0.83690  Biso   1.000  C
  C123     1.0000 0.68880  0.38760  0.33690  Biso   1.000  C
  C124     1.0000 0.31120  0.88760  0.16310  Biso   1.000  C
  C125     1.0000 0.35550  0.57020  0.61710  Biso   1.000  C
  C126     1.0000 0.64450  0.07020  0.88290  Biso   1.000  C
  C127     1.0000 0.64450  0.42980  0.38290  Biso   1.000  C
  C128     1.0000 0.35550  0.92980  0.11710  Biso   1.000  C
  H165     1.0000 0.36580  0.51980  0.62900  Biso   1.000  H
  H166     1.0000 0.63420  0.01980  0.87100  Biso   1.000  H
  H167     1.0000 0.63420  0.48020  0.37100  Biso   1.000  H
  H168     1.0000 0.36580  0.98020  0.12900  Biso   1.000  H
  H169     1.0000 0.44580  0.58830  0.61070  Biso   1.000  H
  H170     1.0000 0.55420  0.08830  0.88930  Biso   1.000  H
  H171     1.0000 0.55420  0.41170  0.38930  Biso   1.000  H
  H172     1.0000 0.44580  0.91170  0.11070  Biso   1.000  H
  H173     1.0000 0.28440  0.57430  0.58110  Biso   1.000  H
  H174     1.0000 0.71560  0.07430  0.91890  Biso   1.000  H
  H175     1.0000 0.71560  0.42570  0.41890  Biso   1.000  H
  H176     1.0000 0.28440  0.92570  0.08110  Biso   1.000  H
  O25      1.0000 0.42610  0.94180  0.78190  Biso   1.000  O
  O26      1.0000 0.57390  0.44180  0.71810  Biso   1.000  O
  O27      1.0000 0.57390  0.05820  0.21810  Biso   1.000  O
  O28      1.0000 0.42610  0.55820  0.28190  Biso   1.000  O
  H177     1.0000 0.39020  0.98250  0.78640  Biso   1.000  H
  H178     1.0000 0.60980  0.48250  0.71360  Biso   1.000  H
  H179     1.0000 0.60980  0.01750  0.21360  Biso   1.000  H
  H180     1.0000 0.39020  0.51750  0.28640  Biso   1.000  H
  H181     1.0000 0.50590  0.95150  0.77420  Biso   1.000  H
  H182     1.0000 0.49410  0.45150  0.72580  Biso   1.000  H
  H183     1.0000 0.49410  0.04850  0.22580  Biso   1.000  H
  H184     1.0000 0.50590  0.54850  0.27420  Biso   1.000  H
  O29      1.0000 0.29440  0.45730  0.72920  Biso   1.000  O
  O30      1.0000 0.70560  0.95730  0.77080  Biso   1.000  O
  O31      1.0000 0.70560  0.54270  0.27080  Biso   1.000  O
  O32      1.0000 0.29440  0.04270  0.22920  Biso   1.000  O
  H185     1.0000 0.24030  0.43470  0.70080  Biso   1.000  H
  H186     1.0000 0.75970  0.93470  0.79920  Biso   1.000  H
  H187     1.0000 0.75970  0.56530  0.29920  Biso   1.000  H
  H188     1.0000 0.24030  0.06530  0.20080  Biso   1.000  H
  H189     1.0000 0.25950  0.50030  0.72790  Biso   1.000  H
  H190     1.0000 0.74050  0.00030  0.77210  Biso   1.000  H
  H191     1.0000 0.74050  0.49970  0.27210  Biso   1.000  H
  H192     1.0000 0.25950  0.99970  0.22790  Biso   1.000  H
