data_image0
_cell_length_a       11.5295
_cell_length_b       10.4655
_cell_length_c       13.5703
_cell_angle_alpha    90
_cell_angle_beta     92.905
_cell_angle_gamma    90

_symmetry_space_group_name_H-M    "P 1"
_symmetry_int_tables_number       1

loop_
  _symmetry_equiv_pos_as_xyz
  'x, y, z'

loop_
  _atom_site_label
  _atom_site_occupancy
  _atom_site_fract_x
  _atom_site_fract_y
  _atom_site_fract_z
  _atom_site_thermal_displace_type
  _atom_site_B_iso_or_equiv
  _atom_site_type_symbol
  Cu1      1.0000 0.23730  0.47025  0.55098  Biso   1.000  Cu
  Cu2      1.0000 0.76270  0.47025  0.94902  Biso   1.000  Cu
  Cu3      1.0000 0.76270  0.52975  0.44902  Biso   1.000  Cu
  Cu4      1.0000 0.23730  0.52975  0.05098  Biso   1.000  Cu
  Cu5      1.0000 0.00000  0.53182  0.25000  Biso   1.000  Cu
  Cu6      1.0000 0.00000  0.46818  0.75000  Biso   1.000  Cu
  Cl1      1.0000 0.14281  0.32836  0.69368  Biso   1.000  Cl
  Cl2      1.0000 0.85719  0.32836  0.80632  Biso   1.000  Cl
  Cl3      1.0000 0.85719  0.67164  0.30632  Biso   1.000  Cl
  Cl4      1.0000 0.14281  0.67164  0.19368  Biso   1.000  Cl
  C1       1.0000 0.38490  0.87230  0.82840  Biso   1.000  C
  C2       1.0000 0.61510  0.87230  0.67160  Biso   1.000  C
  C3       1.0000 0.61510  0.12770  0.17160  Biso   1.000  C
  C4       1.0000 0.38490  0.12770  0.32840  Biso   1.000  C
  H1       1.0000 0.42881  0.94241  0.80031  Biso   1.000  H
  H2       1.0000 0.57119  0.94241  0.69969  Biso   1.000  H
  H3       1.0000 0.57119  0.05759  0.19969  Biso   1.000  H
  H4       1.0000 0.42881  0.05759  0.30031  Biso   1.000  H
  H5       1.0000 0.43422  0.82758  0.87828  Biso   1.000  H
  H6       1.0000 0.56578  0.82758  0.62172  Biso   1.000  H
  H7       1.0000 0.56578  0.17242  0.12172  Biso   1.000  H
  H8       1.0000 0.43422  0.17242  0.37828  Biso   1.000  H
  H9       1.0000 0.31645  0.90670  0.85918  Biso   1.000  H
  H10      1.0000 0.68355  0.90670  0.64082  Biso   1.000  H
  H11      1.0000 0.68355  0.09330  0.14082  Biso   1.000  H
  H12      1.0000 0.31645  0.09330  0.35918  Biso   1.000  H
  O1       1.0000 0.34930  0.78610  0.75300  Biso   1.000  O
  O2       1.0000 0.65070  0.78610  0.74700  Biso   1.000  O
  O3       1.0000 0.65070  0.21390  0.24700  Biso   1.000  O
  O4       1.0000 0.34930  0.21390  0.25300  Biso   1.000  O
  C5       1.0000 0.23930  0.73510  0.60910  Biso   1.000  C
  C6       1.0000 0.76070  0.73510  0.89090  Biso   1.000  C
  C7       1.0000 0.76070  0.26490  0.39090  Biso   1.000  C
  C8       1.0000 0.23930  0.26490  0.10910  Biso   1.000  C
  O5       1.0000 0.26710  0.61680  0.62970  Biso   1.000  O
  O6       1.0000 0.73290  0.61680  0.87030  Biso   1.000  O
  O7       1.0000 0.73290  0.38320  0.37030  Biso   1.000  O
  O8       1.0000 0.26710  0.38320  0.12970  Biso   1.000  O
  C9       1.0000 0.28360  0.83280  0.67360  Biso   1.000  C
  C10      1.0000 0.71640  0.83280  0.82640  Biso   1.000  C
  C11      1.0000 0.71640  0.16720  0.32640  Biso   1.000  C
  C12      1.0000 0.28360  0.16720  0.17360  Biso   1.000  C
  C13      1.0000 0.25810  0.95980  0.65580  Biso   1.000  C
  C14      1.0000 0.74190  0.95980  0.84420  Biso   1.000  C
  C15      1.0000 0.74190  0.04020  0.34420  Biso   1.000  C
  C16      1.0000 0.25810  0.04020  0.15580  Biso   1.000  C
  H13      1.0000 0.28982  0.02315  0.69941  Biso   1.000  H
  H14      1.0000 0.71018  0.02315  0.80059  Biso   1.000  H
  H15      1.0000 0.71018  0.97685  0.30059  Biso   1.000  H
  H16      1.0000 0.28982  0.97685  0.19941  Biso   1.000  H
  C17      1.0000 0.18610  0.99700  0.57420  Biso   1.000  C
  C18      1.0000 0.81390  0.99700  0.92580  Biso   1.000  C
  C19      1.0000 0.81390  0.00300  0.42580  Biso   1.000  C
  C20      1.0000 0.18610  0.00300  0.07420  Biso   1.000  C
  H17      1.0000 0.16886  0.08464  0.56272  Biso   1.000  H
  H18      1.0000 0.83114  0.08464  0.93728  Biso   1.000  H
  H19      1.0000 0.83114  0.91536  0.43728  Biso   1.000  H
  H20      1.0000 0.16886  0.91536  0.06272  Biso   1.000  H
  C21      1.0000 0.14130  0.90530  0.51190  Biso   1.000  C
  C22      1.0000 0.85870  0.90530  0.98810  Biso   1.000  C
  C23      1.0000 0.85870  0.09470  0.48810  Biso   1.000  C
  C24      1.0000 0.14130  0.09470  0.01190  Biso   1.000  C
  H21      1.0000 0.09157  0.92999  0.45721  Biso   1.000  H
  H22      1.0000 0.90843  0.92999  0.04279  Biso   1.000  H
  H23      1.0000 0.90843  0.07001  0.54279  Biso   1.000  H
  H24      1.0000 0.09157  0.07001  0.95721  Biso   1.000  H
  C25      1.0000 0.16680  0.77570  0.52640  Biso   1.000  C
  C26      1.0000 0.83320  0.77570  0.97360  Biso   1.000  C
  C27      1.0000 0.83320  0.22430  0.47360  Biso   1.000  C
  C28      1.0000 0.16680  0.22430  0.02640  Biso   1.000  C
  C29      1.0000 0.11690  0.68670  0.45530  Biso   1.000  C
  C30      1.0000 0.88310  0.68670  0.04470  Biso   1.000  C
  C31      1.0000 0.88310  0.31330  0.54470  Biso   1.000  C
  C32      1.0000 0.11690  0.31330  0.95530  Biso   1.000  C
  H25      1.0000 0.06637  0.71918  0.40379  Biso   1.000  H
  H26      1.0000 0.93363  0.71918  0.09621  Biso   1.000  H
  H27      1.0000 0.93363  0.28082  0.59621  Biso   1.000  H
  H28      1.0000 0.06637  0.28082  0.90379  Biso   1.000  H
  N1       1.0000 0.13680  0.56550  0.45740  Biso   1.000  N
  N2       1.0000 0.86320  0.56550  0.04260  Biso   1.000  N
  N3       1.0000 0.86320  0.43450  0.54260  Biso   1.000  N
  N4       1.0000 0.13680  0.43450  0.95740  Biso   1.000  N
  N5       1.0000 0.08580  0.49010  0.38220  Biso   1.000  N
  N6       1.0000 0.91420  0.49010  0.11780  Biso   1.000  N
  N7       1.0000 0.91420  0.50990  0.61780  Biso   1.000  N
  N8       1.0000 0.08580  0.50990  0.88220  Biso   1.000  N
  C33      1.0000 0.11680  0.37010  0.39500  Biso   1.000  C
  C34      1.0000 0.88320  0.37010  0.10500  Biso   1.000  C
  C35      1.0000 0.88320  0.62990  0.60500  Biso   1.000  C
  C36      1.0000 0.11680  0.62990  0.89500  Biso   1.000  C
  O9       1.0000 0.18620  0.32720  0.46310  Biso   1.000  O
  O10      1.0000 0.81380  0.32720  0.03690  Biso   1.000  O
  O11      1.0000 0.81380  0.67280  0.53690  Biso   1.000  O
  O12      1.0000 0.18620  0.67280  0.96310  Biso   1.000  O
  C37      1.0000 0.06030  0.28150  0.32130  Biso   1.000  C
  C38      1.0000 0.93970  0.28150  0.17870  Biso   1.000  C
  C39      1.0000 0.93970  0.71850  0.67870  Biso   1.000  C
  C40      1.0000 0.06030  0.71850  0.82130  Biso   1.000  C
  N9       1.0000 0.00000  0.34580  0.25000  Biso   1.000  N
  N10      1.0000 0.00000  0.65420  0.75000  Biso   1.000  N
  C41      1.0000 0.06280  0.14990  0.32320  Biso   1.000  C
  C42      1.0000 0.93720  0.14990  0.17680  Biso   1.000  C
  C43      1.0000 0.93720  0.85010  0.67680  Biso   1.000  C
  C44      1.0000 0.06280  0.85010  0.82320  Biso   1.000  C
  H29      1.0000 0.10654  0.10538  0.37355  Biso   1.000  H
  H30      1.0000 0.89346  0.10538  0.12645  Biso   1.000  H
  H31      1.0000 0.89346  0.89462  0.62645  Biso   1.000  H
  H32      1.0000 0.10654  0.89462  0.87355  Biso   1.000  H
  C45      1.0000 0.00000  0.08460  0.25000  Biso   1.000  C
  C46      1.0000 0.00000  0.91540  0.75000  Biso   1.000  C
  H33      1.0000 0.00000  0.99379  0.25000  Biso   1.000  H
  H34      1.0000 0.00000  0.00621  0.75000  Biso   1.000  H
  N11      1.0000 0.39540  0.39520  0.58780  Biso   1.000  N
  N12      1.0000 0.60460  0.39520  0.91220  Biso   1.000  N
  N13      1.0000 0.60460  0.60480  0.41220  Biso   1.000  N
  N14      1.0000 0.39540  0.60480  0.08780  Biso   1.000  N
  C47      1.0000 0.48390  0.46690  0.62420  Biso   1.000  C
  C48      1.0000 0.51610  0.46690  0.87580  Biso   1.000  C
  C49      1.0000 0.51610  0.53310  0.37580  Biso   1.000  C
  C50      1.0000 0.48390  0.53310  0.12420  Biso   1.000  C
  H35      1.0000 0.47168  0.55602  0.63225  Biso   1.000  H
  H36      1.0000 0.52832  0.55602  0.86775  Biso   1.000  H
  H37      1.0000 0.52832  0.44398  0.36775  Biso   1.000  H
  H38      1.0000 0.47168  0.44398  0.13225  Biso   1.000  H
  C51      1.0000 0.59120  0.41770  0.65040  Biso   1.000  C
  C52      1.0000 0.40880  0.41770  0.84960  Biso   1.000  C
  C53      1.0000 0.40880  0.58230  0.34960  Biso   1.000  C
  C54      1.0000 0.59120  0.58230  0.15040  Biso   1.000  C
  H39      1.0000 0.65186  0.47138  0.67620  Biso   1.000  H
  H40      1.0000 0.34814  0.47138  0.82380  Biso   1.000  H
  H41      1.0000 0.34814  0.52862  0.32380  Biso   1.000  H
  H42      1.0000 0.65186  0.52862  0.17620  Biso   1.000  H
  C55      1.0000 0.60930  0.28870  0.63840  Biso   1.000  C
  C56      1.0000 0.39070  0.28870  0.86160  Biso   1.000  C
  C57      1.0000 0.39070  0.71130  0.36160  Biso   1.000  C
  C58      1.0000 0.60930  0.71130  0.13840  Biso   1.000  C
  H43      1.0000 0.68229  0.25165  0.65725  Biso   1.000  H
  H44      1.0000 0.31771  0.25165  0.84275  Biso   1.000  H
  H45      1.0000 0.31771  0.74835  0.34275  Biso   1.000  H
  H46      1.0000 0.68229  0.74835  0.15725  Biso   1.000  H
  C59      1.0000 0.52100  0.21470  0.59920  Biso   1.000  C
  C60      1.0000 0.47900  0.21470  0.90080  Biso   1.000  C
  C61      1.0000 0.47900  0.78530  0.40080  Biso   1.000  C
  C62      1.0000 0.52100  0.78530  0.09920  Biso   1.000  C
  H47      1.0000 0.53269  0.12608  0.58809  Biso   1.000  H
  H48      1.0000 0.46731  0.12608  0.91191  Biso   1.000  H
  H49      1.0000 0.46731  0.87392  0.41191  Biso   1.000  H
  H50      1.0000 0.53269  0.87392  0.08809  Biso   1.000  H
  C63      1.0000 0.41380  0.27070  0.57580  Biso   1.000  C
  C64      1.0000 0.58620  0.27070  0.92420  Biso   1.000  C
  C65      1.0000 0.58620  0.72930  0.42420  Biso   1.000  C
  C66      1.0000 0.41380  0.72930  0.07580  Biso   1.000  C
  H51      1.0000 0.35174  0.21860  0.55044  Biso   1.000  H
  H52      1.0000 0.64826  0.21860  0.94956  Biso   1.000  H
  H53      1.0000 0.64826  0.78140  0.44956  Biso   1.000  H
  H54      1.0000 0.35174  0.78140  0.05044  Biso   1.000  H
