data_image0
_cell_length_a       14.035
_cell_length_b       14.766
_cell_length_c       26.088
_cell_angle_alpha    90
_cell_angle_beta     94.59
_cell_angle_gamma    90

_symmetry_space_group_name_H-M    "P 1"
_symmetry_int_tables_number       1

loop_
  _symmetry_equiv_pos_as_xyz
  'x, y, z'

loop_
  _atom_site_label
  _atom_site_occupancy
  _atom_site_fract_x
  _atom_site_fract_y
  _atom_site_fract_z
  _atom_site_thermal_displace_type
  _atom_site_B_iso_or_equiv
  _atom_site_type_symbol
  Gd1      1.0000 0.98155  0.24262  0.27168  Biso   1.000  Gd
  Gd2      1.0000 0.01845  0.74262  0.22832  Biso   1.000  Gd
  Gd3      1.0000 0.01845  0.75738  0.72832  Biso   1.000  Gd
  Gd4      1.0000 0.98155  0.25738  0.77168  Biso   1.000  Gd
  Cu1      1.0000 0.79197  0.12944  0.07918  Biso   1.000  Cu
  Cu2      1.0000 0.20803  0.62944  0.42082  Biso   1.000  Cu
  Cu3      1.0000 0.20803  0.87056  0.92082  Biso   1.000  Cu
  Cu4      1.0000 0.79197  0.37056  0.57918  Biso   1.000  Cu
  Cu5      1.0000 0.62854  0.37858  0.33413  Biso   1.000  Cu
  Cu6      1.0000 0.37146  0.87858  0.16587  Biso   1.000  Cu
  Cu7      1.0000 0.37146  0.62142  0.66587  Biso   1.000  Cu
  Cu8      1.0000 0.62854  0.12142  0.83413  Biso   1.000  Cu
  Cu9      1.0000 0.13939  0.09668  0.46170  Biso   1.000  Cu
  Cu10     1.0000 0.86061  0.59668  0.03830  Biso   1.000  Cu
  Cu11     1.0000 0.86061  0.90332  0.53830  Biso   1.000  Cu
  Cu12     1.0000 0.13939  0.40332  0.96170  Biso   1.000  Cu
  Cu13     1.0000 0.35279  0.35581  0.22049  Biso   1.000  Cu
  Cu14     1.0000 0.64721  0.85581  0.27951  Biso   1.000  Cu
  Cu15     1.0000 0.64721  0.64419  0.77951  Biso   1.000  Cu
  Cu16     1.0000 0.35279  0.14419  0.72049  Biso   1.000  Cu
  Na1      1.0000 0.04020  0.99364  0.25888  Biso   1.000  Na
  Na2      1.0000 0.95980  0.49364  0.24112  Biso   1.000  Na
  Na3      1.0000 0.95980  0.00636  0.74112  Biso   1.000  Na
  Na4      1.0000 0.04020  0.50636  0.75888  Biso   1.000  Na
  O1       1.0000 0.89490  0.29050  0.19291  Biso   1.000  O
  O2       1.0000 0.10510  0.79050  0.30709  Biso   1.000  O
  O3       1.0000 0.10510  0.70950  0.80709  Biso   1.000  O
  O4       1.0000 0.89490  0.20950  0.69291  Biso   1.000  O
  O5       1.0000 0.95220  0.11840  0.21300  Biso   1.000  O
  O6       1.0000 0.04780  0.61840  0.28700  Biso   1.000  O
  O7       1.0000 0.04780  0.88160  0.78700  Biso   1.000  O
  O8       1.0000 0.95220  0.38160  0.71300  Biso   1.000  O
  O9       1.0000 0.81870  0.24670  0.11876  Biso   1.000  O
  O10      1.0000 0.18130  0.74670  0.38124  Biso   1.000  O
  O11      1.0000 0.18130  0.75330  0.88124  Biso   1.000  O
  O12      1.0000 0.81870  0.25330  0.61876  Biso   1.000  O
  O13      1.0000 0.69200  0.17670  0.03440  Biso   1.000  O
  O14      1.0000 0.30800  0.67670  0.46560  Biso   1.000  O
  O15      1.0000 0.30800  0.82330  0.96560  Biso   1.000  O
  O16      1.0000 0.69200  0.32330  0.53440  Biso   1.000  O
  O17      1.0000 0.83080  0.20810  0.30080  Biso   1.000  O
  O18      1.0000 0.16920  0.70810  0.19920  Biso   1.000  O
  O19      1.0000 0.16920  0.79190  0.69920  Biso   1.000  O
  O20      1.0000 0.83080  0.29190  0.80080  Biso   1.000  O
  O21      1.0000 0.89720  0.37940  0.29534  Biso   1.000  O
  O22      1.0000 0.10280  0.87940  0.20466  Biso   1.000  O
  O23      1.0000 0.10280  0.62060  0.70466  Biso   1.000  O
  O24      1.0000 0.89720  0.12060  0.79534  Biso   1.000  O
  O25      1.0000 0.69160  0.25890  0.32480  Biso   1.000  O
  O26      1.0000 0.30840  0.75890  0.17520  Biso   1.000  O
  O27      1.0000 0.30840  0.74110  0.67520  Biso   1.000  O
  O28      1.0000 0.69160  0.24110  0.82480  Biso   1.000  O
  O29      1.0000 0.50810  0.33010  0.34150  Biso   1.000  O
  O30      1.0000 0.49190  0.83010  0.15850  Biso   1.000  O
  O31      1.0000 0.49190  0.66990  0.65850  Biso   1.000  O
  O32      1.0000 0.50810  0.16990  0.84150  Biso   1.000  O
  O33      1.0000 0.06080  0.27250  0.35320  Biso   1.000  O
  O34      1.0000 0.93920  0.77250  0.14680  Biso   1.000  O
  O35      1.0000 0.93920  0.72750  0.64680  Biso   1.000  O
  O36      1.0000 0.06080  0.22750  0.85320  Biso   1.000  O
  O37      1.0000 0.00560  0.10530  0.32197  Biso   1.000  O
  O38      1.0000 0.99440  0.60530  0.17803  Biso   1.000  O
  O39      1.0000 0.99440  0.89470  0.67803  Biso   1.000  O
  O40      1.0000 0.00560  0.39470  0.82197  Biso   1.000  O
  O41      1.0000 0.12390  0.21700  0.42730  Biso   1.000  O
  O42      1.0000 0.87610  0.71700  0.07270  Biso   1.000  O
  O43      1.0000 0.87610  0.78300  0.57270  Biso   1.000  O
  O44      1.0000 0.12390  0.28300  0.92730  Biso   1.000  O
  O45      1.0000 0.21280  0.14350  0.51910  Biso   1.000  O
  O46      1.0000 0.78720  0.64350  0.98090  Biso   1.000  O
  O47      1.0000 0.78720  0.85650  0.48090  Biso   1.000  O
  O48      1.0000 0.21280  0.35650  0.01910  Biso   1.000  O
  O49      1.0000 0.13680  0.19440  0.24930  Biso   1.000  O
  O50      1.0000 0.86320  0.69440  0.25070  Biso   1.000  O
  O51      1.0000 0.86320  0.80560  0.75070  Biso   1.000  O
  O52      1.0000 0.13680  0.30560  0.74930  Biso   1.000  O
  O53      1.0000 0.07490  0.36840  0.24429  Biso   1.000  O
  O54      1.0000 0.92510  0.86840  0.25571  Biso   1.000  O
  O55      1.0000 0.92510  0.63160  0.75571  Biso   1.000  O
  O56      1.0000 0.07490  0.13160  0.74429  Biso   1.000  O
  O57      1.0000 0.28090  0.23810  0.22920  Biso   1.000  O
  O58      1.0000 0.71910  0.73810  0.27080  Biso   1.000  O
  O59      1.0000 0.71910  0.76190  0.77080  Biso   1.000  O
  O60      1.0000 0.28090  0.26190  0.72920  Biso   1.000  O
  O61      1.0000 0.46960  0.30360  0.20749  Biso   1.000  O
  O62      1.0000 0.53040  0.80360  0.29251  Biso   1.000  O
  O63      1.0000 0.53040  0.69640  0.79251  Biso   1.000  O
  O64      1.0000 0.46960  0.19640  0.70749  Biso   1.000  O
  O65      1.0000 0.91580  0.15040  0.01490  Biso   1.000  O
  O66      1.0000 0.08420  0.65040  0.48510  Biso   1.000  O
  O67      1.0000 0.08420  0.84960  0.98510  Biso   1.000  O
  O68      1.0000 0.91580  0.34960  0.51490  Biso   1.000  O
  O69      1.0000 0.09200  0.21680  0.04960  Biso   1.000  O
  O70      1.0000 0.90800  0.71680  0.45040  Biso   1.000  O
  O71      1.0000 0.90800  0.78320  0.95040  Biso   1.000  O
  O72      1.0000 0.09200  0.28320  0.54960  Biso   1.000  O
  O73      1.0000 0.19160  0.99280  0.30430  Biso   1.000  O
  O74      1.0000 0.80840  0.49280  0.19570  Biso   1.000  O
  O75      1.0000 0.80840  0.00720  0.69570  Biso   1.000  O
  O76      1.0000 0.19160  0.50720  0.80430  Biso   1.000  O
  O77      1.0000 0.70710  0.54370  0.09490  Biso   1.000  O
  O78      1.0000 0.29290  0.04370  0.40510  Biso   1.000  O
  O79      1.0000 0.29290  0.45630  0.90510  Biso   1.000  O
  O80      1.0000 0.70710  0.95630  0.59490  Biso   1.000  O
  O81      1.0000 0.64950  0.37410  0.05780  Biso   1.000  O
  O82      1.0000 0.35050  0.87410  0.44220  Biso   1.000  O
  O83      1.0000 0.35050  0.62590  0.94220  Biso   1.000  O
  O84      1.0000 0.64950  0.12590  0.55780  Biso   1.000  O
  N1       1.0000 0.87590  0.08150  0.13380  Biso   1.000  N
  N2       1.0000 0.12410  0.58150  0.36620  Biso   1.000  N
  N3       1.0000 0.12410  0.91850  0.86620  Biso   1.000  N
  N4       1.0000 0.87590  0.41850  0.63380  Biso   1.000  N
  N5       1.0000 0.77850  0.00550  0.05770  Biso   1.000  N
  N6       1.0000 0.22150  0.50550  0.44230  Biso   1.000  N
  N7       1.0000 0.22150  0.99450  0.94230  Biso   1.000  N
  N8       1.0000 0.77850  0.49450  0.55770  Biso   1.000  N
  N9       1.0000 0.75200  0.42400  0.32280  Biso   1.000  N
  N10      1.0000 0.24800  0.92400  0.17720  Biso   1.000  N
  N11      1.0000 0.24800  0.57600  0.67720  Biso   1.000  N
  N12      1.0000 0.75200  0.07600  0.82280  Biso   1.000  N
  N13      1.0000 0.60080  0.50210  0.35160  Biso   1.000  N
  N14      1.0000 0.39920  0.00210  0.14840  Biso   1.000  N
  N15      1.0000 0.39920  0.49790  0.64840  Biso   1.000  N
  N16      1.0000 0.60080  0.99790  0.85160  Biso   1.000  N
  N17      1.0000 0.05810  0.05640  0.40420  Biso   1.000  N
  N18      1.0000 0.94190  0.55640  0.09580  Biso   1.000  N
  N19      1.0000 0.94190  0.94360  0.59580  Biso   1.000  N
  N20      1.0000 0.05810  0.44360  0.90420  Biso   1.000  N
  N21      1.0000 0.13130  0.97430  0.48550  Biso   1.000  N
  N22      1.0000 0.86870  0.47430  0.01450  Biso   1.000  N
  N23      1.0000 0.86870  0.02570  0.51450  Biso   1.000  N
  N24      1.0000 0.13130  0.52570  0.98550  Biso   1.000  N
  N25      1.0000 0.22870  0.40610  0.22650  Biso   1.000  N
  N26      1.0000 0.77130  0.90610  0.27350  Biso   1.000  N
  N27      1.0000 0.77130  0.59390  0.77350  Biso   1.000  N
  N28      1.0000 0.22870  0.09390  0.72650  Biso   1.000  N
  N29      1.0000 0.39380  0.47930  0.22260  Biso   1.000  N
  N30      1.0000 0.60620  0.97930  0.27740  Biso   1.000  N
  N31      1.0000 0.60620  0.52070  0.77740  Biso   1.000  N
  N32      1.0000 0.39380  0.02070  0.72260  Biso   1.000  N
  C1       1.0000 0.86950  0.23260  0.15950  Biso   1.000  C
  C2       1.0000 0.13050  0.73260  0.34050  Biso   1.000  C
  C3       1.0000 0.13050  0.76740  0.84050  Biso   1.000  C
  C4       1.0000 0.86950  0.26740  0.65950  Biso   1.000  C
  C5       1.0000 0.90310  0.13440  0.17130  Biso   1.000  C
  C6       1.0000 0.09690  0.63440  0.32870  Biso   1.000  C
  C7       1.0000 0.09690  0.86560  0.82870  Biso   1.000  C
  C8       1.0000 0.90310  0.36560  0.67130  Biso   1.000  C
  C9       1.0000 0.89020  0.98310  0.13440  Biso   1.000  C
  C10      1.0000 0.10980  0.48310  0.36560  Biso   1.000  C
  C11      1.0000 0.10980  0.01690  0.86560  Biso   1.000  C
  C12      1.0000 0.89020  0.51690  0.63440  Biso   1.000  C
  C13      1.0000 0.85630  0.94820  0.08050  Biso   1.000  C
  C14      1.0000 0.14370  0.44820  0.41950  Biso   1.000  C
  C15      1.0000 0.14370  0.05180  0.91950  Biso   1.000  C
  C16      1.0000 0.85630  0.55180  0.58050  Biso   1.000  C
  C17      1.0000 0.71570  0.97530  0.02270  Biso   1.000  C
  C18      1.0000 0.28430  0.47530  0.47730  Biso   1.000  C
  C19      1.0000 0.28430  0.02470  0.97730  Biso   1.000  C
  C20      1.0000 0.71570  0.52470  0.52270  Biso   1.000  C
  C21      1.0000 0.64600  0.03190  0.99890  Biso   1.000  C
  C22      1.0000 0.35400  0.53190  0.50110  Biso   1.000  C
  C23      1.0000 0.35400  0.96810  0.00110  Biso   1.000  C
  C24      1.0000 0.64600  0.46810  0.49890  Biso   1.000  C
  C25      1.0000 0.63810  0.12400  0.00390  Biso   1.000  C
  C26      1.0000 0.36190  0.62400  0.49610  Biso   1.000  C
  C27      1.0000 0.36190  0.87600  0.99610  Biso   1.000  C
  C28      1.0000 0.63810  0.37600  0.50390  Biso   1.000  C
  C29      1.0000 0.71410  0.87780  0.00590  Biso   1.000  C
  C30      1.0000 0.28590  0.37780  0.49410  Biso   1.000  C
  C31      1.0000 0.28590  0.12220  0.99410  Biso   1.000  C
  C32      1.0000 0.71410  0.62220  0.50590  Biso   1.000  C
  C33      1.0000 0.56030  0.17680  0.97370  Biso   1.000  C
  C34      1.0000 0.43970  0.67680  0.52630  Biso   1.000  C
  C35      1.0000 0.43970  0.82320  0.02630  Biso   1.000  C
  C36      1.0000 0.56030  0.32320  0.47370  Biso   1.000  C
  C37      1.0000 0.77520  0.26940  0.31250  Biso   1.000  C
  C38      1.0000 0.22480  0.76940  0.18750  Biso   1.000  C
  C39      1.0000 0.22480  0.73060  0.68750  Biso   1.000  C
  C40      1.0000 0.77520  0.23060  0.81250  Biso   1.000  C
  C41      1.0000 0.81330  0.36730  0.30930  Biso   1.000  C
  C42      1.0000 0.18670  0.86730  0.19070  Biso   1.000  C
  C43      1.0000 0.18670  0.63270  0.69070  Biso   1.000  C
  C44      1.0000 0.81330  0.13270  0.80930  Biso   1.000  C
  C45      1.0000 0.76040  0.52270  0.32150  Biso   1.000  C
  C46      1.0000 0.23960  0.02270  0.17850  Biso   1.000  C
  C47      1.0000 0.23960  0.47730  0.67850  Biso   1.000  C
  C48      1.0000 0.76040  0.97730  0.82150  Biso   1.000  C
  C49      1.0000 0.68480  0.56080  0.35370  Biso   1.000  C
  C50      1.0000 0.31520  0.06080  0.14630  Biso   1.000  C
  C51      1.0000 0.31520  0.43920  0.64630  Biso   1.000  C
  C52      1.0000 0.68480  0.93920  0.85370  Biso   1.000  C
  C53      1.0000 0.51790  0.52870  0.36520  Biso   1.000  C
  C54      1.0000 0.48210  0.02870  0.13480  Biso   1.000  C
  C55      1.0000 0.48210  0.47130  0.63480  Biso   1.000  C
  C56      1.0000 0.51790  0.97130  0.86520  Biso   1.000  C
  C57      1.0000 0.43960  0.47160  0.36470  Biso   1.000  C
  C58      1.0000 0.56040  0.97160  0.13530  Biso   1.000  C
  C59      1.0000 0.56040  0.52840  0.63530  Biso   1.000  C
  C60      1.0000 0.43960  0.02840  0.86470  Biso   1.000  C
  C61      1.0000 0.43660  0.37870  0.35240  Biso   1.000  C
  C62      1.0000 0.56340  0.87870  0.14760  Biso   1.000  C
  C63      1.0000 0.56340  0.62130  0.64760  Biso   1.000  C
  C64      1.0000 0.43660  0.12130  0.85240  Biso   1.000  C
  C65      1.0000 0.50530  0.62630  0.38230  Biso   1.000  C
  C66      1.0000 0.49470  0.12630  0.11770  Biso   1.000  C
  C67      1.0000 0.49470  0.37370  0.61770  Biso   1.000  C
  C68      1.0000 0.50530  0.87370  0.88230  Biso   1.000  C
  C69      1.0000 0.34560  0.32440  0.35580  Biso   1.000  C
  C70      1.0000 0.65440  0.82440  0.14420  Biso   1.000  C
  C71      1.0000 0.65440  0.67560  0.64420  Biso   1.000  C
  C72      1.0000 0.34560  0.17560  0.85580  Biso   1.000  C
  C73      1.0000 0.07910  0.20910  0.38410  Biso   1.000  C
  C74      1.0000 0.92090  0.70910  0.11590  Biso   1.000  C
  C75      1.0000 0.92090  0.79090  0.61590  Biso   1.000  C
  C76      1.0000 0.07910  0.29090  0.88410  Biso   1.000  C
  C77      1.0000 0.04270  0.11450  0.36720  Biso   1.000  C
  C78      1.0000 0.95730  0.61450  0.13280  Biso   1.000  C
  C79      1.0000 0.95730  0.88550  0.63280  Biso   1.000  C
  C80      1.0000 0.04270  0.38550  0.86720  Biso   1.000  C
  C81      1.0000 0.03520  0.96120  0.40180  Biso   1.000  C
  C82      1.0000 0.96480  0.46120  0.09820  Biso   1.000  C
  C83      1.0000 0.96480  0.03880  0.59820  Biso   1.000  C
  C84      1.0000 0.03520  0.53880  0.90180  Biso   1.000  C
  C85      1.0000 0.07120  0.91640  0.45160  Biso   1.000  C
  C86      1.0000 0.92880  0.41640  0.04840  Biso   1.000  C
  C87      1.0000 0.92880  0.08360  0.54840  Biso   1.000  C
  C88      1.0000 0.07120  0.58360  0.95160  Biso   1.000  C
  C89      1.0000 0.17730  0.94480  0.52740  Biso   1.000  C
  C90      1.0000 0.82270  0.44480  0.97260  Biso   1.000  C
  C91      1.0000 0.82270  0.05520  0.47260  Biso   1.000  C
  C92      1.0000 0.17730  0.55520  0.02740  Biso   1.000  C
  C93      1.0000 0.23640  0.00010  0.55890  Biso   1.000  C
  C94      1.0000 0.76360  0.50010  0.94110  Biso   1.000  C
  C95      1.0000 0.76360  0.99990  0.44110  Biso   1.000  C
  C96      1.0000 0.23640  0.49990  0.05890  Biso   1.000  C
  C97      1.0000 0.25400  0.09200  0.55360  Biso   1.000  C
  C98      1.0000 0.74600  0.59200  0.94640  Biso   1.000  C
  C99      1.0000 0.74600  0.90800  0.44640  Biso   1.000  C
  C100     1.0000 0.25400  0.40800  0.05360  Biso   1.000  C
  C101     1.0000 0.17020  0.84480  0.54360  Biso   1.000  C
  C102     1.0000 0.82980  0.34480  0.95640  Biso   1.000  C
  C103     1.0000 0.82980  0.15520  0.45640  Biso   1.000  C
  C104     1.0000 0.17020  0.65520  0.04360  Biso   1.000  C
  C105     1.0000 0.32160  0.13880  0.59220  Biso   1.000  C
  C106     1.0000 0.67840  0.63880  0.90780  Biso   1.000  C
  C107     1.0000 0.67840  0.86120  0.40780  Biso   1.000  C
  C108     1.0000 0.32160  0.36120  0.09220  Biso   1.000  C
  C109     1.0000 0.19660  0.25220  0.23880  Biso   1.000  C
  C110     1.0000 0.80340  0.75220  0.26120  Biso   1.000  C
  C111     1.0000 0.80340  0.74780  0.76120  Biso   1.000  C
  C112     1.0000 0.19660  0.24780  0.73880  Biso   1.000  C
  C113     1.0000 0.16100  0.35220  0.23630  Biso   1.000  C
  C114     1.0000 0.83900  0.85220  0.26370  Biso   1.000  C
  C115     1.0000 0.83900  0.64780  0.76370  Biso   1.000  C
  C116     1.0000 0.16100  0.14780  0.73630  Biso   1.000  C
  C117     1.0000 0.22180  0.50390  0.22120  Biso   1.000  C
  C118     1.0000 0.77820  0.00390  0.27880  Biso   1.000  C
  C119     1.0000 0.77820  0.49610  0.77880  Biso   1.000  C
  C120     1.0000 0.22180  0.99610  0.72120  Biso   1.000  C
  C121     1.0000 0.31870  0.54320  0.23430  Biso   1.000  C
  C122     1.0000 0.68130  0.04320  0.26570  Biso   1.000  C
  C123     1.0000 0.68130  0.45680  0.76570  Biso   1.000  C
  C124     1.0000 0.31870  0.95680  0.73430  Biso   1.000  C
  C125     1.0000 0.48240  0.50410  0.22100  Biso   1.000  C
  C126     1.0000 0.51760  0.00410  0.27900  Biso   1.000  C
  C127     1.0000 0.51760  0.49590  0.77900  Biso   1.000  C
  C128     1.0000 0.48240  0.99590  0.72100  Biso   1.000  C
  C129     1.0000 0.55600  0.44220  0.21350  Biso   1.000  C
  C130     1.0000 0.44400  0.94220  0.28650  Biso   1.000  C
  C131     1.0000 0.44400  0.55780  0.78650  Biso   1.000  C
  C132     1.0000 0.55600  0.05780  0.71350  Biso   1.000  C
  C133     1.0000 0.54710  0.34940  0.20650  Biso   1.000  C
  C134     1.0000 0.45290  0.84940  0.29350  Biso   1.000  C
  C135     1.0000 0.45290  0.65060  0.79350  Biso   1.000  C
  C136     1.0000 0.54710  0.15060  0.70650  Biso   1.000  C
  C137     1.0000 0.51080  0.60330  0.22740  Biso   1.000  C
  C138     1.0000 0.48920  0.10330  0.27260  Biso   1.000  C
  C139     1.0000 0.48920  0.39670  0.77260  Biso   1.000  C
  C140     1.0000 0.51080  0.89670  0.72740  Biso   1.000  C
  C141     1.0000 0.63410  0.29470  0.19560  Biso   1.000  C
  C142     1.0000 0.36590  0.79470  0.30440  Biso   1.000  C
  C143     1.0000 0.36590  0.70530  0.80440  Biso   1.000  C
  C144     1.0000 0.63410  0.20530  0.69560  Biso   1.000  C
  C145     1.0000 0.89880  0.11380  0.96600  Biso   1.000  C
  C146     1.0000 0.10120  0.61380  0.53400  Biso   1.000  C
  C147     1.0000 0.10120  0.88620  0.03400  Biso   1.000  C
  C148     1.0000 0.89880  0.38620  0.46600  Biso   1.000  C
  C149     1.0000 0.09850  0.22260  0.10270  Biso   1.000  C
  C150     1.0000 0.90150  0.72260  0.39730  Biso   1.000  C
  C151     1.0000 0.90150  0.77740  0.89730  Biso   1.000  C
  C152     1.0000 0.09850  0.27740  0.60270  Biso   1.000  C
  H1       1.0000 0.95600  0.96980  0.14210  Biso   1.000  H
  H2       1.0000 0.04400  0.46980  0.35790  Biso   1.000  H
  H3       1.0000 0.04400  0.03020  0.85790  Biso   1.000  H
  H4       1.0000 0.95600  0.53020  0.64210  Biso   1.000  H
  H5       1.0000 0.85400  0.95620  0.15960  Biso   1.000  H
  H6       1.0000 0.14600  0.45620  0.34040  Biso   1.000  H
  H7       1.0000 0.14600  0.04380  0.84040  Biso   1.000  H
  H8       1.0000 0.85400  0.54380  0.65960  Biso   1.000  H
  H9       1.0000 0.83440  0.88770  0.08320  Biso   1.000  H
  H10      1.0000 0.16560  0.38770  0.41680  Biso   1.000  H
  H11      1.0000 0.16560  0.11230  0.91680  Biso   1.000  H
  H12      1.0000 0.83440  0.61230  0.58320  Biso   1.000  H
  H13      1.0000 0.90810  0.94970  0.05920  Biso   1.000  H
  H14      1.0000 0.09190  0.44970  0.44080  Biso   1.000  H
  H15      1.0000 0.09190  0.05030  0.94080  Biso   1.000  H
  H16      1.0000 0.90810  0.55030  0.55920  Biso   1.000  H
  H17      1.0000 0.59530  0.00330  0.97870  Biso   1.000  H
  H18      1.0000 0.40470  0.50330  0.52130  Biso   1.000  H
  H19      1.0000 0.40470  0.99670  0.02130  Biso   1.000  H
  H20      1.0000 0.59530  0.49670  0.47870  Biso   1.000  H
  H21      1.0000 0.75280  0.87330  0.97780  Biso   1.000  H
  H22      1.0000 0.24720  0.37330  0.52220  Biso   1.000  H
  H23      1.0000 0.24720  0.12670  0.02220  Biso   1.000  H
  H24      1.0000 0.75280  0.62670  0.47780  Biso   1.000  H
  H25      1.0000 0.65100  0.85830  0.99540  Biso   1.000  H
  H26      1.0000 0.34900  0.35830  0.50460  Biso   1.000  H
  H27      1.0000 0.34900  0.14170  0.00460  Biso   1.000  H
  H28      1.0000 0.65100  0.64170  0.49540  Biso   1.000  H
  H29      1.0000 0.74000  0.84070  0.03330  Biso   1.000  H
  H30      1.0000 0.26000  0.34070  0.46670  Biso   1.000  H
  H31      1.0000 0.26000  0.15930  0.96670  Biso   1.000  H
  H32      1.0000 0.74000  0.65930  0.53330  Biso   1.000  H
  H33      1.0000 0.50470  0.17930  0.99220  Biso   1.000  H
  H34      1.0000 0.49530  0.67930  0.50780  Biso   1.000  H
  H35      1.0000 0.49530  0.82070  0.00780  Biso   1.000  H
  H36      1.0000 0.50470  0.32070  0.49220  Biso   1.000  H
  H37      1.0000 0.54530  0.14790  0.94160  Biso   1.000  H
  H38      1.0000 0.45470  0.64790  0.55840  Biso   1.000  H
  H39      1.0000 0.45470  0.85210  0.05840  Biso   1.000  H
  H40      1.0000 0.54530  0.35210  0.44160  Biso   1.000  H
  H41      1.0000 0.58240  0.23650  0.96810  Biso   1.000  H
  H42      1.0000 0.41760  0.73650  0.53190  Biso   1.000  H
  H43      1.0000 0.41760  0.76350  0.03190  Biso   1.000  H
  H44      1.0000 0.58240  0.26350  0.46810  Biso   1.000  H
  H45      1.0000 0.82160  0.54160  0.33560  Biso   1.000  H
  H46      1.0000 0.17840  0.04160  0.16440  Biso   1.000  H
  H47      1.0000 0.17840  0.45840  0.66440  Biso   1.000  H
  H48      1.0000 0.82160  0.95840  0.83560  Biso   1.000  H
  H49      1.0000 0.75040  0.54340  0.28700  Biso   1.000  H
  H50      1.0000 0.24960  0.04340  0.21300  Biso   1.000  H
  H51      1.0000 0.24960  0.45660  0.71300  Biso   1.000  H
  H52      1.0000 0.75040  0.95660  0.78700  Biso   1.000  H
  H53      1.0000 0.66530  0.61850  0.34070  Biso   1.000  H
  H54      1.0000 0.33470  0.11850  0.15930  Biso   1.000  H
  H55      1.0000 0.33470  0.38150  0.65930  Biso   1.000  H
  H56      1.0000 0.66530  0.88150  0.84070  Biso   1.000  H
  H57      1.0000 0.71020  0.56680  0.38840  Biso   1.000  H
  H58      1.0000 0.28980  0.06680  0.11160  Biso   1.000  H
  H59      1.0000 0.28980  0.43320  0.61160  Biso   1.000  H
  H60      1.0000 0.71020  0.93320  0.88840  Biso   1.000  H
  H61      1.0000 0.38150  0.49840  0.37340  Biso   1.000  H
  H62      1.0000 0.61850  0.99840  0.12660  Biso   1.000  H
  H63      1.0000 0.61850  0.50160  0.62660  Biso   1.000  H
  H64      1.0000 0.38150  0.00160  0.87340  Biso   1.000  H
  H65      1.0000 0.52060  0.63160  0.41830  Biso   1.000  H
  H66      1.0000 0.47940  0.13160  0.08170  Biso   1.000  H
  H67      1.0000 0.47940  0.36840  0.58170  Biso   1.000  H
  H68      1.0000 0.52060  0.86840  0.91830  Biso   1.000  H
  H69      1.0000 0.43990  0.64130  0.37430  Biso   1.000  H
  H70      1.0000 0.56010  0.14130  0.12570  Biso   1.000  H
  H71      1.0000 0.56010  0.35870  0.62570  Biso   1.000  H
  H72      1.0000 0.43990  0.85870  0.87430  Biso   1.000  H
  H73      1.0000 0.54430  0.66640  0.36460  Biso   1.000  H
  H74      1.0000 0.45570  0.16640  0.13540  Biso   1.000  H
  H75      1.0000 0.45570  0.33360  0.63540  Biso   1.000  H
  H76      1.0000 0.54430  0.83360  0.86460  Biso   1.000  H
  H77      1.0000 0.31040  0.32070  0.32320  Biso   1.000  H
  H78      1.0000 0.68960  0.82070  0.17680  Biso   1.000  H
  H79      1.0000 0.68960  0.67930  0.67680  Biso   1.000  H
  H80      1.0000 0.31040  0.17930  0.82320  Biso   1.000  H
  H81      1.0000 0.30740  0.35250  0.37970  Biso   1.000  H
  H82      1.0000 0.69260  0.85250  0.12030  Biso   1.000  H
  H83      1.0000 0.69260  0.64750  0.62030  Biso   1.000  H
  H84      1.0000 0.30740  0.14750  0.87970  Biso   1.000  H
  H85      1.0000 0.36270  0.26520  0.36740  Biso   1.000  H
  H86      1.0000 0.63730  0.76520  0.13260  Biso   1.000  H
  H87      1.0000 0.63730  0.73480  0.63260  Biso   1.000  H
  H88      1.0000 0.36270  0.23480  0.86740  Biso   1.000  H
  H89      1.0000 0.96790  0.95310  0.39690  Biso   1.000  H
  H90      1.0000 0.03210  0.45310  0.10310  Biso   1.000  H
  H91      1.0000 0.03210  0.04690  0.60310  Biso   1.000  H
  H92      1.0000 0.96790  0.54690  0.89690  Biso   1.000  H
  H93      1.0000 0.06460  0.93430  0.37400  Biso   1.000  H
  H94      1.0000 0.93540  0.43430  0.12600  Biso   1.000  H
  H95      1.0000 0.93540  0.06570  0.62600  Biso   1.000  H
  H96      1.0000 0.06460  0.56570  0.87400  Biso   1.000  H
  H97      1.0000 0.10880  0.86540  0.44380  Biso   1.000  H
  H98      1.0000 0.89120  0.36540  0.05620  Biso   1.000  H
  H99      1.0000 0.89120  0.13460  0.55620  Biso   1.000  H
  H100     1.0000 0.10880  0.63460  0.94380  Biso   1.000  H
  H101     1.0000 0.01820  0.89690  0.46920  Biso   1.000  H
  H102     1.0000 0.98180  0.39690  0.03080  Biso   1.000  H
  H103     1.0000 0.98180  0.10310  0.53080  Biso   1.000  H
  H104     1.0000 0.01820  0.60310  0.96920  Biso   1.000  H
  H105     1.0000 0.26910  0.97210  0.58800  Biso   1.000  H
  H106     1.0000 0.73090  0.47210  0.91200  Biso   1.000  H
  H107     1.0000 0.73090  0.02790  0.41200  Biso   1.000  H
  H108     1.0000 0.26910  0.52790  0.08800  Biso   1.000  H
  H109     1.0000 0.11920  0.83620  0.56490  Biso   1.000  H
  H110     1.0000 0.88080  0.33620  0.93510  Biso   1.000  H
  H111     1.0000 0.88080  0.16380  0.43510  Biso   1.000  H
  H112     1.0000 0.11920  0.66380  0.06490  Biso   1.000  H
  H113     1.0000 0.22870  0.82700  0.56170  Biso   1.000  H
  H114     1.0000 0.77130  0.32700  0.93830  Biso   1.000  H
  H115     1.0000 0.77130  0.17300  0.43830  Biso   1.000  H
  H116     1.0000 0.22870  0.67300  0.06170  Biso   1.000  H
  H117     1.0000 0.15940  0.80920  0.51340  Biso   1.000  H
  H118     1.0000 0.84060  0.30920  0.98660  Biso   1.000  H
  H119     1.0000 0.84060  0.19080  0.48660  Biso   1.000  H
  H120     1.0000 0.15940  0.69080  0.01340  Biso   1.000  H
  H121     1.0000 0.38430  0.14330  0.58100  Biso   1.000  H
  H122     1.0000 0.61570  0.64330  0.91900  Biso   1.000  H
  H123     1.0000 0.61570  0.85670  0.41900  Biso   1.000  H
  H124     1.0000 0.38430  0.35670  0.08100  Biso   1.000  H
  H125     1.0000 0.32410  0.10810  0.62420  Biso   1.000  H
  H126     1.0000 0.67590  0.60810  0.87580  Biso   1.000  H
  H127     1.0000 0.67590  0.89190  0.37580  Biso   1.000  H
  H128     1.0000 0.32410  0.39190  0.12420  Biso   1.000  H
  H129     1.0000 0.29620  0.19790  0.59600  Biso   1.000  H
  H130     1.0000 0.70380  0.69790  0.90400  Biso   1.000  H
  H131     1.0000 0.70380  0.80210  0.40400  Biso   1.000  H
  H132     1.0000 0.29620  0.30210  0.09600  Biso   1.000  H
  H133     1.0000 0.19970  0.51890  0.18690  Biso   1.000  H
  H134     1.0000 0.80030  0.01890  0.31310  Biso   1.000  H
  H135     1.0000 0.80030  0.48110  0.81310  Biso   1.000  H
  H136     1.0000 0.19970  0.98110  0.68690  Biso   1.000  H
  H137     1.0000 0.17850  0.52690  0.24420  Biso   1.000  H
  H138     1.0000 0.82150  0.02690  0.25580  Biso   1.000  H
  H139     1.0000 0.82150  0.47310  0.75580  Biso   1.000  H
  H140     1.0000 0.17850  0.97310  0.74420  Biso   1.000  H
  H141     1.0000 0.32570  0.55810  0.26980  Biso   1.000  H
  H142     1.0000 0.67430  0.05810  0.23020  Biso   1.000  H
  H143     1.0000 0.67430  0.44190  0.73020  Biso   1.000  H
  H144     1.0000 0.32570  0.94190  0.76980  Biso   1.000  H
  H145     1.0000 0.32440  0.59660  0.21440  Biso   1.000  H
  H146     1.0000 0.67560  0.09660  0.28560  Biso   1.000  H
  H147     1.0000 0.67560  0.40340  0.78560  Biso   1.000  H
  H148     1.0000 0.32440  0.90340  0.71440  Biso   1.000  H
  H149     1.0000 0.61880  0.46620  0.21340  Biso   1.000  H
  H150     1.0000 0.38120  0.96620  0.28660  Biso   1.000  H
  H151     1.0000 0.38120  0.53380  0.78660  Biso   1.000  H
  H152     1.0000 0.61880  0.03380  0.71340  Biso   1.000  H
  H153     1.0000 0.50670  0.63240  0.19490  Biso   1.000  H
  H154     1.0000 0.49330  0.13240  0.30510  Biso   1.000  H
  H155     1.0000 0.49330  0.36760  0.80510  Biso   1.000  H
  H156     1.0000 0.50670  0.86760  0.69490  Biso   1.000  H
  H157     1.0000 0.57470  0.60660  0.24240  Biso   1.000  H
  H158     1.0000 0.42530  0.10660  0.25760  Biso   1.000  H
  H159     1.0000 0.42530  0.39340  0.75760  Biso   1.000  H
  H160     1.0000 0.57470  0.89340  0.74240  Biso   1.000  H
  H161     1.0000 0.46930  0.63250  0.24930  Biso   1.000  H
  H162     1.0000 0.53070  0.13250  0.25070  Biso   1.000  H
  H163     1.0000 0.53070  0.36750  0.75070  Biso   1.000  H
  H164     1.0000 0.46930  0.86750  0.74930  Biso   1.000  H
  H165     1.0000 0.66540  0.27330  0.22690  Biso   1.000  H
  H166     1.0000 0.33460  0.77330  0.27310  Biso   1.000  H
  H167     1.0000 0.33460  0.72670  0.77310  Biso   1.000  H
  H168     1.0000 0.66540  0.22670  0.72690  Biso   1.000  H
  H169     1.0000 0.67670  0.33200  0.17840  Biso   1.000  H
  H170     1.0000 0.32330  0.83200  0.32160  Biso   1.000  H
  H171     1.0000 0.32330  0.66800  0.82160  Biso   1.000  H
  H172     1.0000 0.67670  0.16800  0.67840  Biso   1.000  H
  H173     1.0000 0.61500  0.24470  0.17430  Biso   1.000  H
  H174     1.0000 0.38500  0.74470  0.32570  Biso   1.000  H
  H175     1.0000 0.38500  0.75530  0.82570  Biso   1.000  H
  H176     1.0000 0.61500  0.25530  0.67430  Biso   1.000  H
  H177     1.0000 0.90410  0.04970  0.96790  Biso   1.000  H
  H178     1.0000 0.09590  0.54970  0.53210  Biso   1.000  H
  H179     1.0000 0.09590  0.95030  0.03210  Biso   1.000  H
  H180     1.0000 0.90410  0.45030  0.46790  Biso   1.000  H
  H181     1.0000 0.94440  0.13670  0.94420  Biso   1.000  H
  H182     1.0000 0.05560  0.63670  0.55580  Biso   1.000  H
  H183     1.0000 0.05560  0.86330  0.05580  Biso   1.000  H
  H184     1.0000 0.94440  0.36330  0.44420  Biso   1.000  H
  H185     1.0000 0.83630  0.12980  0.95230  Biso   1.000  H
  H186     1.0000 0.16370  0.62980  0.54770  Biso   1.000  H
  H187     1.0000 0.16370  0.87020  0.04770  Biso   1.000  H
  H188     1.0000 0.83630  0.37020  0.45230  Biso   1.000  H
  H189     1.0000 0.08920  0.28480  0.11020  Biso   1.000  H
  H190     1.0000 0.91080  0.78480  0.38980  Biso   1.000  H
  H191     1.0000 0.91080  0.71520  0.88980  Biso   1.000  H
  H192     1.0000 0.08920  0.21520  0.61020  Biso   1.000  H
  H193     1.0000 0.15910  0.20360  0.11770  Biso   1.000  H
  H194     1.0000 0.84090  0.70360  0.38230  Biso   1.000  H
  H195     1.0000 0.84090  0.79640  0.88230  Biso   1.000  H
  H196     1.0000 0.15910  0.29640  0.61770  Biso   1.000  H
  H197     1.0000 0.04970  0.18760  0.11640  Biso   1.000  H
  H198     1.0000 0.95030  0.68760  0.38360  Biso   1.000  H
  H199     1.0000 0.95030  0.81240  0.88360  Biso   1.000  H
  H200     1.0000 0.04970  0.31240  0.61640  Biso   1.000  H
