data_image0
_cell_length_a       26.507
_cell_length_b       14.78
_cell_length_c       11.512
_cell_angle_alpha    90
_cell_angle_beta     108.359
_cell_angle_gamma    90

_symmetry_space_group_name_H-M    "P 1"
_symmetry_int_tables_number       1

loop_
  _symmetry_equiv_pos_as_xyz
  'x, y, z'

loop_
  _atom_site_label
  _atom_site_occupancy
  _atom_site_fract_x
  _atom_site_fract_y
  _atom_site_fract_z
  _atom_site_thermal_displace_type
  _atom_site_B_iso_or_equiv
  _atom_site_type_symbol
  W1       1.0000 0.34965  0.50000  0.79936  Biso   1.000  W
  W2       1.0000 0.84965  0.00000  0.79936  Biso   1.000  W
  W3       1.0000 0.65035  0.50000  0.20064  Biso   1.000  W
  W4       1.0000 0.15035  0.00000  0.20064  Biso   1.000  W
  W5       1.0000 0.36168  0.00000  0.85814  Biso   1.000  W
  W6       1.0000 0.86168  0.50000  0.85814  Biso   1.000  W
  W7       1.0000 0.63832  0.00000  0.14186  Biso   1.000  W
  W8       1.0000 0.13832  0.50000  0.14186  Biso   1.000  W
  Cu1      1.0000 0.25000  0.25000  0.50000  Biso   1.000  Cu
  Cu2      1.0000 0.75000  0.75000  0.50000  Biso   1.000  Cu
  Cu3      1.0000 0.75000  0.25000  0.50000  Biso   1.000  Cu
  Cu4      1.0000 0.25000  0.75000  0.50000  Biso   1.000  Cu
  Cu5      1.0000 0.25000  0.25000  0.00000  Biso   1.000  Cu
  Cu6      1.0000 0.75000  0.75000  0.00000  Biso   1.000  Cu
  Cu7      1.0000 0.75000  0.25000  0.00000  Biso   1.000  Cu
  Cu8      1.0000 0.25000  0.75000  0.00000  Biso   1.000  Cu
  Cu9      1.0000 0.50000  0.26450  0.00000  Biso   1.000  Cu
  Cu10     1.0000 0.00000  0.76450  0.00000  Biso   1.000  Cu
  Cu11     1.0000 0.50000  0.73550  0.00000  Biso   1.000  Cu
  Cu12     1.0000 0.00000  0.23550  0.00000  Biso   1.000  Cu
  O1       1.0000 0.52570  0.25290  0.81210  Biso   1.000  O
  O2       1.0000 0.02570  0.75290  0.81210  Biso   1.000  O
  O3       1.0000 0.47430  0.25290  0.18790  Biso   1.000  O
  O4       1.0000 0.97430  0.75290  0.18790  Biso   1.000  O
  O5       1.0000 0.47430  0.74710  0.18790  Biso   1.000  O
  O6       1.0000 0.97430  0.24710  0.18790  Biso   1.000  O
  O7       1.0000 0.52570  0.74710  0.81210  Biso   1.000  O
  O8       1.0000 0.02570  0.24710  0.81210  Biso   1.000  O
  O9       1.0000 0.50210  0.12890  0.62020  Biso   1.000  O
  O10      1.0000 0.00210  0.62890  0.62020  Biso   1.000  O
  O11      1.0000 0.49790  0.12890  0.37980  Biso   1.000  O
  O12      1.0000 0.99790  0.62890  0.37980  Biso   1.000  O
  O13      1.0000 0.49790  0.87110  0.37980  Biso   1.000  O
  O14      1.0000 0.99790  0.37110  0.37980  Biso   1.000  O
  O15      1.0000 0.50210  0.87110  0.62020  Biso   1.000  O
  O16      1.0000 0.00210  0.37110  0.62020  Biso   1.000  O
  O17      1.0000 0.48620  0.33360  0.59440  Biso   1.000  O
  O18      1.0000 0.98620  0.83360  0.59440  Biso   1.000  O
  O19      1.0000 0.51380  0.33360  0.40560  Biso   1.000  O
  O20      1.0000 0.01380  0.83360  0.40560  Biso   1.000  O
  O21      1.0000 0.51380  0.66640  0.40560  Biso   1.000  O
  O22      1.0000 0.01380  0.16640  0.40560  Biso   1.000  O
  O23      1.0000 0.48620  0.66640  0.59440  Biso   1.000  O
  O24      1.0000 0.98620  0.16640  0.59440  Biso   1.000  O
  N1       1.0000 0.30332  0.33710  0.60000  Biso   1.000  N
  N2       1.0000 0.80332  0.83710  0.60000  Biso   1.000  N
  N3       1.0000 0.69668  0.33710  0.40000  Biso   1.000  N
  N4       1.0000 0.19668  0.83710  0.40000  Biso   1.000  N
  N5       1.0000 0.69668  0.66290  0.40000  Biso   1.000  N
  N6       1.0000 0.19668  0.16290  0.40000  Biso   1.000  N
  N7       1.0000 0.30332  0.66290  0.60000  Biso   1.000  N
  N8       1.0000 0.80332  0.16290  0.60000  Biso   1.000  N
  N9       1.0000 0.42660  0.50000  0.62390  Biso   1.000  N
  N10      1.0000 0.92660  0.00000  0.62390  Biso   1.000  N
  N11      1.0000 0.57340  0.50000  0.37610  Biso   1.000  N
  N12      1.0000 0.07340  0.00000  0.37610  Biso   1.000  N
  N13      1.0000 0.44712  0.35880  0.92700  Biso   1.000  N
  N14      1.0000 0.94712  0.85880  0.92700  Biso   1.000  N
  N15      1.0000 0.55288  0.35880  0.07300  Biso   1.000  N
  N16      1.0000 0.05288  0.85880  0.07300  Biso   1.000  N
  N17      1.0000 0.55288  0.64120  0.07300  Biso   1.000  N
  N18      1.0000 0.05288  0.14120  0.07300  Biso   1.000  N
  N19      1.0000 0.44712  0.64120  0.92700  Biso   1.000  N
  N20      1.0000 0.94712  0.14120  0.92700  Biso   1.000  N
  N21      1.0000 0.31292  0.35310  0.97250  Biso   1.000  N
  N22      1.0000 0.81292  0.85310  0.97250  Biso   1.000  N
  N23      1.0000 0.68708  0.35310  0.02750  Biso   1.000  N
  N24      1.0000 0.18708  0.85310  0.02750  Biso   1.000  N
  N25      1.0000 0.68708  0.64690  0.02750  Biso   1.000  N
  N26      1.0000 0.18708  0.14690  0.02750  Biso   1.000  N
  N27      1.0000 0.31292  0.64690  0.97250  Biso   1.000  N
  N28      1.0000 0.81292  0.14690  0.97250  Biso   1.000  N
  N29      1.0000 0.21800  0.50000  0.71230  Biso   1.000  N
  N30      1.0000 0.71800  0.00000  0.71230  Biso   1.000  N
  N31      1.0000 0.78200  0.50000  0.28770  Biso   1.000  N
  N32      1.0000 0.28200  0.00000  0.28770  Biso   1.000  N
  N33      1.0000 0.44524  0.17030  0.93520  Biso   1.000  N
  N34      1.0000 0.94524  0.67030  0.93520  Biso   1.000  N
  N35      1.0000 0.55476  0.17030  0.06480  Biso   1.000  N
  N36      1.0000 0.05476  0.67030  0.06480  Biso   1.000  N
  N37      1.0000 0.55476  0.82970  0.06480  Biso   1.000  N
  N38      1.0000 0.05476  0.32970  0.06480  Biso   1.000  N
  N39      1.0000 0.44524  0.82970  0.93520  Biso   1.000  N
  N40      1.0000 0.94524  0.32970  0.93520  Biso   1.000  N
  N41      1.0000 0.43160  0.00000  0.66750  Biso   1.000  N
  N42      1.0000 0.93160  0.50000  0.66750  Biso   1.000  N
  N43      1.0000 0.56840  0.00000  0.33250  Biso   1.000  N
  N44      1.0000 0.06840  0.50000  0.33250  Biso   1.000  N
  N45      1.0000 0.29866  0.13530  0.63150  Biso   1.000  N
  N46      1.0000 0.79866  0.63530  0.63150  Biso   1.000  N
  N47      1.0000 0.70134  0.13530  0.36850  Biso   1.000  N
  N48      1.0000 0.20134  0.63530  0.36850  Biso   1.000  N
  N49      1.0000 0.70134  0.86470  0.36850  Biso   1.000  N
  N50      1.0000 0.20134  0.36470  0.36850  Biso   1.000  N
  N51      1.0000 0.29866  0.86470  0.63150  Biso   1.000  N
  N52      1.0000 0.79866  0.36470  0.63150  Biso   1.000  N
  N53      1.0000 0.28895  0.14660  0.95260  Biso   1.000  N
  N54      1.0000 0.78895  0.64660  0.95260  Biso   1.000  N
  N55      1.0000 0.71105  0.14660  0.04740  Biso   1.000  N
  N56      1.0000 0.21105  0.64660  0.04740  Biso   1.000  N
  N57      1.0000 0.71105  0.85340  0.04740  Biso   1.000  N
  N58      1.0000 0.21105  0.35340  0.04740  Biso   1.000  N
  N59      1.0000 0.28895  0.85340  0.95260  Biso   1.000  N
  N60      1.0000 0.78895  0.35340  0.95260  Biso   1.000  N
  N61      1.0000 0.41220  0.00000  0.16020  Biso   1.000  N
  N62      1.0000 0.91220  0.50000  0.16020  Biso   1.000  N
  N63      1.0000 0.58780  0.00000  0.83980  Biso   1.000  N
  N64      1.0000 0.08780  0.50000  0.83980  Biso   1.000  N
  N65      1.0000 0.20624  0.26930  0.61670  Biso   1.000  N
  N66      1.0000 0.70624  0.76930  0.61670  Biso   1.000  N
  N67      1.0000 0.79376  0.26930  0.38330  Biso   1.000  N
  N68      1.0000 0.29376  0.76930  0.38330  Biso   1.000  N
  N69      1.0000 0.79376  0.73070  0.38330  Biso   1.000  N
  N70      1.0000 0.29376  0.23070  0.38330  Biso   1.000  N
  N71      1.0000 0.20624  0.73070  0.61670  Biso   1.000  N
  N72      1.0000 0.70624  0.23070  0.61670  Biso   1.000  N
  N73      1.0000 0.20614  0.26840  0.82110  Biso   1.000  N
  N74      1.0000 0.70614  0.76840  0.82110  Biso   1.000  N
  N75      1.0000 0.79386  0.26840  0.17890  Biso   1.000  N
  N76      1.0000 0.29386  0.76840  0.17890  Biso   1.000  N
  N77      1.0000 0.79386  0.73160  0.17890  Biso   1.000  N
  N78      1.0000 0.29386  0.23160  0.17890  Biso   1.000  N
  N79      1.0000 0.20614  0.73160  0.82110  Biso   1.000  N
  N80      1.0000 0.70614  0.23160  0.82110  Biso   1.000  N
  C1       1.0000 0.32190  0.39250  0.66840  Biso   1.000  C
  C2       1.0000 0.82190  0.89250  0.66840  Biso   1.000  C
  C3       1.0000 0.67810  0.39250  0.33160  Biso   1.000  C
  C4       1.0000 0.17810  0.89250  0.33160  Biso   1.000  C
  C5       1.0000 0.67810  0.60750  0.33160  Biso   1.000  C
  C6       1.0000 0.17810  0.10750  0.33160  Biso   1.000  C
  C7       1.0000 0.32190  0.60750  0.66840  Biso   1.000  C
  C8       1.0000 0.82190  0.10750  0.66840  Biso   1.000  C
  C9       1.0000 0.40100  0.50000  0.68420  Biso   1.000  C
  C10      1.0000 0.90100  0.00000  0.68420  Biso   1.000  C
  C11      1.0000 0.59900  0.50000  0.31580  Biso   1.000  C
  C12      1.0000 0.09900  0.00000  0.31580  Biso   1.000  C
  C13      1.0000 0.41368  0.40850  0.88370  Biso   1.000  C
  C14      1.0000 0.91368  0.90850  0.88370  Biso   1.000  C
  C15      1.0000 0.58632  0.40850  0.11630  Biso   1.000  C
  C16      1.0000 0.08632  0.90850  0.11630  Biso   1.000  C
  C17      1.0000 0.58632  0.59150  0.11630  Biso   1.000  C
  C18      1.0000 0.08632  0.09150  0.11630  Biso   1.000  C
  C19      1.0000 0.41368  0.59150  0.88370  Biso   1.000  C
  C20      1.0000 0.91368  0.09150  0.88370  Biso   1.000  C
  C21      1.0000 0.32631  0.40650  0.91730  Biso   1.000  C
  C22      1.0000 0.82631  0.90650  0.91730  Biso   1.000  C
  C23      1.0000 0.67369  0.40650  0.08270  Biso   1.000  C
  C24      1.0000 0.17369  0.90650  0.08270  Biso   1.000  C
  C25      1.0000 0.67369  0.59350  0.08270  Biso   1.000  C
  C26      1.0000 0.17369  0.09350  0.08270  Biso   1.000  C
  C27      1.0000 0.32631  0.59350  0.91730  Biso   1.000  C
  C28      1.0000 0.82631  0.09350  0.91730  Biso   1.000  C
  C29      1.0000 0.26370  0.50000  0.74270  Biso   1.000  C
  C30      1.0000 0.76370  0.00000  0.74270  Biso   1.000  C
  C31      1.0000 0.73630  0.50000  0.25730  Biso   1.000  C
  C32      1.0000 0.23630  0.00000  0.25730  Biso   1.000  C
  C33      1.0000 0.41555  0.11310  0.90700  Biso   1.000  C
  C34      1.0000 0.91555  0.61310  0.90700  Biso   1.000  C
  C35      1.0000 0.58445  0.11310  0.09300  Biso   1.000  C
  C36      1.0000 0.08445  0.61310  0.09300  Biso   1.000  C
  C37      1.0000 0.58445  0.88690  0.09300  Biso   1.000  C
  C38      1.0000 0.08445  0.38690  0.09300  Biso   1.000  C
  C39      1.0000 0.41555  0.88690  0.90700  Biso   1.000  C
  C40      1.0000 0.91555  0.38690  0.90700  Biso   1.000  C
  C41      1.0000 0.40720  0.00000  0.73350  Biso   1.000  C
  C42      1.0000 0.90720  0.50000  0.73350  Biso   1.000  C
  C43      1.0000 0.59280  0.00000  0.26650  Biso   1.000  C
  C44      1.0000 0.09280  0.50000  0.26650  Biso   1.000  C
  C45      1.0000 0.32018  0.08850  0.70970  Biso   1.000  C
  C46      1.0000 0.82018  0.58850  0.70970  Biso   1.000  C
  C47      1.0000 0.67982  0.08850  0.29030  Biso   1.000  C
  C48      1.0000 0.17982  0.58850  0.29030  Biso   1.000  C
  C49      1.0000 0.67982  0.91150  0.29030  Biso   1.000  C
  C50      1.0000 0.17982  0.41150  0.29030  Biso   1.000  C
  C51      1.0000 0.32018  0.91150  0.70970  Biso   1.000  C
  C52      1.0000 0.82018  0.41150  0.70970  Biso   1.000  C
  C53      1.0000 0.31251  0.09300  0.92080  Biso   1.000  C
  C54      1.0000 0.81251  0.59300  0.92080  Biso   1.000  C
  C55      1.0000 0.68749  0.09300  0.07920  Biso   1.000  C
  C56      1.0000 0.18749  0.59300  0.07920  Biso   1.000  C
  C57      1.0000 0.68749  0.90700  0.07920  Biso   1.000  C
  C58      1.0000 0.18749  0.40700  0.07920  Biso   1.000  C
  C59      1.0000 0.31251  0.90700  0.92080  Biso   1.000  C
  C60      1.0000 0.81251  0.40700  0.92080  Biso   1.000  C
  C61      1.0000 0.39450  0.00000  0.05730  Biso   1.000  C
  C62      1.0000 0.89450  0.50000  0.05730  Biso   1.000  C
  C63      1.0000 0.60550  0.00000  0.94270  Biso   1.000  C
  C64      1.0000 0.10550  0.50000  0.94270  Biso   1.000  C
  C65      1.0000 0.15450  0.28760  0.57930  Biso   1.000  C
  C66      1.0000 0.65450  0.78760  0.57930  Biso   1.000  C
  C67      1.0000 0.84550  0.28760  0.42070  Biso   1.000  C
  C68      1.0000 0.34550  0.78760  0.42070  Biso   1.000  C
  C69      1.0000 0.84550  0.71240  0.42070  Biso   1.000  C
  C70      1.0000 0.34550  0.21240  0.42070  Biso   1.000  C
  C71      1.0000 0.15450  0.71240  0.57930  Biso   1.000  C
  C72      1.0000 0.65450  0.21240  0.57930  Biso   1.000  C
  H1       1.0000 0.13660  0.29340  0.49600  Biso   1.000  H
  H2       1.0000 0.63660  0.79340  0.49600  Biso   1.000  H
  H3       1.0000 0.86340  0.29340  0.50400  Biso   1.000  H
  H4       1.0000 0.36340  0.79340  0.50400  Biso   1.000  H
  H5       1.0000 0.86340  0.70660  0.50400  Biso   1.000  H
  H6       1.0000 0.36340  0.20660  0.50400  Biso   1.000  H
  H7       1.0000 0.13660  0.70660  0.49600  Biso   1.000  H
  H8       1.0000 0.63660  0.20660  0.49600  Biso   1.000  H
  C73      1.0000 0.12690  0.29820  0.66150  Biso   1.000  C
  C74      1.0000 0.62690  0.79820  0.66150  Biso   1.000  C
  C75      1.0000 0.87310  0.29820  0.33850  Biso   1.000  C
  C76      1.0000 0.37310  0.79820  0.33850  Biso   1.000  C
  C77      1.0000 0.87310  0.70180  0.33850  Biso   1.000  C
  C78      1.0000 0.37310  0.20180  0.33850  Biso   1.000  C
  C79      1.0000 0.12690  0.70180  0.66150  Biso   1.000  C
  C80      1.0000 0.62690  0.20180  0.66150  Biso   1.000  C
  H9       1.0000 0.09100  0.31270  0.63550  Biso   1.000  H
  H10      1.0000 0.59100  0.81270  0.63550  Biso   1.000  H
  H11      1.0000 0.90900  0.31270  0.36450  Biso   1.000  H
  H12      1.0000 0.40900  0.81270  0.36450  Biso   1.000  H
  H13      1.0000 0.90900  0.68730  0.36450  Biso   1.000  H
  H14      1.0000 0.40900  0.18730  0.36450  Biso   1.000  H
  H15      1.0000 0.09100  0.68730  0.63550  Biso   1.000  H
  H16      1.0000 0.59100  0.18730  0.63550  Biso   1.000  H
  C81      1.0000 0.15430  0.28680  0.78290  Biso   1.000  C
  C82      1.0000 0.65430  0.78680  0.78290  Biso   1.000  C
  C83      1.0000 0.84570  0.28680  0.21710  Biso   1.000  C
  C84      1.0000 0.34570  0.78680  0.21710  Biso   1.000  C
  C85      1.0000 0.84570  0.71320  0.21710  Biso   1.000  C
  C86      1.0000 0.34570  0.21320  0.21710  Biso   1.000  C
  C87      1.0000 0.15430  0.71320  0.78290  Biso   1.000  C
  C88      1.0000 0.65430  0.21320  0.78290  Biso   1.000  C
  H17      1.0000 0.13630  0.29200  0.84000  Biso   1.000  H
  H18      1.0000 0.63630  0.79200  0.84000  Biso   1.000  H
  H19      1.0000 0.86370  0.29200  0.16000  Biso   1.000  H
  H20      1.0000 0.36370  0.79200  0.16000  Biso   1.000  H
  H21      1.0000 0.86370  0.70800  0.16000  Biso   1.000  H
  H22      1.0000 0.36370  0.20800  0.16000  Biso   1.000  H
  H23      1.0000 0.13630  0.70800  0.84000  Biso   1.000  H
  H24      1.0000 0.63630  0.20800  0.84000  Biso   1.000  H
  C89      1.0000 0.23009  0.26120  0.73570  Biso   1.000  C
  C90      1.0000 0.73009  0.76120  0.73570  Biso   1.000  C
  C91      1.0000 0.76991  0.26120  0.26430  Biso   1.000  C
  C92      1.0000 0.26991  0.76120  0.26430  Biso   1.000  C
  C93      1.0000 0.76991  0.73880  0.26430  Biso   1.000  C
  C94      1.0000 0.26991  0.23880  0.26430  Biso   1.000  C
  C95      1.0000 0.23009  0.73880  0.73570  Biso   1.000  C
  C96      1.0000 0.73009  0.23880  0.73570  Biso   1.000  C
  H25      1.0000 0.26640  0.24950  0.76190  Biso   1.000  H
  H26      1.0000 0.76640  0.74950  0.76190  Biso   1.000  H
  H27      1.0000 0.73360  0.24950  0.23810  Biso   1.000  H
  H28      1.0000 0.23360  0.74950  0.23810  Biso   1.000  H
  H29      1.0000 0.73360  0.75050  0.23810  Biso   1.000  H
  H30      1.0000 0.23360  0.25050  0.23810  Biso   1.000  H
  H31      1.0000 0.26640  0.75050  0.76190  Biso   1.000  H
  H32      1.0000 0.76640  0.25050  0.76190  Biso   1.000  H
  O25      1.0000 0.08730  0.90800  0.64200  Biso   1.000  O
  O26      1.0000 0.58730  0.40800  0.64200  Biso   1.000  O
  O27      1.0000 0.91270  0.90800  0.35800  Biso   1.000  O
  O28      1.0000 0.41270  0.40800  0.35800  Biso   1.000  O
  O29      1.0000 0.91270  0.09200  0.35800  Biso   1.000  O
  O30      1.0000 0.41270  0.59200  0.35800  Biso   1.000  O
  O31      1.0000 0.08730  0.09200  0.64200  Biso   1.000  O
  O32      1.0000 0.58730  0.59200  0.64200  Biso   1.000  O
  C97      1.0000 0.16030  0.01300  0.71700  Biso   1.000  C
  C98      1.0000 0.66030  0.51300  0.71700  Biso   1.000  C
  C99      1.0000 0.83970  0.01300  0.28300  Biso   1.000  C
  C100     1.0000 0.33970  0.51300  0.28300  Biso   1.000  C
  C101     1.0000 0.83970  0.98700  0.28300  Biso   1.000  C
  C102     1.0000 0.33970  0.48700  0.28300  Biso   1.000  C
  C103     1.0000 0.16030  0.98700  0.71700  Biso   1.000  C
  C104     1.0000 0.66030  0.48700  0.71700  Biso   1.000  C
  C105     1.0000 0.09960  0.00000  0.67490  Biso   1.000  C
  C106     1.0000 0.59960  0.50000  0.67490  Biso   1.000  C
  C107     1.0000 0.90040  0.00000  0.32510  Biso   1.000  C
  C108     1.0000 0.40040  0.50000  0.32510  Biso   1.000  C
  C109     1.0000 0.07790  0.03100  0.77800  Biso   1.000  C
  C110     1.0000 0.57790  0.53100  0.77800  Biso   1.000  C
  C111     1.0000 0.92210  0.03100  0.22200  Biso   1.000  C
  C112     1.0000 0.42210  0.53100  0.22200  Biso   1.000  C
  C113     1.0000 0.92210  0.96900  0.22200  Biso   1.000  C
  C114     1.0000 0.42210  0.46900  0.22200  Biso   1.000  C
  C115     1.0000 0.07790  0.96900  0.77800  Biso   1.000  C
  C116     1.0000 0.57790  0.46900  0.77800  Biso   1.000  C
