data_image0
_cell_length_a       26.7378
_cell_length_b       14.7776
_cell_length_c       11.516
_cell_angle_alpha    90
_cell_angle_beta     108.695
_cell_angle_gamma    90

_symmetry_space_group_name_H-M    "P 1"
_symmetry_int_tables_number       1

loop_
  _symmetry_equiv_pos_as_xyz
  'x, y, z'

loop_
  _atom_site_label
  _atom_site_occupancy
  _atom_site_fract_x
  _atom_site_fract_y
  _atom_site_fract_z
  _atom_site_thermal_displace_type
  _atom_site_B_iso_or_equiv
  _atom_site_type_symbol
  W1       1.0000 0.34949  0.00000  0.80152  Biso   1.000  W
  W2       1.0000 0.84949  0.50000  0.80152  Biso   1.000  W
  W3       1.0000 0.65051  0.00000  0.19848  Biso   1.000  W
  W4       1.0000 0.15051  0.50000  0.19848  Biso   1.000  W
  W5       1.0000 0.36158  0.50000  0.85982  Biso   1.000  W
  W6       1.0000 0.86158  0.00000  0.85982  Biso   1.000  W
  W7       1.0000 0.63842  0.50000  0.14018  Biso   1.000  W
  W8       1.0000 0.13842  0.00000  0.14018  Biso   1.000  W
  Cu1      1.0000 0.25000  0.75000  0.50000  Biso   1.000  Cu
  Cu2      1.0000 0.75000  0.25000  0.50000  Biso   1.000  Cu
  Cu3      1.0000 0.75000  0.75000  0.50000  Biso   1.000  Cu
  Cu4      1.0000 0.25000  0.25000  0.50000  Biso   1.000  Cu
  Cu5      1.0000 0.25000  0.75000  0.00000  Biso   1.000  Cu
  Cu6      1.0000 0.75000  0.25000  0.00000  Biso   1.000  Cu
  Cu7      1.0000 0.75000  0.75000  0.00000  Biso   1.000  Cu
  Cu8      1.0000 0.25000  0.25000  0.00000  Biso   1.000  Cu
  Cu9      1.0000 0.50000  0.76424  0.00000  Biso   1.000  Cu
  Cu10     1.0000 0.00000  0.26424  0.00000  Biso   1.000  Cu
  Cu11     1.0000 0.50000  0.23576  0.00000  Biso   1.000  Cu
  Cu12     1.0000 0.00000  0.73576  0.00000  Biso   1.000  Cu
  O1       1.0000 0.52530  0.75680  0.81120  Biso   1.000  O
  O2       1.0000 0.02530  0.25680  0.81120  Biso   1.000  O
  O3       1.0000 0.47470  0.75680  0.18880  Biso   1.000  O
  O4       1.0000 0.97470  0.25680  0.18880  Biso   1.000  O
  O5       1.0000 0.47470  0.24320  0.18880  Biso   1.000  O
  O6       1.0000 0.97470  0.74320  0.18880  Biso   1.000  O
  O7       1.0000 0.52530  0.24320  0.81120  Biso   1.000  O
  O8       1.0000 0.02530  0.74320  0.81120  Biso   1.000  O
  N1       1.0000 0.30314  0.83733  0.60020  Biso   1.000  N
  N2       1.0000 0.80314  0.33733  0.60020  Biso   1.000  N
  N3       1.0000 0.69686  0.83733  0.39980  Biso   1.000  N
  N4       1.0000 0.19686  0.33733  0.39980  Biso   1.000  N
  N5       1.0000 0.69686  0.16267  0.39980  Biso   1.000  N
  N6       1.0000 0.19686  0.66267  0.39980  Biso   1.000  N
  N7       1.0000 0.30314  0.16267  0.60020  Biso   1.000  N
  N8       1.0000 0.80314  0.66267  0.60020  Biso   1.000  N
  N9       1.0000 0.42750  0.00000  0.63070  Biso   1.000  N
  N10      1.0000 0.92750  0.50000  0.63070  Biso   1.000  N
  N11      1.0000 0.57250  0.00000  0.36930  Biso   1.000  N
  N12      1.0000 0.07250  0.50000  0.36930  Biso   1.000  N
  N13      1.0000 0.44651  0.85830  0.92900  Biso   1.000  N
  N14      1.0000 0.94651  0.35830  0.92900  Biso   1.000  N
  N15      1.0000 0.55349  0.85830  0.07100  Biso   1.000  N
  N16      1.0000 0.05349  0.35830  0.07100  Biso   1.000  N
  N17      1.0000 0.55349  0.14170  0.07100  Biso   1.000  N
  N18      1.0000 0.05349  0.64170  0.07100  Biso   1.000  N
  N19      1.0000 0.44651  0.14170  0.92900  Biso   1.000  N
  N20      1.0000 0.94651  0.64170  0.92900  Biso   1.000  N
  N21      1.0000 0.31334  0.85280  0.97470  Biso   1.000  N
  N22      1.0000 0.81334  0.35280  0.97470  Biso   1.000  N
  N23      1.0000 0.68666  0.85280  0.02530  Biso   1.000  N
  N24      1.0000 0.18666  0.35280  0.02530  Biso   1.000  N
  N25      1.0000 0.68666  0.14720  0.02530  Biso   1.000  N
  N26      1.0000 0.18666  0.64720  0.02530  Biso   1.000  N
  N27      1.0000 0.31334  0.14720  0.97470  Biso   1.000  N
  N28      1.0000 0.81334  0.64720  0.97470  Biso   1.000  N
  N29      1.0000 0.21882  0.00000  0.71290  Biso   1.000  N
  N30      1.0000 0.71882  0.50000  0.71290  Biso   1.000  N
  N31      1.0000 0.78118  0.00000  0.28710  Biso   1.000  N
  N32      1.0000 0.28118  0.50000  0.28710  Biso   1.000  N
  N33      1.0000 0.44564  0.66960  0.93850  Biso   1.000  N
  N34      1.0000 0.94564  0.16960  0.93850  Biso   1.000  N
  N35      1.0000 0.55436  0.66960  0.06150  Biso   1.000  N
  N36      1.0000 0.05436  0.16960  0.06150  Biso   1.000  N
  N37      1.0000 0.55436  0.33040  0.06150  Biso   1.000  N
  N38      1.0000 0.05436  0.83040  0.06150  Biso   1.000  N
  N39      1.0000 0.44564  0.33040  0.93850  Biso   1.000  N
  N40      1.0000 0.94564  0.83040  0.93850  Biso   1.000  N
  N41      1.0000 0.43030  0.50000  0.66760  Biso   1.000  N
  N42      1.0000 0.93030  0.00000  0.66760  Biso   1.000  N
  N43      1.0000 0.56970  0.50000  0.33240  Biso   1.000  N
  N44      1.0000 0.06970  0.00000  0.33240  Biso   1.000  N
  N45      1.0000 0.29881  0.63620  0.63230  Biso   1.000  N
  N46      1.0000 0.79881  0.13620  0.63230  Biso   1.000  N
  N47      1.0000 0.70119  0.63620  0.36770  Biso   1.000  N
  N48      1.0000 0.20119  0.13620  0.36770  Biso   1.000  N
  N49      1.0000 0.70119  0.36380  0.36770  Biso   1.000  N
  N50      1.0000 0.20119  0.86380  0.36770  Biso   1.000  N
  N51      1.0000 0.29881  0.36380  0.63230  Biso   1.000  N
  N52      1.0000 0.79881  0.86380  0.63230  Biso   1.000  N
  N53      1.0000 0.28885  0.64683  0.95250  Biso   1.000  N
  N54      1.0000 0.78885  0.14683  0.95250  Biso   1.000  N
  N55      1.0000 0.71115  0.64683  0.04750  Biso   1.000  N
  N56      1.0000 0.21115  0.14683  0.04750  Biso   1.000  N
  N57      1.0000 0.71115  0.35317  0.04750  Biso   1.000  N
  N58      1.0000 0.21115  0.85317  0.04750  Biso   1.000  N
  N59      1.0000 0.28885  0.35317  0.95250  Biso   1.000  N
  N60      1.0000 0.78885  0.85317  0.95250  Biso   1.000  N
  N61      1.0000 0.41110  0.50000  0.16270  Biso   1.000  N
  N62      1.0000 0.91110  0.00000  0.16270  Biso   1.000  N
  N63      1.0000 0.58890  0.50000  0.83730  Biso   1.000  N
  N64      1.0000 0.08890  0.00000  0.83730  Biso   1.000  N
  N65      1.0000 0.20623  0.77010  0.61540  Biso   1.000  N
  N66      1.0000 0.70623  0.27010  0.61540  Biso   1.000  N
  N67      1.0000 0.79377  0.77010  0.38460  Biso   1.000  N
  N68      1.0000 0.29377  0.27010  0.38460  Biso   1.000  N
  N69      1.0000 0.79377  0.22990  0.38460  Biso   1.000  N
  N70      1.0000 0.29377  0.72990  0.38460  Biso   1.000  N
  N71      1.0000 0.20623  0.22990  0.61540  Biso   1.000  N
  N72      1.0000 0.70623  0.72990  0.61540  Biso   1.000  N
  N73      1.0000 0.20610  0.76869  0.82000  Biso   1.000  N
  N74      1.0000 0.70610  0.26869  0.82000  Biso   1.000  N
  N75      1.0000 0.79390  0.76869  0.18000  Biso   1.000  N
  N76      1.0000 0.29390  0.26869  0.18000  Biso   1.000  N
  N77      1.0000 0.79390  0.23131  0.18000  Biso   1.000  N
  N78      1.0000 0.29390  0.73131  0.18000  Biso   1.000  N
  N79      1.0000 0.20610  0.23131  0.82000  Biso   1.000  N
  N80      1.0000 0.70610  0.73131  0.82000  Biso   1.000  N
  C1       1.0000 0.32152  0.89210  0.66980  Biso   1.000  C
  C2       1.0000 0.82152  0.39210  0.66980  Biso   1.000  C
  C3       1.0000 0.67848  0.89210  0.33020  Biso   1.000  C
  C4       1.0000 0.17848  0.39210  0.33020  Biso   1.000  C
  C5       1.0000 0.67848  0.10790  0.33020  Biso   1.000  C
  C6       1.0000 0.17848  0.60790  0.33020  Biso   1.000  C
  C7       1.0000 0.32152  0.10790  0.66980  Biso   1.000  C
  C8       1.0000 0.82152  0.60790  0.66980  Biso   1.000  C
  C9       1.0000 0.40020  0.00000  0.68860  Biso   1.000  C
  C10      1.0000 0.90020  0.50000  0.68860  Biso   1.000  C
  C11      1.0000 0.59980  0.00000  0.31140  Biso   1.000  C
  C12      1.0000 0.09980  0.50000  0.31140  Biso   1.000  C
  C13      1.0000 0.41354  0.90850  0.88580  Biso   1.000  C
  C14      1.0000 0.91354  0.40850  0.88580  Biso   1.000  C
  C15      1.0000 0.58646  0.90850  0.11420  Biso   1.000  C
  C16      1.0000 0.08646  0.40850  0.11420  Biso   1.000  C
  C17      1.0000 0.58646  0.09150  0.11420  Biso   1.000  C
  C18      1.0000 0.08646  0.59150  0.11420  Biso   1.000  C
  C19      1.0000 0.41354  0.09150  0.88580  Biso   1.000  C
  C20      1.0000 0.91354  0.59150  0.88580  Biso   1.000  C
  C21      1.0000 0.32645  0.90620  0.91930  Biso   1.000  C
  C22      1.0000 0.82645  0.40620  0.91930  Biso   1.000  C
  C23      1.0000 0.67355  0.90620  0.08070  Biso   1.000  C
  C24      1.0000 0.17355  0.40620  0.08070  Biso   1.000  C
  C25      1.0000 0.67355  0.09380  0.08070  Biso   1.000  C
  C26      1.0000 0.17355  0.59380  0.08070  Biso   1.000  C
  C27      1.0000 0.32645  0.09380  0.91930  Biso   1.000  C
  C28      1.0000 0.82645  0.59380  0.91930  Biso   1.000  C
  C29      1.0000 0.26400  0.00000  0.74400  Biso   1.000  C
  C30      1.0000 0.76400  0.50000  0.74400  Biso   1.000  C
  C31      1.0000 0.73600  0.00000  0.25600  Biso   1.000  C
  C32      1.0000 0.23600  0.50000  0.25600  Biso   1.000  C
  C33      1.0000 0.41595  0.61250  0.91040  Biso   1.000  C
  C34      1.0000 0.91595  0.11250  0.91040  Biso   1.000  C
  C35      1.0000 0.58405  0.61250  0.08960  Biso   1.000  C
  C36      1.0000 0.08405  0.11250  0.08960  Biso   1.000  C
  C37      1.0000 0.58405  0.38750  0.08960  Biso   1.000  C
  C38      1.0000 0.08405  0.88750  0.08960  Biso   1.000  C
  C39      1.0000 0.41595  0.38750  0.91040  Biso   1.000  C
  C40      1.0000 0.91595  0.88750  0.91040  Biso   1.000  C
  C41      1.0000 0.40720  0.50000  0.73530  Biso   1.000  C
  C42      1.0000 0.90720  0.00000  0.73530  Biso   1.000  C
  C43      1.0000 0.59280  0.50000  0.26470  Biso   1.000  C
  C44      1.0000 0.09280  0.00000  0.26470  Biso   1.000  C
  C45      1.0000 0.32049  0.58880  0.71120  Biso   1.000  C
  C46      1.0000 0.82049  0.08880  0.71120  Biso   1.000  C
  C47      1.0000 0.67951  0.58880  0.28880  Biso   1.000  C
  C48      1.0000 0.17951  0.08880  0.28880  Biso   1.000  C
  C49      1.0000 0.67951  0.41120  0.28880  Biso   1.000  C
  C50      1.0000 0.17951  0.91120  0.28880  Biso   1.000  C
  C51      1.0000 0.32049  0.41120  0.71120  Biso   1.000  C
  C52      1.0000 0.82049  0.91120  0.71120  Biso   1.000  C
  C53      1.0000 0.31295  0.59340  0.92200  Biso   1.000  C
  C54      1.0000 0.81295  0.09340  0.92200  Biso   1.000  C
  C55      1.0000 0.68705  0.59340  0.07800  Biso   1.000  C
  C56      1.0000 0.18705  0.09340  0.07800  Biso   1.000  C
  C57      1.0000 0.68705  0.40660  0.07800  Biso   1.000  C
  C58      1.0000 0.18705  0.90660  0.07800  Biso   1.000  C
  C59      1.0000 0.31295  0.40660  0.92200  Biso   1.000  C
  C60      1.0000 0.81295  0.90660  0.92200  Biso   1.000  C
  C61      1.0000 0.39430  0.50000  0.05790  Biso   1.000  C
  C62      1.0000 0.89430  0.00000  0.05790  Biso   1.000  C
  C63      1.0000 0.60570  0.50000  0.94210  Biso   1.000  C
  C64      1.0000 0.10570  0.00000  0.94210  Biso   1.000  C
  C65      1.0000 0.15494  0.78810  0.57740  Biso   1.000  C
  C66      1.0000 0.65494  0.28810  0.57740  Biso   1.000  C
  C67      1.0000 0.84506  0.78810  0.42260  Biso   1.000  C
  C68      1.0000 0.34506  0.28810  0.42260  Biso   1.000  C
  C69      1.0000 0.84506  0.21190  0.42260  Biso   1.000  C
  C70      1.0000 0.34506  0.71190  0.42260  Biso   1.000  C
  C71      1.0000 0.15494  0.21190  0.57740  Biso   1.000  C
  C72      1.0000 0.65494  0.71190  0.57740  Biso   1.000  C
  H1       1.0000 0.13730  0.79470  0.49400  Biso   1.000  H
  H2       1.0000 0.63730  0.29470  0.49400  Biso   1.000  H
  H3       1.0000 0.86270  0.79470  0.50600  Biso   1.000  H
  H4       1.0000 0.36270  0.29470  0.50600  Biso   1.000  H
  H5       1.0000 0.86270  0.20530  0.50600  Biso   1.000  H
  H6       1.0000 0.36270  0.70530  0.50600  Biso   1.000  H
  H7       1.0000 0.13730  0.20530  0.49400  Biso   1.000  H
  H8       1.0000 0.63730  0.70530  0.49400  Biso   1.000  H
  C73      1.0000 0.12726  0.79700  0.65970  Biso   1.000  C
  C74      1.0000 0.62726  0.29700  0.65970  Biso   1.000  C
  C75      1.0000 0.87274  0.79700  0.34030  Biso   1.000  C
  C76      1.0000 0.37274  0.29700  0.34030  Biso   1.000  C
  C77      1.0000 0.87274  0.20300  0.34030  Biso   1.000  C
  C78      1.0000 0.37274  0.70300  0.34030  Biso   1.000  C
  C79      1.0000 0.12726  0.20300  0.65970  Biso   1.000  C
  C80      1.0000 0.62726  0.70300  0.65970  Biso   1.000  C
  H9       1.0000 0.09130  0.80990  0.63310  Biso   1.000  H
  H10      1.0000 0.59130  0.30990  0.63310  Biso   1.000  H
  H11      1.0000 0.90870  0.80990  0.36690  Biso   1.000  H
  H12      1.0000 0.40870  0.30990  0.36690  Biso   1.000  H
  H13      1.0000 0.90870  0.19010  0.36690  Biso   1.000  H
  H14      1.0000 0.40870  0.69010  0.36690  Biso   1.000  H
  H15      1.0000 0.09130  0.19010  0.63310  Biso   1.000  H
  H16      1.0000 0.59130  0.69010  0.63310  Biso   1.000  H
  C81      1.0000 0.15463  0.78600  0.78200  Biso   1.000  C
  C82      1.0000 0.65463  0.28600  0.78200  Biso   1.000  C
  C83      1.0000 0.84537  0.78600  0.21800  Biso   1.000  C
  C84      1.0000 0.34537  0.28600  0.21800  Biso   1.000  C
  C85      1.0000 0.84537  0.21400  0.21800  Biso   1.000  C
  C86      1.0000 0.34537  0.71400  0.21800  Biso   1.000  C
  C87      1.0000 0.15463  0.21400  0.78200  Biso   1.000  C
  C88      1.0000 0.65463  0.71400  0.78200  Biso   1.000  C
  H17      1.0000 0.13690  0.79080  0.83910  Biso   1.000  H
  H18      1.0000 0.63690  0.29080  0.83910  Biso   1.000  H
  H19      1.0000 0.86310  0.79080  0.16090  Biso   1.000  H
  H20      1.0000 0.36310  0.29080  0.16090  Biso   1.000  H
  H21      1.0000 0.86310  0.20920  0.16090  Biso   1.000  H
  H22      1.0000 0.36310  0.70920  0.16090  Biso   1.000  H
  H23      1.0000 0.13690  0.20920  0.83910  Biso   1.000  H
  H24      1.0000 0.63690  0.70920  0.83910  Biso   1.000  H
  C89      1.0000 0.22982  0.76230  0.73570  Biso   1.000  C
  C90      1.0000 0.72982  0.26230  0.73570  Biso   1.000  C
  C91      1.0000 0.77018  0.76230  0.26430  Biso   1.000  C
  C92      1.0000 0.27018  0.26230  0.26430  Biso   1.000  C
  C93      1.0000 0.77018  0.23770  0.26430  Biso   1.000  C
  C94      1.0000 0.27018  0.73770  0.26430  Biso   1.000  C
  C95      1.0000 0.22982  0.23770  0.73570  Biso   1.000  C
  C96      1.0000 0.72982  0.73770  0.73570  Biso   1.000  C
  H25      1.0000 0.26600  0.75140  0.76270  Biso   1.000  H
  H26      1.0000 0.76600  0.25140  0.76270  Biso   1.000  H
  H27      1.0000 0.73400  0.75140  0.23730  Biso   1.000  H
  H28      1.0000 0.23400  0.25140  0.23730  Biso   1.000  H
  H29      1.0000 0.73400  0.24860  0.23730  Biso   1.000  H
  H30      1.0000 0.23400  0.74860  0.23730  Biso   1.000  H
  H31      1.0000 0.26600  0.24860  0.76270  Biso   1.000  H
  H32      1.0000 0.76600  0.74860  0.76270  Biso   1.000  H
  O9       1.0000 0.50010  0.63100  0.62430  Biso   1.000  O
  O10      1.0000 0.00010  0.13100  0.62430  Biso   1.000  O
  O11      1.0000 0.49990  0.63100  0.37570  Biso   1.000  O
  O12      1.0000 0.99990  0.13100  0.37570  Biso   1.000  O
  O13      1.0000 0.49990  0.36900  0.37570  Biso   1.000  O
  O14      1.0000 0.99990  0.86900  0.37570  Biso   1.000  O
  O15      1.0000 0.50010  0.36900  0.62430  Biso   1.000  O
  O16      1.0000 0.00010  0.86900  0.62430  Biso   1.000  O
  O17      1.0000 0.47320  0.81850  0.57820  Biso   1.000  O
  O18      1.0000 0.97320  0.31850  0.57820  Biso   1.000  O
  O19      1.0000 0.52680  0.81850  0.42180  Biso   1.000  O
  O20      1.0000 0.02680  0.31850  0.42180  Biso   1.000  O
  O21      1.0000 0.52680  0.18150  0.42180  Biso   1.000  O
  O22      1.0000 0.02680  0.68150  0.42180  Biso   1.000  O
  O23      1.0000 0.47320  0.18150  0.57820  Biso   1.000  O
  O24      1.0000 0.97320  0.68150  0.57820  Biso   1.000  O
  O25      1.0000 0.02790  0.58680  0.67900  Biso   1.000  O
  O26      1.0000 0.52790  0.08680  0.67900  Biso   1.000  O
  O27      1.0000 0.97210  0.58680  0.32100  Biso   1.000  O
  O28      1.0000 0.47210  0.08680  0.32100  Biso   1.000  O
  O29      1.0000 0.97210  0.41320  0.32100  Biso   1.000  O
  O30      1.0000 0.47210  0.91320  0.32100  Biso   1.000  O
  O31      1.0000 0.02790  0.41320  0.67900  Biso   1.000  O
  O32      1.0000 0.52790  0.91320  0.67900  Biso   1.000  O
  C97      1.0000 0.06120  0.52320  0.75630  Biso   1.000  C
  C98      1.0000 0.56120  0.02320  0.75630  Biso   1.000  C
  C99      1.0000 0.93880  0.52320  0.24370  Biso   1.000  C
  C100     1.0000 0.43880  0.02320  0.24370  Biso   1.000  C
  C101     1.0000 0.93880  0.47680  0.24370  Biso   1.000  C
  C102     1.0000 0.43880  0.97680  0.24370  Biso   1.000  C
  C103     1.0000 0.06120  0.47680  0.75630  Biso   1.000  C
  C104     1.0000 0.56120  0.97680  0.75630  Biso   1.000  C
  C105     1.0000 0.11710  0.54160  0.76180  Biso   1.000  C
  C106     1.0000 0.61710  0.04160  0.76180  Biso   1.000  C
  C107     1.0000 0.88290  0.54160  0.23820  Biso   1.000  C
  C108     1.0000 0.38290  0.04160  0.23820  Biso   1.000  C
  C109     1.0000 0.88290  0.45840  0.23820  Biso   1.000  C
  C110     1.0000 0.38290  0.95840  0.23820  Biso   1.000  C
  C111     1.0000 0.11710  0.45840  0.76180  Biso   1.000  C
  C112     1.0000 0.61710  0.95840  0.76180  Biso   1.000  C
  C113     1.0000 0.13740  0.47080  0.69480  Biso   1.000  C
  C114     1.0000 0.63740  0.97080  0.69480  Biso   1.000  C
  C115     1.0000 0.86260  0.47080  0.30520  Biso   1.000  C
  C116     1.0000 0.36260  0.97080  0.30520  Biso   1.000  C
  C117     1.0000 0.86260  0.52920  0.30520  Biso   1.000  C
  C118     1.0000 0.36260  0.02920  0.30520  Biso   1.000  C
  C119     1.0000 0.13740  0.52920  0.69480  Biso   1.000  C
  C120     1.0000 0.63740  0.02920  0.69480  Biso   1.000  C
  C121     1.0000 0.18300  0.51030  0.66160  Biso   1.000  C
  C122     1.0000 0.68300  0.01030  0.66160  Biso   1.000  C
  C123     1.0000 0.81700  0.51030  0.33840  Biso   1.000  C
  C124     1.0000 0.31700  0.01030  0.33840  Biso   1.000  C
  C125     1.0000 0.81700  0.48970  0.33840  Biso   1.000  C
  C126     1.0000 0.31700  0.98970  0.33840  Biso   1.000  C
  C127     1.0000 0.18300  0.48970  0.66160  Biso   1.000  C
  C128     1.0000 0.68300  0.98970  0.66160  Biso   1.000  C
