data_image0
_cell_length_a       9.962
_cell_length_b       17.231
_cell_length_c       10.455
_cell_angle_alpha    90
_cell_angle_beta     114.469
_cell_angle_gamma    90

_symmetry_space_group_name_H-M    "P 1"
_symmetry_int_tables_number       1

loop_
  _symmetry_equiv_pos_as_xyz
  'x, y, z'

loop_
  _atom_site_label
  _atom_site_occupancy
  _atom_site_fract_x
  _atom_site_fract_y
  _atom_site_fract_z
  _atom_site_thermal_displace_type
  _atom_site_B_iso_or_equiv
  _atom_site_type_symbol
  Cu1      1.0000 0.99054  0.37013  0.69000  Biso   1.000  Cu
  Cu2      1.0000 0.49054  0.62987  0.19000  Biso   1.000  Cu
  Cu3      1.0000 0.99307  0.16988  0.76164  Biso   1.000  Cu
  Cu4      1.0000 0.49307  0.83012  0.26164  Biso   1.000  Cu
  N1       1.0000 0.08860  0.45642  0.64830  Biso   1.000  N
  N2       1.0000 0.58860  0.54358  0.14830  Biso   1.000  N
  N3       1.0000 0.85420  0.08650  0.72780  Biso   1.000  N
  N4       1.0000 0.35420  0.91350  0.22780  Biso   1.000  N
  O1       1.0000 0.92530  0.32797  0.50550  Biso   1.000  O
  O2       1.0000 0.42530  0.67203  0.00550  Biso   1.000  O
  O3       1.0000 0.09850  0.40822  0.88800  Biso   1.000  O
  O4       1.0000 0.59850  0.59178  0.38800  Biso   1.000  O
  O5       1.0000 0.86310  0.29987  0.73680  Biso   1.000  O
  O6       1.0000 0.36310  0.70013  0.23680  Biso   1.000  O
  O7       1.0000 0.74950  0.41293  0.70000  Biso   1.000  O
  O8       1.0000 0.24950  0.58707  0.20000  Biso   1.000  O
  O9       1.0000 0.23300  0.12453  0.74850  Biso   1.000  O
  O10      1.0000 0.73300  0.87547  0.24850  Biso   1.000  O
  O11      1.0000 0.15150  0.23965  0.77130  Biso   1.000  O
  O12      1.0000 0.65150  0.76035  0.27130  Biso   1.000  O
  O13      1.0000 0.89990  0.17739  0.54950  Biso   1.000  O
  O14      1.0000 0.39990  0.82261  0.04950  Biso   1.000  O
  O15      1.0000 0.05360  0.16821  0.95940  Biso   1.000  O
  O16      1.0000 0.55360  0.83179  0.45940  Biso   1.000  O
  O17      1.0000 0.15740  0.19306  0.22930  Biso   1.000  O
  O18      1.0000 0.65740  0.80694  0.72930  Biso   1.000  O
  O19      1.0000 0.79460  0.25830  0.26670  Biso   1.000  O
  O20      1.0000 0.29460  0.74170  0.76670  Biso   1.000  O
  C1       1.0000 0.75300  0.34280  0.72410  Biso   1.000  C
  C2       1.0000 0.25300  0.65720  0.22410  Biso   1.000  C
  C3       1.0000 0.62400  0.30420  0.73610  Biso   1.000  C
  C4       1.0000 0.12400  0.69580  0.23610  Biso   1.000  C
  C5       1.0000 0.62770  0.22700  0.76990  Biso   1.000  C
  C6       1.0000 0.12770  0.77300  0.26990  Biso   1.000  C
  H1       1.0000 0.71290  0.19820  0.78890  Biso   1.000  H
  H2       1.0000 0.21290  0.80180  0.28890  Biso   1.000  H
  C7       1.0000 0.50480  0.19120  0.77590  Biso   1.000  C
  C8       1.0000 0.00480  0.80880  0.27590  Biso   1.000  C
  H3       1.0000 0.50750  0.13860  0.79660  Biso   1.000  H
  H4       1.0000 0.00750  0.86140  0.29660  Biso   1.000  H
  C9       1.0000 0.49700  0.34630  0.70930  Biso   1.000  C
  C10      1.0000 0.99700  0.65370  0.20930  Biso   1.000  C
  H5       1.0000 0.49250  0.39840  0.68450  Biso   1.000  H
  H6       1.0000 0.99250  0.60160  0.18450  Biso   1.000  H
  C11      1.0000 0.37680  0.31150  0.71930  Biso   1.000  C
  C12      1.0000 0.87680  0.68850  0.21930  Biso   1.000  C
  H7       1.0000 0.29310  0.34070  0.70440  Biso   1.000  H
  H8       1.0000 0.79310  0.65930  0.20440  Biso   1.000  H
  C13      1.0000 0.38020  0.23350  0.75140  Biso   1.000  C
  C14      1.0000 0.88020  0.76650  0.25140  Biso   1.000  C
  C15      1.0000 0.24740  0.19500  0.75750  Biso   1.000  C
  C16      1.0000 0.74740  0.80500  0.25750  Biso   1.000  C
  C17      1.0000 0.95240  0.35560  0.40120  Biso   1.000  C
  C18      1.0000 0.45240  0.64440  0.90120  Biso   1.000  C
  C19      1.0000 0.88270  0.31860  0.26810  Biso   1.000  C
  C20      1.0000 0.38270  0.68140  0.76810  Biso   1.000  C
  C21      1.0000 0.90830  0.34420  0.15520  Biso   1.000  C
  C22      1.0000 0.40830  0.65580  0.65520  Biso   1.000  C
  H9       1.0000 0.86340  0.31880  0.06930  Biso   1.000  H
  H10      1.0000 0.36340  0.68120  0.56930  Biso   1.000  H
  C23      1.0000 0.99900  0.40650  0.16770  Biso   1.000  C
  C24      1.0000 0.49900  0.59350  0.66770  Biso   1.000  C
  H11      1.0000 0.01450  0.42310  0.09020  Biso   1.000  H
  H12      1.0000 0.51450  0.57690  0.59020  Biso   1.000  H
  C25      1.0000 0.06580  0.44390  0.29170  Biso   1.000  C
  C26      1.0000 0.56580  0.55610  0.79170  Biso   1.000  C
  H13      1.0000 0.12780  0.48560  0.29910  Biso   1.000  H
  H14      1.0000 0.62780  0.51440  0.79910  Biso   1.000  H
  C27      1.0000 0.04220  0.42000  0.41140  Biso   1.000  C
  C28      1.0000 0.54220  0.58000  0.91140  Biso   1.000  C
  C29      1.0000 0.69710  0.22990  0.13230  Biso   1.000  C
  C30      1.0000 0.19710  0.77010  0.63230  Biso   1.000  C
  H15      1.0000 0.63100  0.27050  0.08050  Biso   1.000  H
  H16      1.0000 0.13100  0.72950  0.58050  Biso   1.000  H
  H17      1.0000 0.64130  0.18710  0.14390  Biso   1.000  H
  H18      1.0000 0.14130  0.81290  0.64390  Biso   1.000  H
  H19      1.0000 0.75320  0.21280  0.08180  Biso   1.000  H
  H20      1.0000 0.25320  0.78720  0.58180  Biso   1.000  H
  C31      1.0000 0.10360  0.46780  0.53420  Biso   1.000  C
  C32      1.0000 0.60360  0.53220  0.03420  Biso   1.000  C
  H21      1.0000 0.15890  0.51060  0.53060  Biso   1.000  H
  H22      1.0000 0.65890  0.48940  0.03060  Biso   1.000  H
  C33      1.0000 0.14120  0.51450  0.76190  Biso   1.000  C
  C34      1.0000 0.64120  0.48550  0.26190  Biso   1.000  C
  H23      1.0000 0.21910  0.54610  0.75380  Biso   1.000  H
  H24      1.0000 0.71910  0.45390  0.25380  Biso   1.000  H
  C35      1.0000 0.20420  0.46830  0.89720  Biso   1.000  C
  C36      1.0000 0.70420  0.53170  0.39720  Biso   1.000  C
  H25      1.0000 0.29750  0.44510  0.90960  Biso   1.000  H
  H26      1.0000 0.79750  0.55490  0.40960  Biso   1.000  H
  H27      1.0000 0.22090  0.50190  0.97680  Biso   1.000  H
  H28      1.0000 0.72090  0.49810  0.47680  Biso   1.000  H
  C37      1.0000 0.00920  0.56650  0.74580  Biso   1.000  C
  C38      1.0000 0.50920  0.43350  0.24580  Biso   1.000  C
  H29      1.0000 0.97450  0.59230  0.65520  Biso   1.000  H
  H30      1.0000 0.47450  0.40770  0.15520  Biso   1.000  H
  H31      1.0000 0.92990  0.53360  0.74510  Biso   1.000  H
  H32      1.0000 0.42990  0.46640  0.24510  Biso   1.000  H
  C39      1.0000 0.03960  0.62710  0.85700  Biso   1.000  C
  C40      1.0000 0.53960  0.37290  0.35700  Biso   1.000  C
  H33      1.0000 0.95630  0.66120  0.83090  Biso   1.000  H
  H34      1.0000 0.45630  0.33880  0.33090  Biso   1.000  H
  H35      1.0000 0.12520  0.65640  0.86650  Biso   1.000  H
  H36      1.0000 0.62520  0.34360  0.36650  Biso   1.000  H
  H37      1.0000 0.05700  0.60250  0.94480  Biso   1.000  H
  H38      1.0000 0.55700  0.39750  0.44480  Biso   1.000  H
  C41      1.0000 0.99980  0.12510  0.02970  Biso   1.000  C
  C42      1.0000 0.49980  0.87490  0.52970  Biso   1.000  C
  C43      1.0000 0.05330  0.13640  0.17720  Biso   1.000  C
  C44      1.0000 0.55330  0.86360  0.67720  Biso   1.000  C
  C45      1.0000 0.00190  0.09340  0.25740  Biso   1.000  C
  C46      1.0000 0.50190  0.90660  0.75740  Biso   1.000  C
  H39      1.0000 0.03730  0.10250  0.35350  Biso   1.000  H
  H40      1.0000 0.53730  0.89750  0.85350  Biso   1.000  H
  C47      1.0000 0.89560  0.03530  0.19500  Biso   1.000  C
  C48      1.0000 0.39560  0.96470  0.69500  Biso   1.000  C
  H41      1.0000 0.86270  0.00510  0.24990  Biso   1.000  H
  H42      1.0000 0.36270  0.99490  0.74990  Biso   1.000  H
  C49      1.0000 0.84190  0.02370  0.05590  Biso   1.000  C
  C50      1.0000 0.34190  0.97630  0.55590  Biso   1.000  C
  H43      1.0000 0.77000  0.98590  0.01540  Biso   1.000  H
  H44      1.0000 0.27000  0.01410  0.51540  Biso   1.000  H
  C51      1.0000 0.89140  0.06720  0.96870  Biso   1.000  C
  C52      1.0000 0.39140  0.93280  0.46870  Biso   1.000  C
  C53      1.0000 0.82440  0.05150  0.82190  Biso   1.000  C
  C54      1.0000 0.32440  0.94850  0.32190  Biso   1.000  C
  H45      1.0000 0.75310  0.01270  0.79130  Biso   1.000  H
  H46      1.0000 0.25310  0.98730  0.29130  Biso   1.000  H
  C55      1.0000 0.22070  0.20690  0.37730  Biso   1.000  C
  C56      1.0000 0.72070  0.79310  0.87730  Biso   1.000  C
  H47      1.0000 0.29200  0.24790  0.39930  Biso   1.000  H
  H48      1.0000 0.79200  0.75210  0.89930  Biso   1.000  H
  H49      1.0000 0.26820  0.16050  0.42580  Biso   1.000  H
  H50      1.0000 0.76820  0.83950  0.92580  Biso   1.000  H
  H51      1.0000 0.14450  0.22150  0.40620  Biso   1.000  H
  H52      1.0000 0.64450  0.77850  0.90620  Biso   1.000  H
  C57      1.0000 0.78030  0.06350  0.57860  Biso   1.000  C
  C58      1.0000 0.28030  0.93650  0.07860  Biso   1.000  C
  H53      1.0000 0.68380  0.04080  0.55960  Biso   1.000  H
  H54      1.0000 0.18380  0.95920  0.05960  Biso   1.000  H
  C59      1.0000 0.76070  0.13760  0.49470  Biso   1.000  C
  C60      1.0000 0.26070  0.86240  0.99470  Biso   1.000  C
  H55      1.0000 0.73080  0.12560  0.39610  Biso   1.000  H
  H56      1.0000 0.23080  0.87440  0.89610  Biso   1.000  H
  H57      1.0000 0.68530  0.16990  0.50380  Biso   1.000  H
  H58      1.0000 0.18530  0.83010  0.00380  Biso   1.000  H
  C61      1.0000 0.87440  0.00540  0.54430  Biso   1.000  C
  C62      1.0000 0.37440  0.99460  0.04430  Biso   1.000  C
  H59      1.0000 0.82540  0.99270  0.44510  Biso   1.000  H
  H60      1.0000 0.32540  0.00730  0.94510  Biso   1.000  H
  H61      1.0000 0.96750  0.02990  0.55970  Biso   1.000  H
  H62      1.0000 0.46750  0.97010  0.05970  Biso   1.000  H
  C63      1.0000 0.90640  0.93080  0.62720  Biso   1.000  C
  C64      1.0000 0.40640  0.06920  0.12720  Biso   1.000  C
  H63      1.0000 0.96070  0.89650  0.59380  Biso   1.000  H
  H64      1.0000 0.46070  0.10350  0.09380  Biso   1.000  H
  H65      1.0000 0.81530  0.90670  0.61580  Biso   1.000  H
  H66      1.0000 0.31530  0.09330  0.11580  Biso   1.000  H
  H67      1.0000 0.96370  0.94190  0.72490  Biso   1.000  H
  H68      1.0000 0.46370  0.05810  0.22490  Biso   1.000  H
  O21      1.0000 0.24260  0.29800  0.05620  Biso   1.000  O
  O22      1.0000 0.74260  0.70200  0.55620  Biso   1.000  O
  H69      1.0000 0.22700  0.28600  0.12300  Biso   1.000  H
  H70      1.0000 0.72700  0.71400  0.62300  Biso   1.000  H
  H71      1.0000 0.18100  0.33100  0.00500  Biso   1.000  H
  H72      1.0000 0.68100  0.66900  0.50500  Biso   1.000  H
