data_image0
_cell_length_a       10.685
_cell_length_b       21.913
_cell_length_c       17.094
_cell_angle_alpha    90
_cell_angle_beta     92.25
_cell_angle_gamma    90

_symmetry_space_group_name_H-M    "P 1"
_symmetry_int_tables_number       1

loop_
  _symmetry_equiv_pos_as_xyz
  'x, y, z'

loop_
  _atom_site_label
  _atom_site_occupancy
  _atom_site_fract_x
  _atom_site_fract_y
  _atom_site_fract_z
  _atom_site_thermal_displace_type
  _atom_site_B_iso_or_equiv
  _atom_site_type_symbol
  Cu1      1.0000 0.55721  0.29696  0.38980  Biso   1.000  Cu
  Cu2      1.0000 0.94279  0.79696  0.11020  Biso   1.000  Cu
  Cu3      1.0000 0.44279  0.70304  0.61020  Biso   1.000  Cu
  Cu4      1.0000 0.05721  0.20304  0.88980  Biso   1.000  Cu
  Cu5      1.0000 0.62349  0.24261  0.25592  Biso   1.000  Cu
  Cu6      1.0000 0.87651  0.74261  0.24408  Biso   1.000  Cu
  Cu7      1.0000 0.37651  0.75739  0.74408  Biso   1.000  Cu
  Cu8      1.0000 0.12349  0.25739  0.75592  Biso   1.000  Cu
  O1       1.0000 0.47120  0.34033  0.48600  Biso   1.000  O
  O2       1.0000 0.02880  0.84033  0.01400  Biso   1.000  O
  O3       1.0000 0.52880  0.65967  0.51400  Biso   1.000  O
  O4       1.0000 0.97120  0.15967  0.98600  Biso   1.000  O
  O5       1.0000 0.48890  0.21930  0.42255  Biso   1.000  O
  O6       1.0000 0.01110  0.71930  0.07745  Biso   1.000  O
  O7       1.0000 0.51110  0.78070  0.57745  Biso   1.000  O
  O8       1.0000 0.98890  0.28070  0.92255  Biso   1.000  O
  O9       1.0000 0.54360  0.17234  0.31220  Biso   1.000  O
  O10      1.0000 0.95640  0.67234  0.18780  Biso   1.000  O
  O11      1.0000 0.45640  0.82766  0.68780  Biso   1.000  O
  O12      1.0000 0.04360  0.32766  0.81220  Biso   1.000  O
  O13      1.0000 0.35500  0.05510  0.22590  Biso   1.000  O
  O14      1.0000 0.14500  0.55510  0.27410  Biso   1.000  O
  O15      1.0000 0.64500  0.94490  0.77410  Biso   1.000  O
  O16      1.0000 0.85500  0.44490  0.72590  Biso   1.000  O
  O17      1.0000 0.30450  0.14740  0.25810  Biso   1.000  O
  O18      1.0000 0.19550  0.64740  0.24190  Biso   1.000  O
  O19      1.0000 0.69550  0.85260  0.74190  Biso   1.000  O
  O20      1.0000 0.80450  0.35260  0.75810  Biso   1.000  O
  O21      1.0000 0.72770  0.27024  0.42550  Biso   1.000  O
  O22      1.0000 0.77230  0.77024  0.07450  Biso   1.000  O
  O23      1.0000 0.27230  0.72976  0.57450  Biso   1.000  O
  O24      1.0000 0.22770  0.22976  0.92550  Biso   1.000  O
  O25      1.0000 0.78000  0.22421  0.31330  Biso   1.000  O
  O26      1.0000 0.72000  0.72421  0.18670  Biso   1.000  O
  O27      1.0000 0.22000  0.77579  0.68670  Biso   1.000  O
  O28      1.0000 0.28000  0.27579  0.81330  Biso   1.000  O
  O29      1.0000 0.88190  0.11620  0.56690  Biso   1.000  O
  O30      1.0000 0.61810  0.61620  0.93310  Biso   1.000  O
  O31      1.0000 0.11810  0.88380  0.43310  Biso   1.000  O
  O32      1.0000 0.38190  0.38380  0.06690  Biso   1.000  O
  O33      1.0000 0.76050  0.14230  0.47020  Biso   1.000  O
  O34      1.0000 0.73950  0.64230  0.02980  Biso   1.000  O
  O35      1.0000 0.23950  0.85770  0.52980  Biso   1.000  O
  O36      1.0000 0.26050  0.35770  0.97020  Biso   1.000  O
  O37      1.0000 0.62690  0.37091  0.34640  Biso   1.000  O
  O38      1.0000 0.87310  0.87091  0.15360  Biso   1.000  O
  O39      1.0000 0.37310  0.62909  0.65360  Biso   1.000  O
  O40      1.0000 0.12690  0.12909  0.84640  Biso   1.000  O
  O41      1.0000 0.68710  0.32641  0.23500  Biso   1.000  O
  O42      1.0000 0.81290  0.82641  0.26500  Biso   1.000  O
  O43      1.0000 0.31290  0.67359  0.76500  Biso   1.000  O
  O44      1.0000 0.18710  0.17359  0.73500  Biso   1.000  O
  O45      1.0000 0.89040  0.39080  0.36540  Biso   1.000  O
  O46      1.0000 0.60960  0.89080  0.13460  Biso   1.000  O
  O47      1.0000 0.10960  0.60920  0.63460  Biso   1.000  O
  O48      1.0000 0.39040  0.10920  0.86540  Biso   1.000  O
  O49      1.0000 0.92430  0.48260  0.40340  Biso   1.000  O
  O50      1.0000 0.57570  0.98260  0.09660  Biso   1.000  O
  O51      1.0000 0.07570  0.51740  0.59660  Biso   1.000  O
  O52      1.0000 0.42430  0.01740  0.90340  Biso   1.000  O
  O53      1.0000 0.40230  0.31051  0.32275  Biso   1.000  O
  O54      1.0000 0.09770  0.81051  0.17725  Biso   1.000  O
  O55      1.0000 0.59770  0.68949  0.67725  Biso   1.000  O
  O56      1.0000 0.90230  0.18949  0.82275  Biso   1.000  O
  O57      1.0000 0.46070  0.26718  0.21040  Biso   1.000  O
  O58      1.0000 0.03930  0.76718  0.28960  Biso   1.000  O
  O59      1.0000 0.53930  0.73282  0.78960  Biso   1.000  O
  O60      1.0000 0.96070  0.23282  0.71040  Biso   1.000  O
  O61      1.0000 0.35430  0.43100  0.26250  Biso   1.000  O
  O62      1.0000 0.14570  0.93100  0.23750  Biso   1.000  O
  O63      1.0000 0.64570  0.56900  0.73750  Biso   1.000  O
  O64      1.0000 0.85430  0.06900  0.76250  Biso   1.000  O
  O65      1.0000 0.20100  0.42770  0.34140  Biso   1.000  O
  O66      1.0000 0.29900  0.92770  0.15860  Biso   1.000  O
  O67      1.0000 0.79900  0.57230  0.65860  Biso   1.000  O
  O68      1.0000 0.70100  0.07230  0.84140  Biso   1.000  O
  N1       1.0000 0.33990  0.09540  0.27410  Biso   1.000  N
  N2       1.0000 0.16010  0.59540  0.22590  Biso   1.000  N
  N3       1.0000 0.66010  0.90460  0.72590  Biso   1.000  N
  N4       1.0000 0.83990  0.40460  0.77410  Biso   1.000  N
  N5       1.0000 0.85880  0.14630  0.50730  Biso   1.000  N
  N6       1.0000 0.64120  0.64630  0.99270  Biso   1.000  N
  N7       1.0000 0.14120  0.85370  0.49270  Biso   1.000  N
  N8       1.0000 0.35880  0.35370  0.00730  Biso   1.000  N
  N9       1.0000 0.87870  0.44540  0.35720  Biso   1.000  N
  N10      1.0000 0.62130  0.94540  0.14280  Biso   1.000  N
  N11      1.0000 0.12130  0.55460  0.64280  Biso   1.000  N
  N12      1.0000 0.37870  0.05460  0.85720  Biso   1.000  N
  N13      1.0000 0.25550  0.41090  0.28360  Biso   1.000  N
  N14      1.0000 0.24450  0.91090  0.21640  Biso   1.000  N
  N15      1.0000 0.74450  0.58910  0.71640  Biso   1.000  N
  N16      1.0000 0.75550  0.08910  0.78360  Biso   1.000  N
  N17      1.0000 0.16330  0.31047  0.65440  Biso   1.000  N
  N18      1.0000 0.33670  0.81047  0.84560  Biso   1.000  N
  N19      1.0000 0.83670  0.68953  0.34560  Biso   1.000  N
  N20      1.0000 0.66330  0.18953  0.15440  Biso   1.000  N
  N21      1.0000 0.52110  0.39790  0.59070  Biso   1.000  N
  N22      1.0000 0.97890  0.89790  0.90930  Biso   1.000  N
  N23      1.0000 0.47890  0.60210  0.40930  Biso   1.000  N
  N24      1.0000 0.02110  0.10210  0.09070  Biso   1.000  N
  C1       1.0000 0.49330  0.17430  0.37790  Biso   1.000  C
  C2       1.0000 0.00670  0.67430  0.12210  Biso   1.000  C
  C3       1.0000 0.50670  0.82570  0.62210  Biso   1.000  C
  C4       1.0000 0.99330  0.32570  0.87790  Biso   1.000  C
  C5       1.0000 0.43050  0.11690  0.40440  Biso   1.000  C
  C6       1.0000 0.06950  0.61690  0.09560  Biso   1.000  C
  C7       1.0000 0.56950  0.88310  0.59560  Biso   1.000  C
  C8       1.0000 0.93050  0.38310  0.90440  Biso   1.000  C
  C9       1.0000 0.44530  0.10090  0.48330  Biso   1.000  C
  C10      1.0000 0.05470  0.60090  0.01670  Biso   1.000  C
  C11      1.0000 0.55470  0.89910  0.51670  Biso   1.000  C
  C12      1.0000 0.94530  0.39910  0.98330  Biso   1.000  C
  H1       1.0000 0.49270  0.12580  0.51710  Biso   1.000  H
  H2       1.0000 0.00730  0.62580  0.98290  Biso   1.000  H
  H3       1.0000 0.50730  0.87420  0.48290  Biso   1.000  H
  H4       1.0000 0.99270  0.37420  0.01710  Biso   1.000  H
  C13      1.0000 0.39110  0.04880  0.51210  Biso   1.000  C
  C14      1.0000 0.10890  0.54880  0.98790  Biso   1.000  C
  C15      1.0000 0.60890  0.95120  0.48790  Biso   1.000  C
  C16      1.0000 0.89110  0.45120  0.01210  Biso   1.000  C
  H5       1.0000 0.40240  0.03830  0.56460  Biso   1.000  H
  H6       1.0000 0.09760  0.53830  0.93540  Biso   1.000  H
  H7       1.0000 0.59760  0.96170  0.43540  Biso   1.000  H
  H8       1.0000 0.90240  0.46170  0.06460  Biso   1.000  H
  C17      1.0000 0.31940  0.01250  0.46160  Biso   1.000  C
  C18      1.0000 0.18060  0.51250  0.03840  Biso   1.000  C
  C19      1.0000 0.68060  0.98750  0.53840  Biso   1.000  C
  C20      1.0000 0.81940  0.48750  0.96160  Biso   1.000  C
  H9       1.0000 0.28090  0.97780  0.48080  Biso   1.000  H
  H10      1.0000 0.21910  0.47780  0.01920  Biso   1.000  H
  H11      1.0000 0.71910  0.02220  0.51920  Biso   1.000  H
  H12      1.0000 0.78090  0.52220  0.98080  Biso   1.000  H
  C21      1.0000 0.30430  0.02680  0.38360  Biso   1.000  C
  C22      1.0000 0.19570  0.52680  0.11640  Biso   1.000  C
  C23      1.0000 0.69570  0.97320  0.61640  Biso   1.000  C
  C24      1.0000 0.80430  0.47320  0.88360  Biso   1.000  C
  H13      1.0000 0.25710  0.00220  0.34940  Biso   1.000  H
  H14      1.0000 0.24290  0.50220  0.15060  Biso   1.000  H
  H15      1.0000 0.74290  0.99780  0.65060  Biso   1.000  H
  H16      1.0000 0.75710  0.49780  0.84940  Biso   1.000  H
  C25      1.0000 0.36190  0.07910  0.35810  Biso   1.000  C
  C26      1.0000 0.13810  0.57910  0.14190  Biso   1.000  C
  C27      1.0000 0.63810  0.92090  0.64190  Biso   1.000  C
  C28      1.0000 0.86190  0.42090  0.85810  Biso   1.000  C
  C29      1.0000 0.80010  0.24100  0.38380  Biso   1.000  C
  C30      1.0000 0.69990  0.74100  0.11620  Biso   1.000  C
  C31      1.0000 0.19990  0.75900  0.61620  Biso   1.000  C
  C32      1.0000 0.30010  0.25900  0.88380  Biso   1.000  C
  C33      1.0000 0.92960  0.22670  0.41740  Biso   1.000  C
  C34      1.0000 0.57040  0.72670  0.08260  Biso   1.000  C
  C35      1.0000 0.07040  0.77330  0.58260  Biso   1.000  C
  C36      1.0000 0.42960  0.27330  0.91740  Biso   1.000  C
  C37      1.0000 0.02950  0.25870  0.38810  Biso   1.000  C
  C38      1.0000 0.47050  0.75870  0.11190  Biso   1.000  C
  C39      1.0000 0.97050  0.74130  0.61190  Biso   1.000  C
  C40      1.0000 0.52950  0.24130  0.88810  Biso   1.000  C
  H17      1.0000 0.01490  0.28590  0.34700  Biso   1.000  H
  H18      1.0000 0.48510  0.78590  0.15300  Biso   1.000  H
  H19      1.0000 0.98510  0.71410  0.65300  Biso   1.000  H
  H20      1.0000 0.51490  0.21410  0.84700  Biso   1.000  H
  C41      1.0000 0.15040  0.25090  0.41850  Biso   1.000  C
  C42      1.0000 0.34960  0.75090  0.08150  Biso   1.000  C
  C43      1.0000 0.84960  0.74910  0.58150  Biso   1.000  C
  C44      1.0000 0.65040  0.24910  0.91850  Biso   1.000  C
  H21      1.0000 0.21570  0.27270  0.39740  Biso   1.000  H
  H22      1.0000 0.28430  0.77270  0.10260  Biso   1.000  H
  H23      1.0000 0.78430  0.72730  0.60260  Biso   1.000  H
  H24      1.0000 0.71570  0.22730  0.89740  Biso   1.000  H
  C45      1.0000 0.17470  0.21160  0.47930  Biso   1.000  C
  C46      1.0000 0.32530  0.71160  0.02070  Biso   1.000  C
  C47      1.0000 0.82530  0.78840  0.52070  Biso   1.000  C
  C48      1.0000 0.67470  0.28840  0.97930  Biso   1.000  C
  H25      1.0000 0.25600  0.20690  0.50000  Biso   1.000  H
  H26      1.0000 0.24400  0.70690  0.00000  Biso   1.000  H
  H27      1.0000 0.74400  0.79310  0.50000  Biso   1.000  H
  H28      1.0000 0.75600  0.29310  0.00000  Biso   1.000  H
  C49      1.0000 0.07780  0.17890  0.50980  Biso   1.000  C
  C50      1.0000 0.42220  0.67890  0.99020  Biso   1.000  C
  C51      1.0000 0.92220  0.82110  0.49020  Biso   1.000  C
  C52      1.0000 0.57780  0.32110  0.00980  Biso   1.000  C
  H29      1.0000 0.09340  0.15220  0.55130  Biso   1.000  H
  H30      1.0000 0.40660  0.65220  0.94870  Biso   1.000  H
  H31      1.0000 0.90660  0.84780  0.44870  Biso   1.000  H
  H32      1.0000 0.59340  0.34780  0.05130  Biso   1.000  H
  C53      1.0000 0.95770  0.18600  0.47860  Biso   1.000  C
  C54      1.0000 0.54230  0.68600  0.02140  Biso   1.000  C
  C55      1.0000 0.04230  0.81400  0.52140  Biso   1.000  C
  C56      1.0000 0.45770  0.31400  0.97860  Biso   1.000  C
  C57      1.0000 0.67600  0.37070  0.28050  Biso   1.000  C
  C58      1.0000 0.82400  0.87070  0.21950  Biso   1.000  C
  C59      1.0000 0.32400  0.62930  0.71950  Biso   1.000  C
  C60      1.0000 0.17600  0.12930  0.78050  Biso   1.000  C
  C61      1.0000 0.71850  0.43210  0.25150  Biso   1.000  C
  C62      1.0000 0.78150  0.93210  0.24850  Biso   1.000  C
  C63      1.0000 0.28150  0.56790  0.74850  Biso   1.000  C
  C64      1.0000 0.21850  0.06790  0.75150  Biso   1.000  C
  C65      1.0000 0.65670  0.45480  0.18480  Biso   1.000  C
  C66      1.0000 0.84330  0.95480  0.31520  Biso   1.000  C
  C67      1.0000 0.34330  0.54520  0.81520  Biso   1.000  C
  C68      1.0000 0.15670  0.04520  0.68480  Biso   1.000  C
  H33      1.0000 0.59530  0.43150  0.15900  Biso   1.000  H
  H34      1.0000 0.90470  0.93150  0.34100  Biso   1.000  H
  H35      1.0000 0.40470  0.56850  0.84100  Biso   1.000  H
  H36      1.0000 0.09530  0.06850  0.65900  Biso   1.000  H
  C69      1.0000 0.68600  0.51260  0.15630  Biso   1.000  C
  C70      1.0000 0.81400  0.01260  0.34370  Biso   1.000  C
  C71      1.0000 0.31400  0.48740  0.84370  Biso   1.000  C
  C72      1.0000 0.18600  0.98740  0.65630  Biso   1.000  C
  H37      1.0000 0.64460  0.52740  0.11130  Biso   1.000  H
  H38      1.0000 0.85540  0.02740  0.38870  Biso   1.000  H
  H39      1.0000 0.35540  0.47260  0.88870  Biso   1.000  H
  H40      1.0000 0.14460  0.97260  0.61130  Biso   1.000  H
  C73      1.0000 0.77550  0.54740  0.19420  Biso   1.000  C
  C74      1.0000 0.72450  0.04740  0.30580  Biso   1.000  C
  C75      1.0000 0.22450  0.45260  0.80580  Biso   1.000  C
  C76      1.0000 0.27550  0.95260  0.69420  Biso   1.000  C
  H41      1.0000 0.79420  0.58600  0.17520  Biso   1.000  H
  H42      1.0000 0.70580  0.08600  0.32480  Biso   1.000  H
  H43      1.0000 0.20580  0.41400  0.82480  Biso   1.000  H
  H44      1.0000 0.29420  0.91400  0.67520  Biso   1.000  H
  C77      1.0000 0.83780  0.52600  0.26000  Biso   1.000  C
  C78      1.0000 0.66220  0.02600  0.24000  Biso   1.000  C
  C79      1.0000 0.16220  0.47400  0.74000  Biso   1.000  C
  C80      1.0000 0.33780  0.97400  0.76000  Biso   1.000  C
  H45      1.0000 0.89890  0.54960  0.28580  Biso   1.000  H
  H46      1.0000 0.60110  0.04960  0.21420  Biso   1.000  H
  H47      1.0000 0.10110  0.45040  0.71420  Biso   1.000  H
  H48      1.0000 0.39890  0.95040  0.78580  Biso   1.000  H
  C81      1.0000 0.80800  0.46830  0.28770  Biso   1.000  C
  C82      1.0000 0.69200  0.96830  0.21230  Biso   1.000  C
  C83      1.0000 0.19200  0.53170  0.71230  Biso   1.000  C
  C84      1.0000 0.30800  0.03170  0.78770  Biso   1.000  C
  C85      1.0000 0.38510  0.29560  0.25240  Biso   1.000  C
  C86      1.0000 0.11490  0.79560  0.24760  Biso   1.000  C
  C87      1.0000 0.61490  0.70440  0.74760  Biso   1.000  C
  C88      1.0000 0.88510  0.20440  0.75240  Biso   1.000  C
  C89      1.0000 0.25930  0.31120  0.21520  Biso   1.000  C
  C90      1.0000 0.24070  0.81120  0.28480  Biso   1.000  C
  C91      1.0000 0.74070  0.68880  0.78480  Biso   1.000  C
  C92      1.0000 0.75930  0.18880  0.71520  Biso   1.000  C
  C93      1.0000 0.20010  0.27100  0.16330  Biso   1.000  C
  C94      1.0000 0.29990  0.77100  0.33670  Biso   1.000  C
  C95      1.0000 0.79990  0.72900  0.83670  Biso   1.000  C
  C96      1.0000 0.70010  0.22900  0.66330  Biso   1.000  C
  H49      1.0000 0.24270  0.23690  0.14620  Biso   1.000  H
  H50      1.0000 0.25730  0.73690  0.35380  Biso   1.000  H
  H51      1.0000 0.75730  0.76310  0.85380  Biso   1.000  H
  H52      1.0000 0.74270  0.26310  0.64620  Biso   1.000  H
  C97      1.0000 0.07780  0.28140  0.13660  Biso   1.000  C
  C98      1.0000 0.42220  0.78140  0.36340  Biso   1.000  C
  C99      1.0000 0.92220  0.71860  0.86340  Biso   1.000  C
  C100     1.0000 0.57780  0.21860  0.63660  Biso   1.000  C
  H53      1.0000 0.03960  0.25440  0.10110  Biso   1.000  H
  H54      1.0000 0.46040  0.75440  0.39890  Biso   1.000  H
  H55      1.0000 0.96040  0.74560  0.89890  Biso   1.000  H
  H56      1.0000 0.53960  0.24560  0.60110  Biso   1.000  H
  C101     1.0000 0.01320  0.33050  0.16200  Biso   1.000  C
  C102     1.0000 0.48680  0.83050  0.33800  Biso   1.000  C
  C103     1.0000 0.98680  0.66950  0.83800  Biso   1.000  C
  C104     1.0000 0.51320  0.16950  0.66200  Biso   1.000  C
  H57      1.0000 0.92920  0.33520  0.14690  Biso   1.000  H
  H58      1.0000 0.57080  0.83520  0.35310  Biso   1.000  H
  H59      1.0000 0.07080  0.66480  0.85310  Biso   1.000  H
  H60      1.0000 0.42920  0.16480  0.64690  Biso   1.000  H
  C105     1.0000 0.07140  0.37370  0.21040  Biso   1.000  C
  C106     1.0000 0.42860  0.87370  0.28960  Biso   1.000  C
  C107     1.0000 0.92860  0.62630  0.78960  Biso   1.000  C
  C108     1.0000 0.57140  0.12630  0.71040  Biso   1.000  C
  H61      1.0000 0.02920  0.40870  0.22520  Biso   1.000  H
  H62      1.0000 0.47080  0.90870  0.27480  Biso   1.000  H
  H63      1.0000 0.97080  0.59130  0.77480  Biso   1.000  H
  H64      1.0000 0.52920  0.09130  0.72520  Biso   1.000  H
  C109     1.0000 0.19410  0.36310  0.23590  Biso   1.000  C
  C110     1.0000 0.30590  0.86310  0.26410  Biso   1.000  C
  C111     1.0000 0.80590  0.63690  0.76410  Biso   1.000  C
  C112     1.0000 0.69410  0.13690  0.73590  Biso   1.000  C
  C113     1.0000 0.28000  0.32220  0.63480  Biso   1.000  C
  C114     1.0000 0.22000  0.82220  0.86520  Biso   1.000  C
  C115     1.0000 0.72000  0.67780  0.36520  Biso   1.000  C
  C116     1.0000 0.78000  0.17780  0.13480  Biso   1.000  C
  H65      1.0000 0.34560  0.30540  0.66500  Biso   1.000  H
  H66      1.0000 0.15440  0.80540  0.83500  Biso   1.000  H
  H67      1.0000 0.65440  0.69460  0.33500  Biso   1.000  H
  H68      1.0000 0.84560  0.19460  0.16500  Biso   1.000  H
  C117     1.0000 0.30880  0.35870  0.57080  Biso   1.000  C
  C118     1.0000 0.19120  0.85870  0.92920  Biso   1.000  C
  C119     1.0000 0.69120  0.64130  0.42920  Biso   1.000  C
  C120     1.0000 0.80880  0.14130  0.07080  Biso   1.000  C
  C121     1.0000 0.21050  0.38300  0.52650  Biso   1.000  C
  C122     1.0000 0.28950  0.88300  0.97350  Biso   1.000  C
  C123     1.0000 0.78950  0.61700  0.47350  Biso   1.000  C
  C124     1.0000 0.71050  0.11700  0.02650  Biso   1.000  C
  H69      1.0000 0.22620  0.40680  0.48290  Biso   1.000  H
  H70      1.0000 0.27380  0.90680  0.01710  Biso   1.000  H
  H71      1.0000 0.77380  0.59320  0.51710  Biso   1.000  H
  H72      1.0000 0.72620  0.09320  0.98290  Biso   1.000  H
  C125     1.0000 0.08930  0.37230  0.54670  Biso   1.000  C
  C126     1.0000 0.41070  0.87230  0.95330  Biso   1.000  C
  C127     1.0000 0.91070  0.62770  0.45330  Biso   1.000  C
  C128     1.0000 0.58930  0.12770  0.04670  Biso   1.000  C
  H73      1.0000 0.02230  0.38920  0.51790  Biso   1.000  H
  H74      1.0000 0.47770  0.88920  0.98210  Biso   1.000  H
  H75      1.0000 0.97770  0.61080  0.48210  Biso   1.000  H
  H76      1.0000 0.52230  0.11080  0.01790  Biso   1.000  H
  C129     1.0000 0.06930  0.33560  0.61080  Biso   1.000  C
  C130     1.0000 0.43070  0.83560  0.88920  Biso   1.000  C
  C131     1.0000 0.93070  0.66440  0.38920  Biso   1.000  C
  C132     1.0000 0.56930  0.16440  0.11080  Biso   1.000  C
  H77      1.0000 0.98730  0.32800  0.62430  Biso   1.000  H
  H78      1.0000 0.51270  0.82800  0.87570  Biso   1.000  H
  H79      1.0000 0.01270  0.67200  0.37570  Biso   1.000  H
  H80      1.0000 0.48730  0.17200  0.12430  Biso   1.000  H
  C133     1.0000 0.44080  0.36600  0.54720  Biso   1.000  C
  C134     1.0000 0.05920  0.86600  0.95280  Biso   1.000  C
  C135     1.0000 0.55920  0.63400  0.45280  Biso   1.000  C
  C136     1.0000 0.94080  0.13400  0.04720  Biso   1.000  C
  C137     1.0000 0.65260  0.41130  0.56700  Biso   1.000  C
  C138     1.0000 0.84740  0.91130  0.93300  Biso   1.000  C
  C139     1.0000 0.34740  0.58870  0.43300  Biso   1.000  C
  C140     1.0000 0.15260  0.08870  0.06700  Biso   1.000  C
  H81      1.0000 0.70590  0.41650  0.61380  Biso   1.000  H
  H82      1.0000 0.79410  0.91650  0.88620  Biso   1.000  H
  H83      1.0000 0.29410  0.58350  0.38620  Biso   1.000  H
  H84      1.0000 0.20590  0.08350  0.11380  Biso   1.000  H
  H85      1.0000 0.68390  0.37670  0.53840  Biso   1.000  H
  H86      1.0000 0.81610  0.87670  0.96160  Biso   1.000  H
  H87      1.0000 0.31610  0.62330  0.46160  Biso   1.000  H
  H88      1.0000 0.18390  0.12330  0.03840  Biso   1.000  H
  C141     1.0000 0.66100  0.46800  0.51680  Biso   1.000  C
  C142     1.0000 0.83900  0.96800  0.98320  Biso   1.000  C
  C143     1.0000 0.33900  0.53200  0.48320  Biso   1.000  C
  C144     1.0000 0.16100  0.03200  0.01680  Biso   1.000  C
  H89      1.0000 0.59650  0.46680  0.47610  Biso   1.000  H
  H90      1.0000 0.90350  0.96680  0.02390  Biso   1.000  H
  H91      1.0000 0.40350  0.53320  0.52390  Biso   1.000  H
  H92      1.0000 0.09650  0.03320  0.97610  Biso   1.000  H
  H93      1.0000 0.65010  0.50360  0.54860  Biso   1.000  H
  H94      1.0000 0.84990  0.00360  0.95140  Biso   1.000  H
  H95      1.0000 0.34990  0.49640  0.45140  Biso   1.000  H
  H96      1.0000 0.15010  0.99640  0.04860  Biso   1.000  H
  H97      1.0000 0.74140  0.46950  0.49390  Biso   1.000  H
  H98      1.0000 0.75860  0.96950  0.00610  Biso   1.000  H
  H99      1.0000 0.25860  0.53050  0.50610  Biso   1.000  H
  H100     1.0000 0.24140  0.03050  0.99390  Biso   1.000  H
  C145     1.0000 0.15480  0.11220  0.07000  Biso   1.000  C
  C146     1.0000 0.34520  0.61220  0.43000  Biso   1.000  C
  C147     1.0000 0.84520  0.88780  0.93000  Biso   1.000  C
  C148     1.0000 0.65480  0.38780  0.57000  Biso   1.000  C
  H101     1.0000 0.20950  0.11610  0.11640  Biso   1.000  H
  H102     1.0000 0.29050  0.61610  0.38360  Biso   1.000  H
  H103     1.0000 0.79050  0.88390  0.88360  Biso   1.000  H
  H104     1.0000 0.70950  0.38390  0.61640  Biso   1.000  H
  H105     1.0000 0.16360  0.14790  0.03720  Biso   1.000  H
  H106     1.0000 0.33640  0.64790  0.46280  Biso   1.000  H
  H107     1.0000 0.83640  0.85210  0.96280  Biso   1.000  H
  H108     1.0000 0.66360  0.35210  0.53720  Biso   1.000  H
  C149     1.0000 0.18000  0.05380  0.02590  Biso   1.000  C
  C150     1.0000 0.32000  0.55380  0.47410  Biso   1.000  C
  C151     1.0000 0.82000  0.94620  0.97410  Biso   1.000  C
  C152     1.0000 0.68000  0.44620  0.52590  Biso   1.000  C
  H109     1.0000 0.16760  0.01940  0.05950  Biso   1.000  H
  H110     1.0000 0.33240  0.51940  0.44050  Biso   1.000  H
  H111     1.0000 0.83240  0.98060  0.94050  Biso   1.000  H
  H112     1.0000 0.66760  0.48060  0.55950  Biso   1.000  H
  H113     1.0000 0.26490  0.05390  0.00930  Biso   1.000  H
  H114     1.0000 0.23510  0.55390  0.49070  Biso   1.000  H
  H115     1.0000 0.73510  0.94610  0.99070  Biso   1.000  H
  H116     1.0000 0.76490  0.44610  0.50930  Biso   1.000  H
  H117     1.0000 0.12380  0.05110  0.98090  Biso   1.000  H
  H118     1.0000 0.37620  0.55110  0.51910  Biso   1.000  H
  H119     1.0000 0.87620  0.94890  0.01910  Biso   1.000  H
  H120     1.0000 0.62380  0.44890  0.48090  Biso   1.000  H
  C153     1.0000 0.49200  0.42630  0.66780  Biso   1.000  C
  C154     1.0000 0.00800  0.92630  0.83220  Biso   1.000  C
  C155     1.0000 0.50800  0.57370  0.33220  Biso   1.000  C
  C156     1.0000 0.99200  0.07370  0.16780  Biso   1.000  C
  H121     1.0000 0.53570  0.46500  0.67160  Biso   1.000  H
  H122     1.0000 0.96430  0.96500  0.82840  Biso   1.000  H
  H123     1.0000 0.46430  0.53500  0.32840  Biso   1.000  H
  H124     1.0000 0.03570  0.03500  0.17160  Biso   1.000  H
  H125     1.0000 0.40300  0.43510  0.66690  Biso   1.000  H
  H126     1.0000 0.09700  0.93510  0.83310  Biso   1.000  H
  H127     1.0000 0.59700  0.56490  0.33310  Biso   1.000  H
  H128     1.0000 0.90300  0.06490  0.16690  Biso   1.000  H
  C157     1.0000 0.52400  0.38990  0.74220  Biso   1.000  C
  C158     1.0000 0.97600  0.88990  0.75780  Biso   1.000  C
  C159     1.0000 0.47600  0.61010  0.25780  Biso   1.000  C
  C160     1.0000 0.02400  0.11010  0.24220  Biso   1.000  C
  H129     1.0000 0.60950  0.37600  0.74110  Biso   1.000  H
  H130     1.0000 0.89050  0.87600  0.75890  Biso   1.000  H
  H131     1.0000 0.39050  0.62400  0.25890  Biso   1.000  H
  H132     1.0000 0.10950  0.12400  0.24110  Biso   1.000  H
  H133     1.0000 0.51460  0.41540  0.78710  Biso   1.000  H
  H134     1.0000 0.98540  0.91540  0.71290  Biso   1.000  H
  H135     1.0000 0.48540  0.58460  0.21290  Biso   1.000  H
  H136     1.0000 0.01460  0.08460  0.28710  Biso   1.000  H
  H137     1.0000 0.46940  0.35540  0.74500  Biso   1.000  H
  H138     1.0000 0.03060  0.85540  0.75500  Biso   1.000  H
  H139     1.0000 0.53060  0.64460  0.25500  Biso   1.000  H
  H140     1.0000 0.96940  0.14460  0.24500  Biso   1.000  H
  C161     1.0000 0.97200  0.05530  0.14640  Biso   1.000  C
  C162     1.0000 0.52800  0.55530  0.35360  Biso   1.000  C
  C163     1.0000 0.02800  0.94470  0.85360  Biso   1.000  C
  C164     1.0000 0.47200  0.44470  0.64640  Biso   1.000  C
  H141     1.0000 0.00920  0.01540  0.13870  Biso   1.000  H
  H142     1.0000 0.49080  0.51540  0.36130  Biso   1.000  H
  H143     1.0000 0.99080  0.98460  0.86130  Biso   1.000  H
  H144     1.0000 0.50920  0.48460  0.63870  Biso   1.000  H
  H145     1.0000 0.88160  0.05210  0.14230  Biso   1.000  H
  H146     1.0000 0.61840  0.55210  0.35770  Biso   1.000  H
  H147     1.0000 0.11840  0.94790  0.85770  Biso   1.000  H
  H148     1.0000 0.38160  0.44790  0.64230  Biso   1.000  H
  C165     1.0000 0.01700  0.08410  0.22400  Biso   1.000  C
  C166     1.0000 0.48300  0.58410  0.27600  Biso   1.000  C
  C167     1.0000 0.98300  0.91590  0.77600  Biso   1.000  C
  C168     1.0000 0.51700  0.41590  0.72400  Biso   1.000  C
  H149     1.0000 0.09680  0.10350  0.21700  Biso   1.000  H
  H150     1.0000 0.40320  0.60350  0.28300  Biso   1.000  H
  H151     1.0000 0.90320  0.89650  0.78300  Biso   1.000  H
  H152     1.0000 0.59680  0.39650  0.71700  Biso   1.000  H
  H153     1.0000 0.02630  0.05300  0.26300  Biso   1.000  H
  H154     1.0000 0.47370  0.55300  0.23700  Biso   1.000  H
  H155     1.0000 0.97370  0.94700  0.73700  Biso   1.000  H
  H156     1.0000 0.52630  0.44700  0.76300  Biso   1.000  H
  H157     1.0000 0.95750  0.11390  0.23950  Biso   1.000  H
  H158     1.0000 0.54250  0.61390  0.26050  Biso   1.000  H
  H159     1.0000 0.04250  0.88610  0.76050  Biso   1.000  H
  H160     1.0000 0.45750  0.38610  0.73950  Biso   1.000  H
