data_image0
_cell_length_a       7.095
_cell_length_b       11.73
_cell_length_c       13.726
_cell_angle_alpha    105.95
_cell_angle_beta     103.52
_cell_angle_gamma    103.78

_symmetry_space_group_name_H-M    "P 1"
_symmetry_int_tables_number       1

loop_
  _symmetry_equiv_pos_as_xyz
  'x, y, z'

loop_
  _atom_site_label
  _atom_site_occupancy
  _atom_site_fract_x
  _atom_site_fract_y
  _atom_site_fract_z
  _atom_site_thermal_displace_type
  _atom_site_B_iso_or_equiv
  _atom_site_type_symbol
  C1       1.0000 0.92060  0.77900  0.33602  Biso   1.000  C
  C2       1.0000 0.07940  0.22100  0.66398  Biso   1.000  C
  C3       1.0000 0.86320  0.89540  0.35814  Biso   1.000  C
  C4       1.0000 0.13680  0.10460  0.64186  Biso   1.000  C
  C5       1.0000 0.97690  0.01450  0.36838  Biso   1.000  C
  C6       1.0000 0.02310  0.98550  0.63162  Biso   1.000  C
  H1       1.0000 0.10780  0.03050  0.36240  Biso   1.000  H
  H2       1.0000 0.89220  0.96950  0.63760  Biso   1.000  H
  C7       1.0000 0.89040  0.10870  0.38762  Biso   1.000  C
  C8       1.0000 0.10960  0.89130  0.61238  Biso   1.000  C
  H3       1.0000 0.96440  0.18920  0.39500  Biso   1.000  H
  H4       1.0000 0.03560  0.81080  0.60500  Biso   1.000  H
  C9       1.0000 0.69430  0.08510  0.39610  Biso   1.000  C
  C10      1.0000 0.30570  0.91490  0.60390  Biso   1.000  C
  H5       1.0000 0.63940  0.15020  0.40860  Biso   1.000  H
  H6       1.0000 0.36060  0.84980  0.59140  Biso   1.000  H
  C11      1.0000 0.57930  0.96680  0.38637  Biso   1.000  C
  C12      1.0000 0.42070  0.03320  0.61363  Biso   1.000  C
  H7       1.0000 0.44830  0.95040  0.39220  Biso   1.000  H
  H8       1.0000 0.55170  0.04960  0.60780  Biso   1.000  H
  C13      1.0000 0.66950  0.87440  0.36758  Biso   1.000  C
  C14      1.0000 0.33050  0.12560  0.63242  Biso   1.000  C
  C15      1.0000 0.56600  0.21630  0.18888  Biso   1.000  C
  C16      1.0000 0.43400  0.78370  0.81112  Biso   1.000  C
  C17      1.0000 0.38450  0.10110  0.15530  Biso   1.000  C
  C18      1.0000 0.61550  0.89890  0.84470  Biso   1.000  C
  C19      1.0000 0.37590  0.97800  0.12060  Biso   1.000  C
  C20      1.0000 0.62410  0.02200  0.87940  Biso   1.000  C
  H9       1.0000 0.49190  0.95680  0.11440  Biso   1.000  H
  H10      1.0000 0.50810  0.04320  0.88560  Biso   1.000  H
  C21      1.0000 0.19020  0.88590  0.09490  Biso   1.000  C
  C22      1.0000 0.80980  0.11410  0.90510  Biso   1.000  C
  H11      1.0000 0.18150  0.80200  0.07080  Biso   1.000  H
  H12      1.0000 0.81850  0.19800  0.92920  Biso   1.000  H
  C23      1.0000 0.01940  0.91680  0.10450  Biso   1.000  C
  C24      1.0000 0.98060  0.08320  0.89550  Biso   1.000  C
  H13      1.0000 0.89720  0.85320  0.08770  Biso   1.000  H
  H14      1.0000 0.10280  0.14680  0.91230  Biso   1.000  H
  C25      1.0000 0.02380  0.04030  0.13854  Biso   1.000  C
  C26      1.0000 0.97620  0.95970  0.86146  Biso   1.000  C
  H15      1.0000 0.90760  0.06150  0.14420  Biso   1.000  H
  H16      1.0000 0.09240  0.93850  0.85580  Biso   1.000  H
  C27      1.0000 0.21040  0.13020  0.16357  Biso   1.000  C
  C28      1.0000 0.78960  0.86980  0.83643  Biso   1.000  C
  C29      1.0000 0.78190  0.46770  0.46555  Biso   1.000  C
  C30      1.0000 0.21810  0.53230  0.53445  Biso   1.000  C
  H17      1.0000 0.64790  0.40420  0.43080  Biso   1.000  H
  H18      1.0000 0.35210  0.59580  0.56920  Biso   1.000  H
  H19      1.0000 0.76170  0.54800  0.49210  Biso   1.000  H
  H20      1.0000 0.23830  0.45200  0.50790  Biso   1.000  H
  C31      1.0000 0.89790  0.43970  0.55926  Biso   1.000  C
  C32      1.0000 0.10210  0.56030  0.44074  Biso   1.000  C
  H21      1.0000 0.90470  0.35560  0.53370  Biso   1.000  H
  H22      1.0000 0.09530  0.64440  0.46630  Biso   1.000  H
  H23      1.0000 0.82310  0.44260  0.61020  Biso   1.000  H
  H24      1.0000 0.17690  0.55740  0.38980  Biso   1.000  H
  C33      1.0000 0.53210  0.39140  0.01629  Biso   1.000  C
  C34      1.0000 0.46790  0.60860  0.98371  Biso   1.000  C
  H25      1.0000 0.48420  0.31430  0.02960  Biso   1.000  H
  H26      1.0000 0.51580  0.68570  0.97040  Biso   1.000  H
  H27      1.0000 0.66500  0.39760  0.00680  Biso   1.000  H
  H28      1.0000 0.33500  0.60240  0.99320  Biso   1.000  H
  C35      1.0000 0.38350  0.38550  0.91409  Biso   1.000  C
  C36      1.0000 0.61650  0.61450  0.08591  Biso   1.000  C
  H29      1.0000 0.24790  0.37230  0.92120  Biso   1.000  H
  H30      1.0000 0.75210  0.62770  0.07880  Biso   1.000  H
  H31      1.0000 0.37660  0.31470  0.85510  Biso   1.000  H
  H32      1.0000 0.62340  0.68530  0.14490  Biso   1.000  H
  N1       1.0000 0.77230  0.67967  0.33566  Biso   1.000  N
  N2       1.0000 0.22770  0.32033  0.66434  Biso   1.000  N
  N3       1.0000 0.51560  0.32309  0.22034  Biso   1.000  N
  N4       1.0000 0.48440  0.67691  0.77966  Biso   1.000  N
  N5       1.0000 0.89100  0.47066  0.38560  Biso   1.000  N
  N6       1.0000 0.10900  0.52934  0.61440  Biso   1.000  N
  H33      1.0000 0.90470  0.39350  0.36230  Biso   1.000  H
  H34      1.0000 0.09530  0.60650  0.63770  Biso   1.000  H
  N7       1.0000 0.55530  0.49877  0.11048  Biso   1.000  N
  N8       1.0000 0.44470  0.50123  0.88952  Biso   1.000  N
  H35      1.0000 0.42680  0.48990  0.11470  Biso   1.000  H
  H36      1.0000 0.57320  0.51010  0.88530  Biso   1.000  H
  O1       1.0000 0.07870  0.77285  0.31742  Biso   1.000  O
  O2       1.0000 0.92130  0.22715  0.68258  Biso   1.000  O
  O3       1.0000 0.56200  0.71431  0.46109  Biso   1.000  O
  O4       1.0000 0.43800  0.28569  0.53891  Biso   1.000  O
  O5       1.0000 0.97120  0.51350  0.18692  Biso   1.000  O
  O6       1.0000 0.02880  0.48650  0.81308  Biso   1.000  O
  O7       1.0000 0.39790  0.64489  0.26857  Biso   1.000  O
  O8       1.0000 0.60210  0.35511  0.73143  Biso   1.000  O
  O9       1.0000 0.73650  0.21698  0.18900  Biso   1.000  O
  O10      1.0000 0.26350  0.78302  0.81100  Biso   1.000  O
  O11      1.0000 0.17450  0.33656  0.12997  Biso   1.000  O
  O12      1.0000 0.82550  0.66344  0.87003  Biso   1.000  O
  O13      1.0000 0.24710  0.33917  0.31289  Biso   1.000  O
  O14      1.0000 0.75290  0.66083  0.68711  Biso   1.000  O
  S1       1.0000 0.57787  0.71801  0.35985  Biso   1.000  S
  S2       1.0000 0.42213  0.28199  0.64015  Biso   1.000  S
  S3       1.0000 0.27453  0.29406  0.21098  Biso   1.000  S
  S4       1.0000 0.72547  0.70594  0.78902  Biso   1.000  S
  Cu1      1.0000 0.72573  0.49404  0.25363  Biso   1.000  Cu
  Cu2      1.0000 0.27427  0.50596  0.74637  Biso   1.000  Cu
  H37      1.0000 0.02500  0.46300  0.17600  Biso   1.000  H
  H38      1.0000 0.97500  0.53700  0.82400  Biso   1.000  H
  H39      1.0000 0.04800  0.57500  0.21600  Biso   1.000  H
  H40      1.0000 0.95200  0.42500  0.78400  Biso   1.000  H
