data_image0
_cell_length_a       14.451
_cell_length_b       9.744
_cell_length_c       14.73
_cell_angle_alpha    90
_cell_angle_beta     109.58
_cell_angle_gamma    90

_symmetry_space_group_name_H-M    "P 1"
_symmetry_int_tables_number       1

loop_
  _symmetry_equiv_pos_as_xyz
  'x, y, z'

loop_
  _atom_site_label
  _atom_site_occupancy
  _atom_site_fract_x
  _atom_site_fract_y
  _atom_site_fract_z
  _atom_site_thermal_displace_type
  _atom_site_B_iso_or_equiv
  _atom_site_type_symbol
  Cu1      1.0000 0.68987  0.42610  0.79554  Biso   1.000  Cu
  Cu2      1.0000 0.81013  0.92610  0.70446  Biso   1.000  Cu
  Cu3      1.0000 0.31013  0.57390  0.20446  Biso   1.000  Cu
  Cu4      1.0000 0.18987  0.07390  0.29554  Biso   1.000  Cu
  P1       1.0000 0.69920  0.90690  0.10000  Biso   1.000  P
  P2       1.0000 0.80080  0.40690  0.40000  Biso   1.000  P
  P3       1.0000 0.30080  0.09310  0.90000  Biso   1.000  P
  P4       1.0000 0.19920  0.59310  0.60000  Biso   1.000  P
  F1       1.0000 0.74170  0.03290  0.16940  Biso   1.000  F
  F2       1.0000 0.75830  0.53290  0.33060  Biso   1.000  F
  F3       1.0000 0.25830  0.96710  0.83060  Biso   1.000  F
  F4       1.0000 0.24170  0.46710  0.66940  Biso   1.000  F
  F5       1.0000 0.66370  0.78520  0.03910  Biso   1.000  F
  F6       1.0000 0.83630  0.28520  0.46090  Biso   1.000  F
  F7       1.0000 0.33630  0.21480  0.96090  Biso   1.000  F
  F8       1.0000 0.16370  0.71480  0.53910  Biso   1.000  F
  F9       1.0000 0.72300  0.99370  0.02110  Biso   1.000  F
  F10      1.0000 0.77700  0.49370  0.47890  Biso   1.000  F
  F11      1.0000 0.27700  0.00630  0.97890  Biso   1.000  F
  F12      1.0000 0.22300  0.50630  0.52110  Biso   1.000  F
  F13      1.0000 0.68400  0.82600  0.18110  Biso   1.000  F
  F14      1.0000 0.81600  0.32600  0.31890  Biso   1.000  F
  F15      1.0000 0.31600  0.17400  0.81890  Biso   1.000  F
  F16      1.0000 0.18400  0.67400  0.68110  Biso   1.000  F
  F17      1.0000 0.80340  0.85310  0.13140  Biso   1.000  F
  F18      1.0000 0.69660  0.35310  0.36860  Biso   1.000  F
  F19      1.0000 0.19660  0.14690  0.86860  Biso   1.000  F
  F20      1.0000 0.30340  0.64690  0.63140  Biso   1.000  F
  F21      1.0000 0.59940  0.96740  0.06830  Biso   1.000  F
  F22      1.0000 0.90060  0.46740  0.43170  Biso   1.000  F
  F23      1.0000 0.40060  0.03260  0.93170  Biso   1.000  F
  F24      1.0000 0.09940  0.53260  0.56830  Biso   1.000  F
  O1       1.0000 0.74760  0.19340  0.79980  Biso   1.000  O
  O2       1.0000 0.75240  0.69340  0.70020  Biso   1.000  O
  O3       1.0000 0.25240  0.80660  0.20020  Biso   1.000  O
  O4       1.0000 0.24760  0.30660  0.29980  Biso   1.000  O
  O5       1.0000 0.79950  0.48230  0.75660  Biso   1.000  O
  O6       1.0000 0.70050  0.98230  0.74340  Biso   1.000  O
  O7       1.0000 0.20050  0.51770  0.24340  Biso   1.000  O
  O8       1.0000 0.29950  0.01770  0.25660  Biso   1.000  O
  O9       1.0000 0.58700  0.67500  0.75990  Biso   1.000  O
  O10      1.0000 0.91300  0.17500  0.74010  Biso   1.000  O
  O11      1.0000 0.41300  0.32500  0.24010  Biso   1.000  O
  O12      1.0000 0.08700  0.82500  0.25990  Biso   1.000  O
  O13      1.0000 0.54800  0.23980  0.13930  Biso   1.000  O
  O14      1.0000 0.95200  0.73980  0.36070  Biso   1.000  O
  O15      1.0000 0.45200  0.76020  0.86070  Biso   1.000  O
  O16      1.0000 0.04800  0.26020  0.63930  Biso   1.000  O
  N1       1.0000 0.75410  0.47770  0.93280  Biso   1.000  N
  N2       1.0000 0.74590  0.97770  0.56720  Biso   1.000  N
  N3       1.0000 0.24590  0.52230  0.06720  Biso   1.000  N
  N4       1.0000 0.25410  0.02230  0.43280  Biso   1.000  N
  N5       1.0000 0.58000  0.36100  0.84290  Biso   1.000  N
  N6       1.0000 0.92000  0.86100  0.65710  Biso   1.000  N
  N7       1.0000 0.42000  0.63900  0.15710  Biso   1.000  N
  N8       1.0000 0.08000  0.13900  0.34290  Biso   1.000  N
  N9       1.0000 0.59390  0.38340  0.66620  Biso   1.000  N
  N10      1.0000 0.90610  0.88340  0.83380  Biso   1.000  N
  N11      1.0000 0.40610  0.61660  0.33380  Biso   1.000  N
  N12      1.0000 0.09390  0.11660  0.16620  Biso   1.000  N
  C1       1.0000 0.61360  0.36890  0.58400  Biso   1.000  C
  C2       1.0000 0.88640  0.86890  0.91600  Biso   1.000  C
  C3       1.0000 0.38640  0.63110  0.41600  Biso   1.000  C
  C4       1.0000 0.11360  0.13110  0.08400  Biso   1.000  C
  C5       1.0000 0.54240  0.33540  0.49900  Biso   1.000  C
  C6       1.0000 0.95760  0.83540  0.00100  Biso   1.000  C
  C7       1.0000 0.45760  0.66460  0.50100  Biso   1.000  C
  C8       1.0000 0.04240  0.16460  0.99900  Biso   1.000  C
  C9       1.0000 0.44740  0.31560  0.49740  Biso   1.000  C
  C10      1.0000 0.05260  0.81560  0.00260  Biso   1.000  C
  C11      1.0000 0.55260  0.68440  0.50260  Biso   1.000  C
  C12      1.0000 0.94740  0.18440  0.99740  Biso   1.000  C
  C13      1.0000 0.42720  0.32820  0.58360  Biso   1.000  C
  C14      1.0000 0.07280  0.82820  0.91640  Biso   1.000  C
  C15      1.0000 0.57280  0.67180  0.41640  Biso   1.000  C
  C16      1.0000 0.92720  0.17180  0.08360  Biso   1.000  C
  C17      1.0000 0.50190  0.36250  0.66650  Biso   1.000  C
  C18      1.0000 0.99810  0.86250  0.83350  Biso   1.000  C
  C19      1.0000 0.49810  0.63750  0.33350  Biso   1.000  C
  C20      1.0000 0.00190  0.13750  0.16650  Biso   1.000  C
  C21      1.0000 0.48620  0.38270  0.76100  Biso   1.000  C
  C22      1.0000 0.01380  0.88270  0.73900  Biso   1.000  C
  C23      1.0000 0.51380  0.61730  0.23900  Biso   1.000  C
  C24      1.0000 0.98620  0.11730  0.26100  Biso   1.000  C
  C25      1.0000 0.58760  0.44800  0.92870  Biso   1.000  C
  C26      1.0000 0.91240  0.94800  0.57130  Biso   1.000  C
  C27      1.0000 0.41240  0.55200  0.07130  Biso   1.000  C
  C28      1.0000 0.08760  0.05200  0.42870  Biso   1.000  C
  C29      1.0000 0.69420  0.46890  0.98590  Biso   1.000  C
  C30      1.0000 0.80580  0.96890  0.51410  Biso   1.000  C
  C31      1.0000 0.30580  0.53110  0.01410  Biso   1.000  C
  C32      1.0000 0.19420  0.03110  0.48590  Biso   1.000  C
  C33      1.0000 0.72980  0.48500  0.08510  Biso   1.000  C
  C34      1.0000 0.77020  0.98500  0.41490  Biso   1.000  C
  C35      1.0000 0.27020  0.51500  0.91490  Biso   1.000  C
  C36      1.0000 0.22980  0.01500  0.58510  Biso   1.000  C
  C37      1.0000 0.82790  0.51630  0.13050  Biso   1.000  C
  C38      1.0000 0.67210  0.01630  0.36950  Biso   1.000  C
  C39      1.0000 0.17210  0.48370  0.86950  Biso   1.000  C
  C40      1.0000 0.32790  0.98370  0.63050  Biso   1.000  C
  C41      1.0000 0.88720  0.53040  0.07530  Biso   1.000  C
  C42      1.0000 0.61280  0.03040  0.42470  Biso   1.000  C
  C43      1.0000 0.11280  0.46960  0.92470  Biso   1.000  C
  C44      1.0000 0.38720  0.96960  0.57530  Biso   1.000  C
  C45      1.0000 0.84970  0.50950  0.97730  Biso   1.000  C
  C46      1.0000 0.65030  0.00950  0.52270  Biso   1.000  C
  C47      1.0000 0.15030  0.49050  0.02270  Biso   1.000  C
  C48      1.0000 0.34970  0.99050  0.47730  Biso   1.000  C
  C49      1.0000 0.59260  0.21460  0.87720  Biso   1.000  C
  C50      1.0000 0.90740  0.71460  0.62280  Biso   1.000  C
  C51      1.0000 0.40740  0.78540  0.12280  Biso   1.000  C
  C52      1.0000 0.09260  0.28540  0.37720  Biso   1.000  C
  C53      1.0000 0.59430  0.10620  0.80420  Biso   1.000  C
  C54      1.0000 0.90570  0.60620  0.69580  Biso   1.000  C
  C55      1.0000 0.40570  0.89380  0.19580  Biso   1.000  C
  C56      1.0000 0.09430  0.39380  0.30420  Biso   1.000  C
  C57      1.0000 0.68930  0.09630  0.78160  Biso   1.000  C
  C58      1.0000 0.81070  0.59630  0.71840  Biso   1.000  C
  C59      1.0000 0.31070  0.90370  0.21840  Biso   1.000  C
  C60      1.0000 0.18930  0.40370  0.28160  Biso   1.000  C
  H1       1.0000 0.67968  0.38353  0.58515  Biso   1.000  H
  H2       1.0000 0.82032  0.88353  0.91485  Biso   1.000  H
  H3       1.0000 0.32032  0.61647  0.41485  Biso   1.000  H
  H4       1.0000 0.17968  0.11647  0.08515  Biso   1.000  H
  H5       1.0000 0.55830  0.32460  0.44107  Biso   1.000  H
  H6       1.0000 0.94170  0.82460  0.05893  Biso   1.000  H
  H7       1.0000 0.44170  0.67540  0.55893  Biso   1.000  H
  H8       1.0000 0.05830  0.17540  0.94107  Biso   1.000  H
  H9       1.0000 0.39581  0.29416  0.43831  Biso   1.000  H
  H10      1.0000 0.10419  0.79416  0.06169  Biso   1.000  H
  H11      1.0000 0.60419  0.70584  0.56169  Biso   1.000  H
  H12      1.0000 0.89581  0.20584  0.93831  Biso   1.000  H
  H13      1.0000 0.36219  0.31267  0.58534  Biso   1.000  H
  H14      1.0000 0.13781  0.81267  0.91466  Biso   1.000  H
  H15      1.0000 0.63781  0.68733  0.41466  Biso   1.000  H
  H16      1.0000 0.86219  0.18733  0.08534  Biso   1.000  H
  H17      1.0000 0.46320  0.47449  0.76393  Biso   1.000  H
  H18      1.0000 0.03680  0.97449  0.73607  Biso   1.000  H
  H19      1.0000 0.53680  0.52551  0.23607  Biso   1.000  H
  H20      1.0000 0.96320  0.02551  0.26393  Biso   1.000  H
  H21      1.0000 0.43760  0.31899  0.76643  Biso   1.000  H
  H22      1.0000 0.06240  0.81899  0.73357  Biso   1.000  H
  H23      1.0000 0.56240  0.68101  0.23357  Biso   1.000  H
  H24      1.0000 0.93760  0.18101  0.26643  Biso   1.000  H
  H25      1.0000 0.55480  0.40379  0.96765  Biso   1.000  H
  H26      1.0000 0.94520  0.90379  0.53235  Biso   1.000  H
  H27      1.0000 0.44520  0.59621  0.03235  Biso   1.000  H
  H28      1.0000 0.05480  0.09621  0.46765  Biso   1.000  H
  H29      1.0000 0.55710  0.53519  0.90755  Biso   1.000  H
  H30      1.0000 0.94290  0.03519  0.59245  Biso   1.000  H
  H31      1.0000 0.44290  0.46481  0.09245  Biso   1.000  H
  H32      1.0000 0.05710  0.96481  0.40755  Biso   1.000  H
  H33      1.0000 0.68612  0.47425  0.12142  Biso   1.000  H
  H34      1.0000 0.81388  0.97425  0.37858  Biso   1.000  H
  H35      1.0000 0.31388  0.52575  0.87858  Biso   1.000  H
  H36      1.0000 0.18612  0.02575  0.62142  Biso   1.000  H
  H37      1.0000 0.85364  0.52735  0.19923  Biso   1.000  H
  H38      1.0000 0.64636  0.02735  0.30077  Biso   1.000  H
  H39      1.0000 0.14636  0.47265  0.80077  Biso   1.000  H
  H40      1.0000 0.35364  0.97265  0.69923  Biso   1.000  H
  H41      1.0000 0.95483  0.55606  0.10511  Biso   1.000  H
  H42      1.0000 0.54517  0.05606  0.39489  Biso   1.000  H
  H43      1.0000 0.04517  0.44394  0.89489  Biso   1.000  H
  H44      1.0000 0.45483  0.94394  0.60511  Biso   1.000  H
  H45      1.0000 0.89185  0.51587  0.93913  Biso   1.000  H
  H46      1.0000 0.60815  0.01587  0.56087  Biso   1.000  H
  H47      1.0000 0.10815  0.48413  0.06087  Biso   1.000  H
  H48      1.0000 0.39185  0.98413  0.43913  Biso   1.000  H
  H49      1.0000 0.54084  0.19341  0.90210  Biso   1.000  H
  H50      1.0000 0.95916  0.69341  0.59790  Biso   1.000  H
  H51      1.0000 0.45916  0.80659  0.09790  Biso   1.000  H
  H52      1.0000 0.04084  0.30659  0.40210  Biso   1.000  H
  H53      1.0000 0.65454  0.20871  0.92860  Biso   1.000  H
  H54      1.0000 0.84546  0.70871  0.57140  Biso   1.000  H
  H55      1.0000 0.34546  0.79129  0.07140  Biso   1.000  H
  H56      1.0000 0.15454  0.29129  0.42860  Biso   1.000  H
  H57      1.0000 0.54232  0.12766  0.74548  Biso   1.000  H
  H58      1.0000 0.95768  0.62766  0.75452  Biso   1.000  H
  H59      1.0000 0.45768  0.87234  0.25452  Biso   1.000  H
  H60      1.0000 0.04232  0.37234  0.24548  Biso   1.000  H
  H61      1.0000 0.58142  0.01856  0.82728  Biso   1.000  H
  H62      1.0000 0.91858  0.51856  0.67272  Biso   1.000  H
  H63      1.0000 0.41858  0.98144  0.17272  Biso   1.000  H
  H64      1.0000 0.08142  0.48144  0.32728  Biso   1.000  H
