data_image0
_cell_length_a       10.6165
_cell_length_b       11.1249
_cell_length_c       22.9818
_cell_angle_alpha    90
_cell_angle_beta     93.712
_cell_angle_gamma    90

_symmetry_space_group_name_H-M    "P 1"
_symmetry_int_tables_number       1

loop_
  _symmetry_equiv_pos_as_xyz
  'x, y, z'

loop_
  _atom_site_label
  _atom_site_occupancy
  _atom_site_fract_x
  _atom_site_fract_y
  _atom_site_fract_z
  _atom_site_thermal_displace_type
  _atom_site_B_iso_or_equiv
  _atom_site_type_symbol
  Cu1      1.0000 0.50000  0.22979  0.25000  Biso   1.000  Cu
  Cu2      1.0000 0.00000  0.72979  0.25000  Biso   1.000  Cu
  Cu3      1.0000 0.50000  0.77021  0.75000  Biso   1.000  Cu
  Cu4      1.0000 0.00000  0.27021  0.75000  Biso   1.000  Cu
  O1       1.0000 0.53412  0.22756  0.16688  Biso   1.000  O
  O2       1.0000 0.03412  0.72756  0.16688  Biso   1.000  O
  O3       1.0000 0.46588  0.22756  0.33312  Biso   1.000  O
  O4       1.0000 0.96588  0.72756  0.33312  Biso   1.000  O
  O5       1.0000 0.46588  0.77244  0.83312  Biso   1.000  O
  O6       1.0000 0.96588  0.27244  0.83312  Biso   1.000  O
  O7       1.0000 0.53412  0.77244  0.66688  Biso   1.000  O
  O8       1.0000 0.03412  0.27244  0.66688  Biso   1.000  O
  O9       1.0000 0.32854  0.19613  0.16577  Biso   1.000  O
  O10      1.0000 0.82854  0.69613  0.16577  Biso   1.000  O
  O11      1.0000 0.67146  0.19613  0.33423  Biso   1.000  O
  O12      1.0000 0.17146  0.69613  0.33423  Biso   1.000  O
  O13      1.0000 0.67146  0.80387  0.83423  Biso   1.000  O
  O14      1.0000 0.17146  0.30387  0.83423  Biso   1.000  O
  O15      1.0000 0.32854  0.80387  0.66577  Biso   1.000  O
  O16      1.0000 0.82854  0.30387  0.66577  Biso   1.000  O
  O17      1.0000 0.18288  0.99941  0.08248  Biso   1.000  O
  O18      1.0000 0.68288  0.49941  0.08248  Biso   1.000  O
  O19      1.0000 0.81712  0.99941  0.41752  Biso   1.000  O
  O20      1.0000 0.31712  0.49941  0.41752  Biso   1.000  O
  O21      1.0000 0.81712  0.00059  0.91752  Biso   1.000  O
  O22      1.0000 0.31712  0.50059  0.91752  Biso   1.000  O
  O23      1.0000 0.18288  0.00059  0.58248  Biso   1.000  O
  O24      1.0000 0.68288  0.50059  0.58248  Biso   1.000  O
  O25      1.0000 0.38024  0.93904  0.10655  Biso   1.000  O
  O26      1.0000 0.88024  0.43904  0.10655  Biso   1.000  O
  O27      1.0000 0.61976  0.93904  0.39345  Biso   1.000  O
  O28      1.0000 0.11976  0.43904  0.39345  Biso   1.000  O
  O29      1.0000 0.61976  0.06096  0.89345  Biso   1.000  O
  O30      1.0000 0.11976  0.56096  0.89345  Biso   1.000  O
  O31      1.0000 0.38024  0.06096  0.60655  Biso   1.000  O
  O32      1.0000 0.88024  0.56096  0.60655  Biso   1.000  O
  H1       1.0000 0.34800  0.87800  0.11810  Biso   1.000  H
  H2       1.0000 0.84800  0.37800  0.11810  Biso   1.000  H
  H3       1.0000 0.65200  0.87800  0.38190  Biso   1.000  H
  H4       1.0000 0.15200  0.37800  0.38190  Biso   1.000  H
  H5       1.0000 0.65200  0.12200  0.88190  Biso   1.000  H
  H6       1.0000 0.15200  0.62200  0.88190  Biso   1.000  H
  H7       1.0000 0.34800  0.12200  0.61810  Biso   1.000  H
  H8       1.0000 0.84800  0.62200  0.61810  Biso   1.000  H
  O33      1.0000 0.27870  0.91400  0.97446  Biso   1.000  O
  O34      1.0000 0.77870  0.41400  0.97446  Biso   1.000  O
  O35      1.0000 0.72130  0.91400  0.52554  Biso   1.000  O
  O36      1.0000 0.22130  0.41400  0.52554  Biso   1.000  O
  O37      1.0000 0.72130  0.08600  0.02554  Biso   1.000  O
  O38      1.0000 0.22130  0.58600  0.02554  Biso   1.000  O
  O39      1.0000 0.27870  0.08600  0.47446  Biso   1.000  O
  O40      1.0000 0.77870  0.58600  0.47446  Biso   1.000  O
  O41      1.0000 0.24380  0.03330  0.90151  Biso   1.000  O
  O42      1.0000 0.74380  0.53330  0.90151  Biso   1.000  O
  O43      1.0000 0.75620  0.03330  0.59849  Biso   1.000  O
  O44      1.0000 0.25620  0.53330  0.59849  Biso   1.000  O
  O45      1.0000 0.75620  0.96670  0.09849  Biso   1.000  O
  O46      1.0000 0.25620  0.46670  0.09849  Biso   1.000  O
  O47      1.0000 0.24380  0.96670  0.40151  Biso   1.000  O
  O48      1.0000 0.74380  0.46670  0.40151  Biso   1.000  O
  N1       1.0000 0.28550  0.01270  0.95130  Biso   1.000  N
  N2       1.0000 0.78550  0.51270  0.95130  Biso   1.000  N
  N3       1.0000 0.71450  0.01270  0.54870  Biso   1.000  N
  N4       1.0000 0.21450  0.51270  0.54870  Biso   1.000  N
  N5       1.0000 0.71450  0.98730  0.04870  Biso   1.000  N
  N6       1.0000 0.21450  0.48730  0.04870  Biso   1.000  N
  N7       1.0000 0.28550  0.98730  0.45130  Biso   1.000  N
  N8       1.0000 0.78550  0.48730  0.45130  Biso   1.000  N
  N9       1.0000 0.50000  0.41120  0.25000  Biso   1.000  N
  N10      1.0000 0.00000  0.91120  0.25000  Biso   1.000  N
  N11      1.0000 0.50000  0.58880  0.75000  Biso   1.000  N
  N12      1.0000 0.00000  0.08880  0.75000  Biso   1.000  N
  N13      1.0000 0.50000  0.04870  0.25000  Biso   1.000  N
  N14      1.0000 0.00000  0.54870  0.25000  Biso   1.000  N
  N15      1.0000 0.50000  0.95130  0.75000  Biso   1.000  N
  N16      1.0000 0.00000  0.45130  0.75000  Biso   1.000  N
  C1       1.0000 0.42600  0.20689  0.13996  Biso   1.000  C
  C2       1.0000 0.92600  0.70689  0.13996  Biso   1.000  C
  C3       1.0000 0.57400  0.20689  0.36004  Biso   1.000  C
  C4       1.0000 0.07400  0.70689  0.36004  Biso   1.000  C
  C5       1.0000 0.57400  0.79311  0.86004  Biso   1.000  C
  C6       1.0000 0.07400  0.29311  0.86004  Biso   1.000  C
  C7       1.0000 0.42600  0.79311  0.63996  Biso   1.000  C
  C8       1.0000 0.92600  0.29311  0.63996  Biso   1.000  C
  C9       1.0000 0.42340  0.19800  0.07493  Biso   1.000  C
  C10      1.0000 0.92340  0.69800  0.07493  Biso   1.000  C
  C11      1.0000 0.57660  0.19800  0.42507  Biso   1.000  C
  C12      1.0000 0.07660  0.69800  0.42507  Biso   1.000  C
  C13      1.0000 0.57660  0.80200  0.92507  Biso   1.000  C
  C14      1.0000 0.07660  0.30200  0.92507  Biso   1.000  C
  C15      1.0000 0.42340  0.80200  0.57493  Biso   1.000  C
  C16      1.0000 0.92340  0.30200  0.57493  Biso   1.000  C
  C17      1.0000 0.48180  0.28750  0.04365  Biso   1.000  C
  C18      1.0000 0.98180  0.78750  0.04365  Biso   1.000  C
  C19      1.0000 0.51820  0.28750  0.45635  Biso   1.000  C
  C20      1.0000 0.01820  0.78750  0.45635  Biso   1.000  C
  C21      1.0000 0.51820  0.71250  0.95635  Biso   1.000  C
  C22      1.0000 0.01820  0.21250  0.95635  Biso   1.000  C
  C23      1.0000 0.48180  0.71250  0.54365  Biso   1.000  C
  C24      1.0000 0.98180  0.21250  0.54365  Biso   1.000  C
  H9       1.0000 0.52970  0.34630  0.06350  Biso   1.000  H
  H10      1.0000 0.02970  0.84630  0.06350  Biso   1.000  H
  H11      1.0000 0.47030  0.34630  0.43650  Biso   1.000  H
  H12      1.0000 0.97030  0.84630  0.43650  Biso   1.000  H
  H13      1.0000 0.47030  0.65370  0.93650  Biso   1.000  H
  H14      1.0000 0.97030  0.15370  0.93650  Biso   1.000  H
  H15      1.0000 0.52970  0.65370  0.56350  Biso   1.000  H
  H16      1.0000 0.02970  0.15370  0.56350  Biso   1.000  H
  C25      1.0000 0.46900  0.28920  0.98373  Biso   1.000  C
  C26      1.0000 0.96900  0.78920  0.98373  Biso   1.000  C
  C27      1.0000 0.53100  0.28920  0.51627  Biso   1.000  C
  C28      1.0000 0.03100  0.78920  0.51627  Biso   1.000  C
  C29      1.0000 0.53100  0.71080  0.01627  Biso   1.000  C
  C30      1.0000 0.03100  0.21080  0.01627  Biso   1.000  C
  C31      1.0000 0.46900  0.71080  0.48373  Biso   1.000  C
  C32      1.0000 0.96900  0.21080  0.48373  Biso   1.000  C
  H17      1.0000 0.50630  0.35040  0.96330  Biso   1.000  H
  H18      1.0000 0.00630  0.85040  0.96330  Biso   1.000  H
  H19      1.0000 0.49370  0.35040  0.53670  Biso   1.000  H
  H20      1.0000 0.99370  0.85040  0.53670  Biso   1.000  H
  H21      1.0000 0.49370  0.64960  0.03670  Biso   1.000  H
  H22      1.0000 0.99370  0.14960  0.03670  Biso   1.000  H
  H23      1.0000 0.50630  0.64960  0.46330  Biso   1.000  H
  H24      1.0000 0.00630  0.14960  0.46330  Biso   1.000  H
  C33      1.0000 0.40140  0.20110  0.95397  Biso   1.000  C
  C34      1.0000 0.90140  0.70110  0.95397  Biso   1.000  C
  C35      1.0000 0.59860  0.20110  0.54603  Biso   1.000  C
  C36      1.0000 0.09860  0.70110  0.54603  Biso   1.000  C
  C37      1.0000 0.59860  0.79890  0.04603  Biso   1.000  C
  C38      1.0000 0.09860  0.29890  0.04603  Biso   1.000  C
  C39      1.0000 0.40140  0.79890  0.45397  Biso   1.000  C
  C40      1.0000 0.90140  0.29890  0.45397  Biso   1.000  C
  H25      1.0000 0.39070  0.20300  0.91350  Biso   1.000  H
  H26      1.0000 0.89070  0.70300  0.91350  Biso   1.000  H
  H27      1.0000 0.60930  0.20300  0.58650  Biso   1.000  H
  H28      1.0000 0.10930  0.70300  0.58650  Biso   1.000  H
  H29      1.0000 0.60930  0.79700  0.08650  Biso   1.000  H
  H30      1.0000 0.10930  0.29700  0.08650  Biso   1.000  H
  H31      1.0000 0.39070  0.79700  0.41350  Biso   1.000  H
  H32      1.0000 0.89070  0.29700  0.41350  Biso   1.000  H
  C41      1.0000 0.34970  0.11010  0.98508  Biso   1.000  C
  C42      1.0000 0.84970  0.61010  0.98508  Biso   1.000  C
  C43      1.0000 0.65030  0.11010  0.51492  Biso   1.000  C
  C44      1.0000 0.15030  0.61010  0.51492  Biso   1.000  C
  C45      1.0000 0.65030  0.88990  0.01492  Biso   1.000  C
  C46      1.0000 0.15030  0.38990  0.01492  Biso   1.000  C
  C47      1.0000 0.34970  0.88990  0.48508  Biso   1.000  C
  C48      1.0000 0.84970  0.38990  0.48508  Biso   1.000  C
  C49      1.0000 0.35670  0.10600  0.04584  Biso   1.000  C
  C50      1.0000 0.85670  0.60600  0.04584  Biso   1.000  C
  C51      1.0000 0.64330  0.10600  0.45416  Biso   1.000  C
  C52      1.0000 0.14330  0.60600  0.45416  Biso   1.000  C
  C53      1.0000 0.64330  0.89400  0.95416  Biso   1.000  C
  C54      1.0000 0.14330  0.39400  0.95416  Biso   1.000  C
  C55      1.0000 0.35670  0.89400  0.54584  Biso   1.000  C
  C56      1.0000 0.85670  0.39400  0.54584  Biso   1.000  C
  C57      1.0000 0.29480  0.00920  0.07960  Biso   1.000  C
  C58      1.0000 0.79480  0.50920  0.07960  Biso   1.000  C
  C59      1.0000 0.70520  0.00920  0.42040  Biso   1.000  C
  C60      1.0000 0.20520  0.50920  0.42040  Biso   1.000  C
  C61      1.0000 0.70520  0.99080  0.92040  Biso   1.000  C
  C62      1.0000 0.20520  0.49080  0.92040  Biso   1.000  C
  C63      1.0000 0.29480  0.99080  0.57960  Biso   1.000  C
  C64      1.0000 0.79480  0.49080  0.57960  Biso   1.000  C
  C65      1.0000 0.56050  0.47461  0.21062  Biso   1.000  C
  C66      1.0000 0.06050  0.97461  0.21062  Biso   1.000  C
  C67      1.0000 0.43950  0.47461  0.28938  Biso   1.000  C
  C68      1.0000 0.93950  0.97461  0.28938  Biso   1.000  C
  C69      1.0000 0.43950  0.52539  0.78938  Biso   1.000  C
  C70      1.0000 0.93950  0.02539  0.78938  Biso   1.000  C
  C71      1.0000 0.56050  0.52539  0.71062  Biso   1.000  C
  C72      1.0000 0.06050  0.02539  0.71062  Biso   1.000  C
  H33      1.0000 0.60290  0.43300  0.18270  Biso   1.000  H
  H34      1.0000 0.10290  0.93300  0.18270  Biso   1.000  H
  H35      1.0000 0.39710  0.43300  0.31730  Biso   1.000  H
  H36      1.0000 0.89710  0.93300  0.31730  Biso   1.000  H
  H37      1.0000 0.39710  0.56700  0.81730  Biso   1.000  H
  H38      1.0000 0.89710  0.06700  0.81730  Biso   1.000  H
  H39      1.0000 0.60290  0.56700  0.68270  Biso   1.000  H
  H40      1.0000 0.10290  0.06700  0.68270  Biso   1.000  H
  C73      1.0000 0.56280  0.59839  0.20957  Biso   1.000  C
  C74      1.0000 0.06280  0.09839  0.20957  Biso   1.000  C
  C75      1.0000 0.43720  0.59839  0.29043  Biso   1.000  C
  C76      1.0000 0.93720  0.09839  0.29043  Biso   1.000  C
  C77      1.0000 0.43720  0.40161  0.79043  Biso   1.000  C
  C78      1.0000 0.93720  0.90161  0.79043  Biso   1.000  C
  C79      1.0000 0.56280  0.40161  0.70957  Biso   1.000  C
  C80      1.0000 0.06280  0.90161  0.70957  Biso   1.000  C
  H41      1.0000 0.60670  0.63810  0.18160  Biso   1.000  H
  H42      1.0000 0.10670  0.13810  0.18160  Biso   1.000  H
  H43      1.0000 0.39330  0.63810  0.31840  Biso   1.000  H
  H44      1.0000 0.89330  0.13810  0.31840  Biso   1.000  H
  H45      1.0000 0.39330  0.36190  0.81840  Biso   1.000  H
  H46      1.0000 0.89330  0.86190  0.81840  Biso   1.000  H
  H47      1.0000 0.60670  0.36190  0.68160  Biso   1.000  H
  H48      1.0000 0.10670  0.86190  0.68160  Biso   1.000  H
  C81      1.0000 0.50000  0.66400  0.25000  Biso   1.000  C
  C82      1.0000 0.00000  0.16400  0.25000  Biso   1.000  C
  C83      1.0000 0.50000  0.33600  0.75000  Biso   1.000  C
  C84      1.0000 0.00000  0.83600  0.75000  Biso   1.000  C
  C85      1.0000 0.50000  0.79700  0.25000  Biso   1.000  C
  C86      1.0000 0.00000  0.29700  0.25000  Biso   1.000  C
  C87      1.0000 0.50000  0.20300  0.75000  Biso   1.000  C
  C88      1.0000 0.00000  0.70300  0.75000  Biso   1.000  C
  C89      1.0000 0.40110  0.86257  0.27084  Biso   1.000  C
  C90      1.0000 0.90110  0.36257  0.27084  Biso   1.000  C
  C91      1.0000 0.59890  0.86257  0.22916  Biso   1.000  C
  C92      1.0000 0.09890  0.36257  0.22916  Biso   1.000  C
  C93      1.0000 0.59890  0.13743  0.72916  Biso   1.000  C
  C94      1.0000 0.09890  0.63743  0.72916  Biso   1.000  C
  C95      1.0000 0.40110  0.13743  0.77084  Biso   1.000  C
  C96      1.0000 0.90110  0.63743  0.77084  Biso   1.000  C
  H49      1.0000 0.33240  0.82290  0.28520  Biso   1.000  H
  H50      1.0000 0.83240  0.32290  0.28520  Biso   1.000  H
  H51      1.0000 0.66760  0.82290  0.21480  Biso   1.000  H
  H52      1.0000 0.16760  0.32290  0.21480  Biso   1.000  H
  H53      1.0000 0.66760  0.17710  0.71480  Biso   1.000  H
  H54      1.0000 0.16760  0.67710  0.71480  Biso   1.000  H
  H55      1.0000 0.33240  0.17710  0.78520  Biso   1.000  H
  H56      1.0000 0.83240  0.67710  0.78520  Biso   1.000  H
  C97      1.0000 0.40470  0.98615  0.27025  Biso   1.000  C
  C98      1.0000 0.90470  0.48615  0.27025  Biso   1.000  C
  C99      1.0000 0.59530  0.98615  0.22975  Biso   1.000  C
  C100     1.0000 0.09530  0.48615  0.22975  Biso   1.000  C
  C101     1.0000 0.59530  0.01385  0.72975  Biso   1.000  C
  C102     1.0000 0.09530  0.51385  0.72975  Biso   1.000  C
  C103     1.0000 0.40470  0.01385  0.77025  Biso   1.000  C
  C104     1.0000 0.90470  0.51385  0.77025  Biso   1.000  C
  H57      1.0000 0.66240  0.02820  0.21540  Biso   1.000  H
  H58      1.0000 0.16240  0.52820  0.21540  Biso   1.000  H
  H59      1.0000 0.33760  0.02820  0.28460  Biso   1.000  H
  H60      1.0000 0.83760  0.52820  0.28460  Biso   1.000  H
  H61      1.0000 0.33760  0.97180  0.78460  Biso   1.000  H
  H62      1.0000 0.83760  0.47180  0.78460  Biso   1.000  H
  H63      1.0000 0.66240  0.97180  0.71540  Biso   1.000  H
  H64      1.0000 0.16240  0.47180  0.71540  Biso   1.000  H
  O49      1.0000 0.21590  0.23475  0.35906  Biso   1.000  O
  O50      1.0000 0.71590  0.73475  0.35906  Biso   1.000  O
  O51      1.0000 0.78410  0.23475  0.14094  Biso   1.000  O
  O52      1.0000 0.28410  0.73475  0.14094  Biso   1.000  O
  O53      1.0000 0.78410  0.76525  0.64094  Biso   1.000  O
  O54      1.0000 0.28410  0.26525  0.64094  Biso   1.000  O
  O55      1.0000 0.21590  0.76525  0.85906  Biso   1.000  O
  O56      1.0000 0.71590  0.26525  0.85906  Biso   1.000  O
  H65      1.0000 0.28400  0.23500  0.35730  Biso   1.000  H
  H66      1.0000 0.78400  0.73500  0.35730  Biso   1.000  H
  H67      1.0000 0.71600  0.23500  0.14270  Biso   1.000  H
  H68      1.0000 0.21600  0.73500  0.14270  Biso   1.000  H
  H69      1.0000 0.71600  0.76500  0.64270  Biso   1.000  H
  H70      1.0000 0.21600  0.26500  0.64270  Biso   1.000  H
  H71      1.0000 0.28400  0.76500  0.85730  Biso   1.000  H
  H72      1.0000 0.78400  0.26500  0.85730  Biso   1.000  H
  H73      1.0000 0.19800  0.18500  0.38350  Biso   1.000  H
  H74      1.0000 0.69800  0.68500  0.38350  Biso   1.000  H
  H75      1.0000 0.80200  0.18500  0.11650  Biso   1.000  H
  H76      1.0000 0.30200  0.68500  0.11650  Biso   1.000  H
  H77      1.0000 0.80200  0.81500  0.61650  Biso   1.000  H
  H78      1.0000 0.30200  0.31500  0.61650  Biso   1.000  H
  H79      1.0000 0.19800  0.81500  0.88350  Biso   1.000  H
  H80      1.0000 0.69800  0.31500  0.88350  Biso   1.000  H
