data_image0
_cell_length_a       8.589
_cell_length_b       20.712
_cell_length_c       9.214
_cell_angle_alpha    90
_cell_angle_beta     90
_cell_angle_gamma    90

_symmetry_space_group_name_H-M    "P 1"
_symmetry_int_tables_number       1

loop_
  _symmetry_equiv_pos_as_xyz
  'x, y, z'

loop_
  _atom_site_label
  _atom_site_occupancy
  _atom_site_fract_x
  _atom_site_fract_y
  _atom_site_fract_z
  _atom_site_thermal_displace_type
  _atom_site_B_iso_or_equiv
  _atom_site_type_symbol
  Cu1      1.0000 0.43514  0.42742  0.41000  Biso   1.000  Cu
  Cu2      1.0000 0.56486  0.57258  0.91000  Biso   1.000  Cu
  Cu3      1.0000 0.93514  0.07258  0.41000  Biso   1.000  Cu
  Cu4      1.0000 0.06486  0.92742  0.91000  Biso   1.000  Cu
  S1       1.0000 0.62069  0.34496  0.43727  Biso   1.000  S
  S2       1.0000 0.37931  0.65504  0.93727  Biso   1.000  S
  S3       1.0000 0.12069  0.15504  0.43727  Biso   1.000  S
  S4       1.0000 0.87931  0.84496  0.93727  Biso   1.000  S
  O1       1.0000 0.37930  0.50362  0.80442  Biso   1.000  O
  O2       1.0000 0.62070  0.49638  0.30442  Biso   1.000  O
  O3       1.0000 0.87930  0.99638  0.80442  Biso   1.000  O
  O4       1.0000 0.12070  0.00362  0.30442  Biso   1.000  O
  O5       1.0000 0.39780  0.39248  0.20970  Biso   1.000  O
  O6       1.0000 0.60220  0.60752  0.70970  Biso   1.000  O
  O7       1.0000 0.89780  0.10752  0.20970  Biso   1.000  O
  O8       1.0000 0.10220  0.89248  0.70970  Biso   1.000  O
  O9       1.0000 0.23280  0.32565  0.11120  Biso   1.000  O
  O10      1.0000 0.76720  0.67435  0.61120  Biso   1.000  O
  O11      1.0000 0.73280  0.17435  0.11120  Biso   1.000  O
  O12      1.0000 0.26720  0.82565  0.61120  Biso   1.000  O
  O13      1.0000 0.19280  0.36205  0.32780  Biso   1.000  O
  O14      1.0000 0.80720  0.63795  0.82780  Biso   1.000  O
  O15      1.0000 0.69280  0.13795  0.32780  Biso   1.000  O
  O16      1.0000 0.30720  0.86205  0.82780  Biso   1.000  O
  N1       1.0000 0.28460  0.50276  0.42960  Biso   1.000  N
  N2       1.0000 0.71540  0.49724  0.92960  Biso   1.000  N
  N3       1.0000 0.78460  0.99724  0.42960  Biso   1.000  N
  N4       1.0000 0.21540  0.00276  0.92960  Biso   1.000  N
  N5       1.0000 0.43480  0.43043  0.61940  Biso   1.000  N
  N6       1.0000 0.56520  0.56957  0.11940  Biso   1.000  N
  N7       1.0000 0.93480  0.06957  0.61940  Biso   1.000  N
  N8       1.0000 0.06520  0.93043  0.11940  Biso   1.000  N
  N9       1.0000 0.27020  0.35886  0.21550  Biso   1.000  N
  N10      1.0000 0.72980  0.64114  0.71550  Biso   1.000  N
  N11      1.0000 0.77020  0.14114  0.21550  Biso   1.000  N
  N12      1.0000 0.22980  0.85886  0.71550  Biso   1.000  N
  C1       1.0000 0.27910  0.52191  0.56780  Biso   1.000  C
  C2       1.0000 0.72090  0.47809  0.06780  Biso   1.000  C
  C3       1.0000 0.77910  0.97809  0.56780  Biso   1.000  C
  C4       1.0000 0.22090  0.02191  0.06780  Biso   1.000  C
  C5       1.0000 0.18510  0.57329  0.61530  Biso   1.000  C
  C6       1.0000 0.81490  0.42671  0.11530  Biso   1.000  C
  C7       1.0000 0.68510  0.92671  0.61530  Biso   1.000  C
  C8       1.0000 0.31490  0.07329  0.11530  Biso   1.000  C
  H1       1.0000 0.18770  0.58670  0.71390  Biso   1.000  H
  H2       1.0000 0.81230  0.41330  0.21390  Biso   1.000  H
  H3       1.0000 0.68770  0.91330  0.71390  Biso   1.000  H
  H4       1.0000 0.31230  0.08670  0.21390  Biso   1.000  H
  C9       1.0000 0.08980  0.60369  0.51780  Biso   1.000  C
  C10      1.0000 0.91020  0.39631  0.01780  Biso   1.000  C
  C11      1.0000 0.58980  0.89631  0.51780  Biso   1.000  C
  C12      1.0000 0.41020  0.10369  0.01780  Biso   1.000  C
  H5       1.0000 0.02420  0.63800  0.54840  Biso   1.000  H
  H6       1.0000 0.97580  0.36200  0.04840  Biso   1.000  H
  H7       1.0000 0.52420  0.86200  0.54840  Biso   1.000  H
  H8       1.0000 0.47580  0.13800  0.04840  Biso   1.000  H
  C13      1.0000 0.08970  0.58374  0.37210  Biso   1.000  C
  C14      1.0000 0.91030  0.41626  0.87210  Biso   1.000  C
  C15      1.0000 0.58970  0.91626  0.37210  Biso   1.000  C
  C16      1.0000 0.41030  0.08374  0.87210  Biso   1.000  C
  C17      1.0000 0.19380  0.53374  0.32840  Biso   1.000  C
  C18      1.0000 0.80620  0.46626  0.82840  Biso   1.000  C
  C19      1.0000 0.69380  0.96626  0.32840  Biso   1.000  C
  C20      1.0000 0.30620  0.03374  0.82840  Biso   1.000  C
  C21      1.0000 0.99110  0.61228  0.26670  Biso   1.000  C
  C22      1.0000 0.00890  0.38772  0.76670  Biso   1.000  C
  C23      1.0000 0.49110  0.88772  0.26670  Biso   1.000  C
  C24      1.0000 0.50890  0.11228  0.76670  Biso   1.000  C
  H9       1.0000 0.91910  0.64470  0.29530  Biso   1.000  H
  H10      1.0000 0.08090  0.35530  0.79530  Biso   1.000  H
  H11      1.0000 0.41910  0.85530  0.29530  Biso   1.000  H
  H12      1.0000 0.58090  0.14470  0.79530  Biso   1.000  H
  C25      1.0000 0.99810  0.59389  0.12520  Biso   1.000  C
  C26      1.0000 0.00190  0.40611  0.62520  Biso   1.000  C
  C27      1.0000 0.49810  0.90611  0.12520  Biso   1.000  C
  C28      1.0000 0.50190  0.09389  0.62520  Biso   1.000  C
  H13      1.0000 0.93070  0.61310  0.05590  Biso   1.000  H
  H14      1.0000 0.06930  0.38690  0.55590  Biso   1.000  H
  H15      1.0000 0.43070  0.88690  0.05590  Biso   1.000  H
  H16      1.0000 0.56930  0.11310  0.55590  Biso   1.000  H
  C29      1.0000 0.10610  0.54601  0.08120  Biso   1.000  C
  C30      1.0000 0.89390  0.45399  0.58120  Biso   1.000  C
  C31      1.0000 0.60610  0.95399  0.08120  Biso   1.000  C
  C32      1.0000 0.39390  0.04601  0.58120  Biso   1.000  C
  H17      1.0000 0.11280  0.53430  0.98170  Biso   1.000  H
  H18      1.0000 0.88720  0.46570  0.48170  Biso   1.000  H
  H19      1.0000 0.61280  0.96570  0.98170  Biso   1.000  H
  H20      1.0000 0.38720  0.03430  0.48170  Biso   1.000  H
  C33      1.0000 0.20110  0.51639  0.18050  Biso   1.000  C
  C34      1.0000 0.79890  0.48361  0.68050  Biso   1.000  C
  C35      1.0000 0.70110  0.98361  0.18050  Biso   1.000  C
  C36      1.0000 0.29890  0.01639  0.68050  Biso   1.000  C
  H21      1.0000 0.27220  0.48400  0.14960  Biso   1.000  H
  H22      1.0000 0.72780  0.51600  0.64960  Biso   1.000  H
  H23      1.0000 0.77220  0.01600  0.14960  Biso   1.000  H
  H24      1.0000 0.22780  0.98400  0.64960  Biso   1.000  H
  C37      1.0000 0.37220  0.48403  0.67700  Biso   1.000  C
  C38      1.0000 0.62780  0.51597  0.17700  Biso   1.000  C
  C39      1.0000 0.87220  0.01597  0.67700  Biso   1.000  C
  C40      1.0000 0.12780  0.98403  0.17700  Biso   1.000  C
  C41      1.0000 0.50760  0.38173  0.70230  Biso   1.000  C
  C42      1.0000 0.49240  0.61827  0.20230  Biso   1.000  C
  C43      1.0000 0.00760  0.11827  0.70230  Biso   1.000  C
  C44      1.0000 0.99240  0.88173  0.20230  Biso   1.000  C
  C45      1.0000 0.60210  0.33727  0.62810  Biso   1.000  C
  C46      1.0000 0.39790  0.66273  0.12810  Biso   1.000  C
  C47      1.0000 0.10210  0.16273  0.62810  Biso   1.000  C
  C48      1.0000 0.89790  0.83727  0.12810  Biso   1.000  C
  C49      1.0000 0.68020  0.28776  0.70010  Biso   1.000  C
  C50      1.0000 0.31980  0.71224  0.20010  Biso   1.000  C
  C51      1.0000 0.18020  0.21224  0.70010  Biso   1.000  C
  C52      1.0000 0.81980  0.78776  0.20010  Biso   1.000  C
  H25      1.0000 0.74650  0.25930  0.64790  Biso   1.000  H
  H26      1.0000 0.25350  0.74070  0.14790  Biso   1.000  H
  H27      1.0000 0.24650  0.24070  0.64790  Biso   1.000  H
  H28      1.0000 0.75350  0.75930  0.14790  Biso   1.000  H
  C53      1.0000 0.66050  0.28028  0.84790  Biso   1.000  C
  C54      1.0000 0.33950  0.71972  0.34790  Biso   1.000  C
  C55      1.0000 0.16050  0.21972  0.84790  Biso   1.000  C
  C56      1.0000 0.83950  0.78028  0.34790  Biso   1.000  C
  H29      1.0000 0.71410  0.24710  0.89850  Biso   1.000  H
  H30      1.0000 0.28590  0.75290  0.39850  Biso   1.000  H
  H31      1.0000 0.21410  0.25290  0.89850  Biso   1.000  H
  H32      1.0000 0.78590  0.74710  0.39850  Biso   1.000  H
  C57      1.0000 0.56160  0.32187  0.92140  Biso   1.000  C
  C58      1.0000 0.43840  0.67813  0.42140  Biso   1.000  C
  C59      1.0000 0.06160  0.17813  0.92140  Biso   1.000  C
  C60      1.0000 0.93840  0.82187  0.42140  Biso   1.000  C
  H33      1.0000 0.54480  0.31560  0.02240  Biso   1.000  H
  H34      1.0000 0.45520  0.68440  0.52240  Biso   1.000  H
  H35      1.0000 0.04480  0.18440  0.02240  Biso   1.000  H
  H36      1.0000 0.95520  0.81560  0.52240  Biso   1.000  H
  C61      1.0000 0.48680  0.37219  0.85160  Biso   1.000  C
  C62      1.0000 0.51320  0.62781  0.35160  Biso   1.000  C
  C63      1.0000 0.98680  0.12781  0.85160  Biso   1.000  C
  C64      1.0000 0.01320  0.87219  0.35160  Biso   1.000  C
  H37      1.0000 0.42100  0.40040  0.90510  Biso   1.000  H
  H38      1.0000 0.57900  0.59960  0.40510  Biso   1.000  H
  H39      1.0000 0.92100  0.09960  0.90510  Biso   1.000  H
  H40      1.0000 0.07900  0.90040  0.40510  Biso   1.000  H
  C65      1.0000 0.51910  0.27279  0.37870  Biso   1.000  C
  C66      1.0000 0.48090  0.72721  0.87870  Biso   1.000  C
  C67      1.0000 0.01910  0.22721  0.37870  Biso   1.000  C
  C68      1.0000 0.98090  0.77279  0.87870  Biso   1.000  C
  H41      1.0000 0.41160  0.27400  0.41420  Biso   1.000  H
  H42      1.0000 0.58840  0.72600  0.91420  Biso   1.000  H
  H43      1.0000 0.91160  0.22600  0.41420  Biso   1.000  H
  H44      1.0000 0.08840  0.77400  0.91420  Biso   1.000  H
  H45      1.0000 0.57190  0.23460  0.41770  Biso   1.000  H
  H46      1.0000 0.42810  0.76540  0.91770  Biso   1.000  H
  H47      1.0000 0.07190  0.26540  0.41770  Biso   1.000  H
  H48      1.0000 0.92810  0.73460  0.91770  Biso   1.000  H
  H49      1.0000 0.51900  0.27080  0.27240  Biso   1.000  H
  H50      1.0000 0.48100  0.72920  0.77240  Biso   1.000  H
  H51      1.0000 0.01900  0.22920  0.27240  Biso   1.000  H
  H52      1.0000 0.98100  0.77080  0.77240  Biso   1.000  H
