data_image0
_cell_length_a       12.5664
_cell_length_b       11.5338
_cell_length_c       11.5227
_cell_angle_alpha    90
_cell_angle_beta     97.726
_cell_angle_gamma    90

_symmetry_space_group_name_H-M    "P 1"
_symmetry_int_tables_number       1

loop_
  _symmetry_equiv_pos_as_xyz
  'x, y, z'

loop_
  _atom_site_label
  _atom_site_occupancy
  _atom_site_fract_x
  _atom_site_fract_y
  _atom_site_fract_z
  _atom_site_thermal_displace_type
  _atom_site_B_iso_or_equiv
  _atom_site_type_symbol
  C1       1.0000 0.28147  0.24243  0.25867  Biso   1.000  C
  C2       1.0000 0.71853  0.24243  0.24133  Biso   1.000  C
  C3       1.0000 0.78147  0.74243  0.25867  Biso   1.000  C
  C4       1.0000 0.21853  0.74243  0.24133  Biso   1.000  C
  C5       1.0000 0.71853  0.75757  0.74133  Biso   1.000  C
  C6       1.0000 0.28147  0.75757  0.75867  Biso   1.000  C
  C7       1.0000 0.21853  0.25757  0.74133  Biso   1.000  C
  C8       1.0000 0.78147  0.25757  0.75867  Biso   1.000  C
  H1       1.0000 0.28830  0.18830  0.20030  Biso   1.000  H
  H2       1.0000 0.71170  0.18830  0.29970  Biso   1.000  H
  H3       1.0000 0.78830  0.68830  0.20030  Biso   1.000  H
  H4       1.0000 0.21170  0.68830  0.29970  Biso   1.000  H
  H5       1.0000 0.71170  0.81170  0.79970  Biso   1.000  H
  H6       1.0000 0.28830  0.81170  0.70030  Biso   1.000  H
  H7       1.0000 0.21170  0.31170  0.79970  Biso   1.000  H
  H8       1.0000 0.78830  0.31170  0.70030  Biso   1.000  H
  C9       1.0000 0.31583  0.37899  0.38631  Biso   1.000  C
  C10      1.0000 0.68417  0.37899  0.11369  Biso   1.000  C
  C11      1.0000 0.81583  0.87899  0.38631  Biso   1.000  C
  C12      1.0000 0.18417  0.87899  0.11369  Biso   1.000  C
  C13      1.0000 0.68417  0.62101  0.61369  Biso   1.000  C
  C14      1.0000 0.31583  0.62101  0.88631  Biso   1.000  C
  C15      1.0000 0.18417  0.12101  0.61369  Biso   1.000  C
  C16      1.0000 0.81583  0.12101  0.88631  Biso   1.000  C
  H9       1.0000 0.35220  0.43650  0.43220  Biso   1.000  H
  H10      1.0000 0.64780  0.43650  0.06780  Biso   1.000  H
  H11      1.0000 0.85220  0.93650  0.43220  Biso   1.000  H
  H12      1.0000 0.14780  0.93650  0.06780  Biso   1.000  H
  H13      1.0000 0.64780  0.56350  0.56780  Biso   1.000  H
  H14      1.0000 0.35220  0.56350  0.93220  Biso   1.000  H
  H15      1.0000 0.14780  0.06350  0.56780  Biso   1.000  H
  H16      1.0000 0.85220  0.06350  0.93220  Biso   1.000  H
  C17      1.0000 0.21328  0.34560  0.39093  Biso   1.000  C
  C18      1.0000 0.78672  0.34560  0.10907  Biso   1.000  C
  C19      1.0000 0.71328  0.84560  0.39093  Biso   1.000  C
  C20      1.0000 0.28672  0.84560  0.10907  Biso   1.000  C
  C21      1.0000 0.78672  0.65440  0.60907  Biso   1.000  C
  C22      1.0000 0.21328  0.65440  0.89093  Biso   1.000  C
  C23      1.0000 0.28672  0.15440  0.60907  Biso   1.000  C
  C24      1.0000 0.71328  0.15440  0.89093  Biso   1.000  C
  H17      1.0000 0.16630  0.37550  0.43920  Biso   1.000  H
  H18      1.0000 0.83370  0.37550  0.06080  Biso   1.000  H
  H19      1.0000 0.66630  0.87550  0.43920  Biso   1.000  H
  H20      1.0000 0.33370  0.87550  0.06080  Biso   1.000  H
  H21      1.0000 0.83370  0.62450  0.56080  Biso   1.000  H
  H22      1.0000 0.16630  0.62450  0.93920  Biso   1.000  H
  H23      1.0000 0.33370  0.12450  0.56080  Biso   1.000  H
  H24      1.0000 0.66630  0.12450  0.93920  Biso   1.000  H
  C25      1.0000 0.09093  0.07856  0.28129  Biso   1.000  C
  C26      1.0000 0.90907  0.07856  0.21871  Biso   1.000  C
  C27      1.0000 0.59093  0.57856  0.28129  Biso   1.000  C
  C28      1.0000 0.40907  0.57856  0.21871  Biso   1.000  C
  C29      1.0000 0.90907  0.92144  0.71871  Biso   1.000  C
  C30      1.0000 0.09093  0.92144  0.78129  Biso   1.000  C
  C31      1.0000 0.40907  0.42144  0.71871  Biso   1.000  C
  C32      1.0000 0.59093  0.42144  0.78129  Biso   1.000  C
  H25      1.0000 0.15430  0.03820  0.30470  Biso   1.000  H
  H26      1.0000 0.84570  0.03820  0.19530  Biso   1.000  H
  H27      1.0000 0.65430  0.53820  0.30470  Biso   1.000  H
  H28      1.0000 0.34570  0.53820  0.19530  Biso   1.000  H
  H29      1.0000 0.84570  0.96180  0.69530  Biso   1.000  H
  H30      1.0000 0.15430  0.96180  0.80470  Biso   1.000  H
  H31      1.0000 0.34570  0.46180  0.69530  Biso   1.000  H
  H32      1.0000 0.65430  0.46180  0.80470  Biso   1.000  H
  C33      1.0000 0.09319  0.19797  0.27980  Biso   1.000  C
  C34      1.0000 0.90681  0.19797  0.22020  Biso   1.000  C
  C35      1.0000 0.59319  0.69797  0.27980  Biso   1.000  C
  C36      1.0000 0.40681  0.69797  0.22020  Biso   1.000  C
  C37      1.0000 0.90681  0.80203  0.72020  Biso   1.000  C
  C38      1.0000 0.09319  0.80203  0.77980  Biso   1.000  C
  C39      1.0000 0.40681  0.30203  0.72020  Biso   1.000  C
  C40      1.0000 0.59319  0.30203  0.77980  Biso   1.000  C
  C41      1.0000 0.00000  0.26060  0.25000  Biso   1.000  C
  C42      1.0000 0.50000  0.76060  0.25000  Biso   1.000  C
  C43      1.0000 0.00000  0.73940  0.75000  Biso   1.000  C
  C44      1.0000 0.50000  0.23940  0.75000  Biso   1.000  C
  H33      1.0000 0.00000  0.34120  0.25000  Biso   1.000  H
  H34      1.0000 0.50000  0.84120  0.25000  Biso   1.000  H
  H35      1.0000 0.00000  0.65880  0.75000  Biso   1.000  H
  H36      1.0000 0.50000  0.15880  0.75000  Biso   1.000  H
  Cu1      1.0000 0.50000  0.32395  0.25000  Biso   1.000  Cu
  Cu2      1.0000 0.00000  0.82395  0.25000  Biso   1.000  Cu
  Cu3      1.0000 0.50000  0.67605  0.75000  Biso   1.000  Cu
  Cu4      1.0000 0.00000  0.17605  0.75000  Biso   1.000  Cu
  N1       1.0000 0.35773  0.31429  0.30289  Biso   1.000  N
  N2       1.0000 0.64227  0.31429  0.19711  Biso   1.000  N
  N3       1.0000 0.85773  0.81429  0.30289  Biso   1.000  N
  N4       1.0000 0.14227  0.81429  0.19711  Biso   1.000  N
  N5       1.0000 0.64227  0.68571  0.69711  Biso   1.000  N
  N6       1.0000 0.35773  0.68571  0.80289  Biso   1.000  N
  N7       1.0000 0.14227  0.18571  0.69711  Biso   1.000  N
  N8       1.0000 0.85773  0.18571  0.80289  Biso   1.000  N
  N9       1.0000 0.19261  0.25823  0.30956  Biso   1.000  N
  N10      1.0000 0.80739  0.25823  0.19044  Biso   1.000  N
  N11      1.0000 0.69261  0.75823  0.30956  Biso   1.000  N
  N12      1.0000 0.30739  0.75823  0.19044  Biso   1.000  N
  N13      1.0000 0.80739  0.74177  0.69044  Biso   1.000  N
  N14      1.0000 0.19261  0.74177  0.80956  Biso   1.000  N
  N15      1.0000 0.30739  0.24177  0.69044  Biso   1.000  N
  N16      1.0000 0.69261  0.24177  0.80956  Biso   1.000  N
  N17      1.0000 0.00000  0.01870  0.25000  Biso   1.000  N
  N18      1.0000 0.50000  0.51870  0.25000  Biso   1.000  N
  N19      1.0000 0.00000  0.98130  0.75000  Biso   1.000  N
  N20      1.0000 0.50000  0.48130  0.75000  Biso   1.000  N
  O1       1.0000 0.50000  0.13070  0.25000  Biso   1.000  O
  O2       1.0000 0.00000  0.63070  0.25000  Biso   1.000  O
  O3       1.0000 0.50000  0.86930  0.75000  Biso   1.000  O
  O4       1.0000 0.00000  0.36930  0.75000  Biso   1.000  O
  H37      1.0000 0.53100  0.08500  0.21500  Biso   1.000  H
  H38      1.0000 0.46900  0.08500  0.28500  Biso   1.000  H
  H39      1.0000 0.03100  0.58500  0.21500  Biso   1.000  H
  H40      1.0000 0.96900  0.58500  0.28500  Biso   1.000  H
  H41      1.0000 0.46900  0.91500  0.78500  Biso   1.000  H
  H42      1.0000 0.53100  0.91500  0.71500  Biso   1.000  H
  H43      1.0000 0.96900  0.41500  0.78500  Biso   1.000  H
  H44      1.0000 0.03100  0.41500  0.71500  Biso   1.000  H
  O5       1.0000 0.57007  0.33446  0.43325  Biso   1.000  O
  O6       1.0000 0.42993  0.33446  0.06675  Biso   1.000  O
  O7       1.0000 0.07007  0.83446  0.43325  Biso   1.000  O
  O8       1.0000 0.92993  0.83446  0.06675  Biso   1.000  O
  O9       1.0000 0.42993  0.66554  0.56675  Biso   1.000  O
  O10      1.0000 0.57007  0.66554  0.93325  Biso   1.000  O
  O11      1.0000 0.92993  0.16554  0.56675  Biso   1.000  O
  O12      1.0000 0.07007  0.16554  0.93325  Biso   1.000  O
  H45      1.0000 0.62990  0.35500  0.44700  Biso   1.000  H
  H46      1.0000 0.37010  0.35500  0.05300  Biso   1.000  H
  H47      1.0000 0.12990  0.85500  0.44700  Biso   1.000  H
  H48      1.0000 0.87010  0.85500  0.05300  Biso   1.000  H
  H49      1.0000 0.37010  0.64500  0.55300  Biso   1.000  H
  H50      1.0000 0.62990  0.64500  0.94700  Biso   1.000  H
  H51      1.0000 0.87010  0.14500  0.55300  Biso   1.000  H
  H52      1.0000 0.12990  0.14500  0.94700  Biso   1.000  H
  H53      1.0000 0.56800  0.27200  0.46600  Biso   1.000  H
  H54      1.0000 0.43200  0.27200  0.03400  Biso   1.000  H
  H55      1.0000 0.06800  0.77200  0.46600  Biso   1.000  H
  H56      1.0000 0.93200  0.77200  0.03400  Biso   1.000  H
  H57      1.0000 0.43200  0.72800  0.53400  Biso   1.000  H
  H58      1.0000 0.56800  0.72800  0.96600  Biso   1.000  H
  H59      1.0000 0.93200  0.22800  0.53400  Biso   1.000  H
  H60      1.0000 0.06800  0.22800  0.96600  Biso   1.000  H
  N21      1.0000 0.13606  0.42329  0.06064  Biso   1.000  N
  N22      1.0000 0.86394  0.42329  0.43936  Biso   1.000  N
  N23      1.0000 0.63606  0.92329  0.06064  Biso   1.000  N
  N24      1.0000 0.36394  0.92329  0.43936  Biso   1.000  N
  N25      1.0000 0.86394  0.57671  0.93936  Biso   1.000  N
  N26      1.0000 0.13606  0.57671  0.56064  Biso   1.000  N
  N27      1.0000 0.36394  0.07671  0.93936  Biso   1.000  N
  N28      1.0000 0.63606  0.07671  0.56064  Biso   1.000  N
  O13      1.0000 0.21031  0.38945  0.00777  Biso   1.000  O
  O14      1.0000 0.78969  0.38945  0.49223  Biso   1.000  O
  O15      1.0000 0.71031  0.88945  0.00777  Biso   1.000  O
  O16      1.0000 0.28969  0.88945  0.49223  Biso   1.000  O
  O17      1.0000 0.78969  0.61055  0.99223  Biso   1.000  O
  O18      1.0000 0.21031  0.61055  0.50777  Biso   1.000  O
  O19      1.0000 0.28969  0.11055  0.99223  Biso   1.000  O
  O20      1.0000 0.71031  0.11055  0.50777  Biso   1.000  O
  O21      1.0000 0.15160  0.50195  0.13376  Biso   1.000  O
  O22      1.0000 0.84840  0.50195  0.36624  Biso   1.000  O
  O23      1.0000 0.65160  0.00195  0.13376  Biso   1.000  O
  O24      1.0000 0.34840  0.00195  0.36624  Biso   1.000  O
  O25      1.0000 0.84840  0.49805  0.86624  Biso   1.000  O
  O26      1.0000 0.15160  0.49805  0.63376  Biso   1.000  O
  O27      1.0000 0.34840  0.99805  0.86624  Biso   1.000  O
  O28      1.0000 0.65160  0.99805  0.63376  Biso   1.000  O
  O29      1.0000 0.04576  0.37729  0.03954  Biso   1.000  O
  O30      1.0000 0.95424  0.37729  0.46046  Biso   1.000  O
  O31      1.0000 0.54576  0.87729  0.03954  Biso   1.000  O
  O32      1.0000 0.45424  0.87729  0.46046  Biso   1.000  O
  O33      1.0000 0.95424  0.62271  0.96046  Biso   1.000  O
  O34      1.0000 0.04576  0.62271  0.53954  Biso   1.000  O
  O35      1.0000 0.45424  0.12271  0.96046  Biso   1.000  O
  O36      1.0000 0.54576  0.12271  0.53954  Biso   1.000  O
