data_image0
_cell_length_a       9.724
_cell_length_b       7.071
_cell_length_c       13.259
_cell_angle_alpha    90
_cell_angle_beta     106.108
_cell_angle_gamma    90

_symmetry_space_group_name_H-M    "P 1"
_symmetry_int_tables_number       1

loop_
  _symmetry_equiv_pos_as_xyz
  'x, y, z'

loop_
  _atom_site_label
  _atom_site_occupancy
  _atom_site_fract_x
  _atom_site_fract_y
  _atom_site_fract_z
  _atom_site_thermal_displace_type
  _atom_site_B_iso_or_equiv
  _atom_site_type_symbol
  C1       1.0000 0.74580  0.10570  0.14490  Biso   1.000  C
  C2       1.0000 0.25420  0.60570  0.85510  Biso   1.000  C
  C3       1.0000 0.70470  0.20740  0.22100  Biso   1.000  C
  C4       1.0000 0.29530  0.70740  0.77900  Biso   1.000  C
  H1       1.0000 0.61230  0.25480  0.20920  Biso   1.000  H
  H2       1.0000 0.38770  0.75480  0.79080  Biso   1.000  H
  C5       1.0000 0.80520  0.23440  0.31320  Biso   1.000  C
  C6       1.0000 0.19480  0.73440  0.68680  Biso   1.000  C
  H3       1.0000 0.78610  0.30160  0.36800  Biso   1.000  H
  H4       1.0000 0.21390  0.80160  0.63200  Biso   1.000  H
  C7       1.0000 0.94000  0.15550  0.32140  Biso   1.000  C
  C8       1.0000 0.06000  0.65550  0.67860  Biso   1.000  C
  C9       1.0000 0.19370  0.14050  0.43270  Biso   1.000  C
  C10      1.0000 0.80630  0.64050  0.56730  Biso   1.000  C
  H5       1.0000 0.23630  0.09180  0.38360  Biso   1.000  H
  H6       1.0000 0.76370  0.59180  0.61640  Biso   1.000  H
  C11      1.0000 0.15450  0.24480  0.57000  Biso   1.000  C
  C12      1.0000 0.84550  0.74480  0.43000  Biso   1.000  C
  H7       1.0000 0.17060  0.28260  0.63950  Biso   1.000  H
  H8       1.0000 0.82940  0.78260  0.36050  Biso   1.000  H
  C13      1.0000 0.78890  0.10890  0.63140  Biso   1.000  C
  C14      1.0000 0.21110  0.60890  0.36860  Biso   1.000  C
  H9       1.0000 0.77290  0.07990  0.56070  Biso   1.000  H
  H10      1.0000 0.22710  0.57990  0.43930  Biso   1.000  H
  C15      1.0000 0.75030  0.19270  0.77470  Biso   1.000  C
  C16      1.0000 0.24970  0.69270  0.22530  Biso   1.000  C
  H11      1.0000 0.70810  0.23190  0.82610  Biso   1.000  H
  H12      1.0000 0.29190  0.73190  0.17390  Biso   1.000  H
  C17      1.0000 0.99940  0.16030  0.88630  Biso   1.000  C
  C18      1.0000 0.00060  0.66030  0.11370  Biso   1.000  C
  C19      1.0000 0.13440  0.08830  0.89140  Biso   1.000  C
  C20      1.0000 0.86560  0.58830  0.10860  Biso   1.000  C
  H13      1.0000 0.15550  0.03460  0.83340  Biso   1.000  H
  H14      1.0000 0.84450  0.53460  0.16660  Biso   1.000  H
  C21      1.0000 0.23370  0.10130  0.98660  Biso   1.000  C
  C22      1.0000 0.76630  0.60130  0.01340  Biso   1.000  C
  H15      1.0000 0.32640  0.05610  0.99720  Biso   1.000  H
  H16      1.0000 0.67360  0.55610  0.00280  Biso   1.000  H
  C23      1.0000 0.19000  0.18490  0.06660  Biso   1.000  C
  C24      1.0000 0.81000  0.68490  0.93340  Biso   1.000  C
  Cl1      1.0000 0.62644  0.07740  0.02086  Biso   1.000  Cl
  Cl2      1.0000 0.37356  0.57740  0.97914  Biso   1.000  Cl
  Cl3      1.0000 0.51965  0.28602  0.44922  Biso   1.000  Cl
  Cl4      1.0000 0.48035  0.78602  0.55078  Biso   1.000  Cl
  Cl5      1.0000 0.42537  0.18250  0.76068  Biso   1.000  Cl
  Cl6      1.0000 0.57463  0.68250  0.23932  Biso   1.000  Cl
  Cl7      1.0000 0.30977  0.21070  0.19055  Biso   1.000  Cl
  Cl8      1.0000 0.69023  0.71070  0.80945  Biso   1.000  Cl
  Cu1      1.0000 0.47309  0.18052  0.60173  Biso   1.000  Cu
  Cu2      1.0000 0.52691  0.68052  0.39827  Biso   1.000  Cu
  N1       1.0000 0.87190  0.02950  0.15580  Biso   1.000  N
  N2       1.0000 0.12810  0.52950  0.84420  Biso   1.000  N
  N3       1.0000 0.97280  0.05370  0.24910  Biso   1.000  N
  N4       1.0000 0.02720  0.55370  0.75090  Biso   1.000  N
  N5       1.0000 0.05400  0.17760  0.41490  Biso   1.000  N
  N6       1.0000 0.94600  0.67760  0.58510  Biso   1.000  N
  N7       1.0000 0.02730  0.24670  0.50340  Biso   1.000  N
  N8       1.0000 0.97270  0.74670  0.49660  Biso   1.000  N
  N9       1.0000 0.26160  0.18380  0.53090  Biso   1.000  N
  N10      1.0000 0.73840  0.68380  0.46910  Biso   1.000  N
  N11      1.0000 0.68240  0.16970  0.67360  Biso   1.000  N
  N12      1.0000 0.31760  0.66970  0.32640  Biso   1.000  N
  N13      1.0000 0.91540  0.09560  0.70000  Biso   1.000  N
  N14      1.0000 0.08460  0.59560  0.30000  Biso   1.000  N
  N15      1.0000 0.88790  0.15110  0.79080  Biso   1.000  N
  N16      1.0000 0.11210  0.65110  0.20920  Biso   1.000  N
  N17      1.0000 0.96270  0.24140  0.96330  Biso   1.000  N
  N18      1.0000 0.03730  0.74140  0.03670  Biso   1.000  N
  N19      1.0000 0.06160  0.25740  0.05740  Biso   1.000  N
  N20      1.0000 0.93840  0.75740  0.94260  Biso   1.000  N
