data_image0
_cell_length_a       9.692
_cell_length_b       7.049
_cell_length_c       13.2777
_cell_angle_alpha    90
_cell_angle_beta     106.199
_cell_angle_gamma    90

_symmetry_space_group_name_H-M    "P 1"
_symmetry_int_tables_number       1

loop_
  _symmetry_equiv_pos_as_xyz
  'x, y, z'

loop_
  _atom_site_label
  _atom_site_occupancy
  _atom_site_fract_x
  _atom_site_fract_y
  _atom_site_fract_z
  _atom_site_thermal_displace_type
  _atom_site_B_iso_or_equiv
  _atom_site_type_symbol
  Cu1      1.0000 0.02721  0.44317  0.39861  Biso   1.000  Cu
  Cu2      1.0000 0.97279  0.94317  0.60139  Biso   1.000  Cu
  Cl1      1.0000 0.07525  0.44510  0.24006  Biso   1.000  Cl
  Cl2      1.0000 0.92475  0.94510  0.75994  Biso   1.000  Cl
  Cl3      1.0000 0.98057  0.54862  0.55067  Biso   1.000  Cl
  Cl4      1.0000 0.01943  0.04862  0.44933  Biso   1.000  Cl
  Cl5      1.0000 0.19107  0.47290  0.80994  Biso   1.000  Cl
  Cl6      1.0000 0.80893  0.97290  0.19006  Biso   1.000  Cl
  Cl7      1.0000 0.87363  0.33970  0.97938  Biso   1.000  Cl
  Cl8      1.0000 0.12637  0.83970  0.02062  Biso   1.000  Cl
  N1       1.0000 0.23860  0.44650  0.46982  Biso   1.000  N
  N2       1.0000 0.76140  0.94650  0.53018  Biso   1.000  N
  N3       1.0000 0.44670  0.44130  0.58589  Biso   1.000  N
  N4       1.0000 0.55330  0.94130  0.41411  Biso   1.000  N
  N5       1.0000 0.81810  0.43110  0.32654  Biso   1.000  N
  N6       1.0000 0.18190  0.93110  0.67346  Biso   1.000  N
  N7       1.0000 0.61220  0.41340  0.20950  Biso   1.000  N
  N8       1.0000 0.38780  0.91340  0.79050  Biso   1.000  N
  N9       1.0000 0.58460  0.35800  0.30010  Biso   1.000  N
  N10      1.0000 0.41540  0.85800  0.69990  Biso   1.000  N
  C1       1.0000 0.56040  0.41720  0.67910  Biso   1.000  C
  C2       1.0000 0.43960  0.91720  0.32090  Biso   1.000  C
  C3       1.0000 0.69490  0.49600  0.68730  Biso   1.000  C
  C4       1.0000 0.30510  0.99600  0.31270  Biso   1.000  C
  H1       1.0000 0.71410  0.56220  0.63220  Biso   1.000  H
  H2       1.0000 0.28590  0.06220  0.36780  Biso   1.000  H
  N11      1.0000 0.53780  0.50320  0.03700  Biso   1.000  N
  N12      1.0000 0.46220  0.00320  0.96300  Biso   1.000  N
  C5       1.0000 0.50060  0.42320  0.11410  Biso   1.000  C
  C6       1.0000 0.49940  0.92320  0.88590  Biso   1.000  C
  C7       1.0000 0.31100  0.44770  0.93340  Biso   1.000  C
  C8       1.0000 0.68900  0.94770  0.06660  Biso   1.000  C
  N13      1.0000 0.52770  0.31590  0.75120  Biso   1.000  N
  N14      1.0000 0.47230  0.81590  0.24880  Biso   1.000  N
  C9       1.0000 0.75020  0.45420  0.22610  Biso   1.000  C
  C10      1.0000 0.24980  0.95420  0.77390  Biso   1.000  C
  H3       1.0000 0.79280  0.49300  0.17480  Biso   1.000  H
  H4       1.0000 0.20720  0.99300  0.82520  Biso   1.000  H
  N15      1.0000 0.62840  0.29200  0.84420  Biso   1.000  N
  N16      1.0000 0.37160  0.79200  0.15580  Biso   1.000  N
  C11      1.0000 0.34630  0.50760  0.43000  Biso   1.000  C
  C12      1.0000 0.65370  0.00760  0.57000  Biso   1.000  C
  H5       1.0000 0.33010  0.54630  0.36070  Biso   1.000  H
  H6       1.0000 0.66990  0.04630  0.63930  Biso   1.000  H
  N17      1.0000 0.43870  0.51990  0.94280  Biso   1.000  N
  N18      1.0000 0.56130  0.01990  0.05720  Biso   1.000  N
  C13      1.0000 0.71080  0.37320  0.36840  Biso   1.000  C
  C14      1.0000 0.28920  0.87320  0.63160  Biso   1.000  C
  H7       1.0000 0.72640  0.34710  0.43940  Biso   1.000  H
  H8       1.0000 0.27360  0.84710  0.56060  Biso   1.000  H
  C15      1.0000 0.75520  0.36800  0.85590  Biso   1.000  C
  C16      1.0000 0.24480  0.86800  0.14410  Biso   1.000  C
  C17      1.0000 0.30710  0.40280  0.56800  Biso   1.000  C
  C18      1.0000 0.69290  0.90280  0.43200  Biso   1.000  C
  H9       1.0000 0.26450  0.35300  0.61690  Biso   1.000  H
  H10      1.0000 0.73550  0.85300  0.38310  Biso   1.000  H
  N19      1.0000 0.47340  0.50730  0.49670  Biso   1.000  N
  N20      1.0000 0.52660  0.00730  0.50330  Biso   1.000  N
  C19      1.0000 0.26680  0.36320  0.01370  Biso   1.000  C
  C20      1.0000 0.73320  0.86320  0.98630  Biso   1.000  C
  H11      1.0000 0.17390  0.31700  0.00270  Biso   1.000  H
  H12      1.0000 0.82610  0.81700  0.99730  Biso   1.000  H
  C21      1.0000 0.79600  0.47080  0.77980  Biso   1.000  C
  C22      1.0000 0.20400  0.97080  0.22020  Biso   1.000  C
  H13      1.0000 0.88820  0.52000  0.79190  Biso   1.000  H
  H14      1.0000 0.11180  0.02000  0.20810  Biso   1.000  H
  C23      1.0000 0.36520  0.35090  0.10900  Biso   1.000  C
  C24      1.0000 0.63480  0.85090  0.89100  Biso   1.000  C
  H15      1.0000 0.34360  0.29770  0.16690  Biso   1.000  H
  H16      1.0000 0.65640  0.79770  0.83310  Biso   1.000  H
