data_image0
_cell_length_a       6.381
_cell_length_b       20.12
_cell_length_c       10.386
_cell_angle_alpha    90
_cell_angle_beta     99.23
_cell_angle_gamma    90

_symmetry_space_group_name_H-M    "P 1"
_symmetry_int_tables_number       1

loop_
  _symmetry_equiv_pos_as_xyz
  'x, y, z'

loop_
  _atom_site_label
  _atom_site_occupancy
  _atom_site_fract_x
  _atom_site_fract_y
  _atom_site_fract_z
  _atom_site_thermal_displace_type
  _atom_site_B_iso_or_equiv
  _atom_site_type_symbol
  Cu1      1.0000 0.50000  0.00000  0.00000  Biso   1.000  Cu
  Cu2      1.0000 0.00000  0.50000  0.50000  Biso   1.000  Cu
  Cu3      1.0000 0.00000  0.00000  0.00000  Biso   1.000  Cu
  Cu4      1.0000 0.50000  0.50000  0.50000  Biso   1.000  Cu
  O1       1.0000 0.57740  0.09496  0.00920  Biso   1.000  O
  O2       1.0000 0.92260  0.59496  0.49080  Biso   1.000  O
  O3       1.0000 0.42260  0.90504  0.99080  Biso   1.000  O
  O4       1.0000 0.07740  0.40504  0.50920  Biso   1.000  O
  O5       1.0000 0.92630  0.09405  0.00910  Biso   1.000  O
  O6       1.0000 0.57370  0.59405  0.49090  Biso   1.000  O
  O7       1.0000 0.07370  0.90595  0.99090  Biso   1.000  O
  O8       1.0000 0.42630  0.40595  0.50910  Biso   1.000  O
  O9       1.0000 0.79730  0.98740  0.18140  Biso   1.000  O
  O10      1.0000 0.70270  0.48740  0.31860  Biso   1.000  O
  O11      1.0000 0.20270  0.01260  0.81860  Biso   1.000  O
  O12      1.0000 0.29730  0.51260  0.68140  Biso   1.000  O
  N1       1.0000 0.71900  0.98350  0.88850  Biso   1.000  N
  N2       1.0000 0.78100  0.48350  0.61150  Biso   1.000  N
  N3       1.0000 0.28100  0.01650  0.11150  Biso   1.000  N
  N4       1.0000 0.21900  0.51650  0.38850  Biso   1.000  N
  C1       1.0000 0.75220  0.12190  0.01100  Biso   1.000  C
  C2       1.0000 0.74780  0.62190  0.48900  Biso   1.000  C
  C3       1.0000 0.24780  0.87810  0.98900  Biso   1.000  C
  C4       1.0000 0.25220  0.37810  0.51100  Biso   1.000  C
  C5       1.0000 0.77040  0.19750  0.02110  Biso   1.000  C
  C6       1.0000 0.72960  0.69750  0.47890  Biso   1.000  C
  C7       1.0000 0.22960  0.80250  0.97890  Biso   1.000  C
  C8       1.0000 0.27040  0.30250  0.52110  Biso   1.000  C
  H1       1.0000 0.83250  0.20830  0.11010  Biso   1.000  H
  H2       1.0000 0.66750  0.70830  0.38990  Biso   1.000  H
  H3       1.0000 0.16750  0.79170  0.88990  Biso   1.000  H
  H4       1.0000 0.33250  0.29170  0.61010  Biso   1.000  H
  H5       1.0000 0.87040  0.21170  0.96550  Biso   1.000  H
  H6       1.0000 0.62960  0.71170  0.53450  Biso   1.000  H
  H7       1.0000 0.12960  0.78830  0.03450  Biso   1.000  H
  H8       1.0000 0.37040  0.28830  0.46550  Biso   1.000  H
  C9       1.0000 0.57430  0.23830  0.98680  Biso   1.000  C
  C10      1.0000 0.92570  0.73830  0.51320  Biso   1.000  C
  C11      1.0000 0.42570  0.76170  0.01320  Biso   1.000  C
  C12      1.0000 0.07430  0.26170  0.48680  Biso   1.000  C
  C13      1.0000 0.55170  0.28950  0.89410  Biso   1.000  C
  C14      1.0000 0.94830  0.78950  0.60590  Biso   1.000  C
  C15      1.0000 0.44830  0.71050  0.10590  Biso   1.000  C
  C16      1.0000 0.05170  0.21050  0.39410  Biso   1.000  C
  H9       1.0000 0.65240  0.29970  0.84160  Biso   1.000  H
  H10      1.0000 0.84760  0.79970  0.65840  Biso   1.000  H
  H11      1.0000 0.34760  0.70030  0.15840  Biso   1.000  H
  H12      1.0000 0.15240  0.20030  0.34160  Biso   1.000  H
  C17      1.0000 0.36300  0.32270  0.89030  Biso   1.000  C
  C18      1.0000 0.13700  0.82270  0.60970  Biso   1.000  C
  C19      1.0000 0.63700  0.67730  0.10970  Biso   1.000  C
  C20      1.0000 0.86300  0.17730  0.39030  Biso   1.000  C
  H13      1.0000 0.32130  0.35800  0.83420  Biso   1.000  H
  H14      1.0000 0.17870  0.85800  0.66580  Biso   1.000  H
  H15      1.0000 0.67870  0.64200  0.16580  Biso   1.000  H
  H16      1.0000 0.82130  0.14200  0.33420  Biso   1.000  H
  C21      1.0000 0.24550  0.29920  0.97520  Biso   1.000  C
  C22      1.0000 0.25450  0.79920  0.52480  Biso   1.000  C
  C23      1.0000 0.75450  0.70080  0.02480  Biso   1.000  C
  C24      1.0000 0.74550  0.20080  0.47520  Biso   1.000  C
  H17      1.0000 0.11540  0.31710  0.98660  Biso   1.000  H
  H18      1.0000 0.38460  0.81710  0.51340  Biso   1.000  H
  H19      1.0000 0.88460  0.68290  0.01340  Biso   1.000  H
  H20      1.0000 0.61540  0.18290  0.48660  Biso   1.000  H
  S1       1.0000 0.35940  0.23297  0.06000  Biso   1.000  S
  S2       1.0000 0.14060  0.73297  0.44000  Biso   1.000  S
  S3       1.0000 0.64060  0.76703  0.94000  Biso   1.000  S
  S4       1.0000 0.85940  0.26703  0.56000  Biso   1.000  S
  N5       1.0000 0.69210  0.94370  0.80190  Biso   1.000  N
  N6       1.0000 0.80790  0.44370  0.69810  Biso   1.000  N
  N7       1.0000 0.30790  0.05630  0.19810  Biso   1.000  N
  N8       1.0000 0.19210  0.55630  0.30190  Biso   1.000  N
  N9       1.0000 0.66040  0.90710  0.71620  Biso   1.000  N
  N10      1.0000 0.83960  0.40710  0.78380  Biso   1.000  N
  N11      1.0000 0.33960  0.09290  0.28380  Biso   1.000  N
  N12      1.0000 0.16040  0.59290  0.21620  Biso   1.000  N
  S5       1.0000 0.86700  0.94237  0.29476  Biso   1.000  S
  S6       1.0000 0.63300  0.44237  0.20524  Biso   1.000  S
  S7       1.0000 0.13300  0.05763  0.70524  Biso   1.000  S
  S8       1.0000 0.36700  0.55763  0.79476  Biso   1.000  S
  C25      1.0000 0.69600  0.95600  0.40120  Biso   1.000  C
  C26      1.0000 0.80400  0.45600  0.09880  Biso   1.000  C
  C27      1.0000 0.30400  0.04400  0.59880  Biso   1.000  C
  C28      1.0000 0.19600  0.54400  0.90120  Biso   1.000  C
  H21      1.0000 0.71000  0.00110  0.43180  Biso   1.000  H
  H22      1.0000 0.79000  0.50110  0.06820  Biso   1.000  H
  H23      1.0000 0.29000  0.99890  0.56820  Biso   1.000  H
  H24      1.0000 0.21000  0.49890  0.93180  Biso   1.000  H
  H25      1.0000 0.72790  0.92620  0.47380  Biso   1.000  H
  H26      1.0000 0.77210  0.42620  0.02620  Biso   1.000  H
  H27      1.0000 0.27210  0.07380  0.52620  Biso   1.000  H
  H28      1.0000 0.22790  0.57380  0.97380  Biso   1.000  H
  H29      1.0000 0.55320  0.94850  0.35820  Biso   1.000  H
  H30      1.0000 0.94680  0.44850  0.14180  Biso   1.000  H
  H31      1.0000 0.44680  0.05150  0.64180  Biso   1.000  H
  H32      1.0000 0.05320  0.55150  0.85820  Biso   1.000  H
  C29      1.0000 0.79200  0.86500  0.24790  Biso   1.000  C
  C30      1.0000 0.70800  0.36500  0.25210  Biso   1.000  C
  C31      1.0000 0.20800  0.13500  0.75210  Biso   1.000  C
  C32      1.0000 0.29200  0.63500  0.74790  Biso   1.000  C
  H33      1.0000 0.82300  0.85710  0.16170  Biso   1.000  H
  H34      1.0000 0.67700  0.35710  0.33830  Biso   1.000  H
  H35      1.0000 0.17700  0.14290  0.83830  Biso   1.000  H
  H36      1.0000 0.32300  0.64290  0.66170  Biso   1.000  H
  H37      1.0000 0.64240  0.86010  0.24760  Biso   1.000  H
  H38      1.0000 0.85760  0.36010  0.25240  Biso   1.000  H
  H39      1.0000 0.35760  0.13990  0.75240  Biso   1.000  H
  H40      1.0000 0.14240  0.63990  0.74760  Biso   1.000  H
  H41      1.0000 0.86810  0.83360  0.30740  Biso   1.000  H
  H42      1.0000 0.63190  0.33360  0.19260  Biso   1.000  H
  H43      1.0000 0.13190  0.16640  0.69260  Biso   1.000  H
  H44      1.0000 0.36810  0.66640  0.80740  Biso   1.000  H
