data_image0
_cell_length_a       8.331
_cell_length_b       10.657
_cell_length_c       9.147
_cell_angle_alpha    103.69
_cell_angle_beta     115.89
_cell_angle_gamma    98.88

_symmetry_space_group_name_H-M    "P 1"
_symmetry_int_tables_number       1

loop_
  _symmetry_equiv_pos_as_xyz
  'x, y, z'

loop_
  _atom_site_label
  _atom_site_occupancy
  _atom_site_fract_x
  _atom_site_fract_y
  _atom_site_fract_z
  _atom_site_thermal_displace_type
  _atom_site_B_iso_or_equiv
  _atom_site_type_symbol
  Cu1      1.0000 0.00000  0.50000  0.00000  Biso   1.000  Cu
  Cu2      1.0000 0.31595  0.45026  0.32414  Biso   1.000  Cu
  Cu3      1.0000 0.68405  0.54974  0.67586  Biso   1.000  Cu
  O1       1.0000 0.99640  0.31470  0.90930  Biso   1.000  O
  O2       1.0000 0.00360  0.68530  0.09070  Biso   1.000  O
  O3       1.0000 0.22680  0.28340  0.13440  Biso   1.000  O
  O4       1.0000 0.77320  0.71660  0.86560  Biso   1.000  O
  N1       1.0000 0.06720  0.48390  0.23100  Biso   1.000  N
  N2       1.0000 0.93280  0.51610  0.76900  Biso   1.000  N
  N3       1.0000 0.44970  0.59880  0.54930  Biso   1.000  N
  N4       1.0000 0.55030  0.40120  0.45070  Biso   1.000  N
  C1       1.0000 0.09880  0.24770  0.97920  Biso   1.000  C
  C2       1.0000 0.90120  0.75230  0.02080  Biso   1.000  C
  C3       1.0000 0.06750  0.11110  0.86720  Biso   1.000  C
  C4       1.0000 0.93250  0.88890  0.13280  Biso   1.000  C
  C5       1.0000 0.94620  0.91500  0.62780  Biso   1.000  C
  C6       1.0000 0.05380  0.08500  0.37220  Biso   1.000  C
  H1       1.0000 0.87410  0.85360  0.51550  Biso   1.000  H
  H2       1.0000 0.12590  0.14640  0.48450  Biso   1.000  H
  C7       1.0000 0.08100  0.88650  0.75180  Biso   1.000  C
  C8       1.0000 0.91900  0.11350  0.24820  Biso   1.000  C
  H3       1.0000 0.10820  0.80480  0.73240  Biso   1.000  H
  H4       1.0000 0.89180  0.19520  0.26760  Biso   1.000  H
  C9       1.0000 0.91750  0.04920  0.67790  Biso   1.000  C
  C10      1.0000 0.08250  0.95080  0.32210  Biso   1.000  C
  S1       1.0000 0.19410  0.00799  0.94090  Biso   1.000  S
  S2       1.0000 0.80590  0.99201  0.05910  Biso   1.000  S
  N5       1.0000 0.02290  0.55230  0.32500  Biso   1.000  N
  N6       1.0000 0.97710  0.44770  0.67500  Biso   1.000  N
  N7       1.0000 0.97150  0.61190  0.40780  Biso   1.000  N
  N8       1.0000 0.02850  0.38810  0.59220  Biso   1.000  N
  N9       1.0000 0.43380  0.71120  0.58430  Biso   1.000  N
  N10      1.0000 0.56620  0.28880  0.41570  Biso   1.000  N
  N11      1.0000 0.41970  0.81750  0.62170  Biso   1.000  N
  N12      1.0000 0.58030  0.18250  0.37830  Biso   1.000  N
  S3       1.0000 0.50277  0.67794  0.15634  Biso   1.000  S
  S4       1.0000 0.49723  0.32206  0.84366  Biso   1.000  S
  O5       1.0000 0.35710  0.56440  0.14440  Biso   1.000  O
  O6       1.0000 0.64290  0.43560  0.85560  Biso   1.000  O
  C11      1.0000 0.41170  0.68110  0.94570  Biso   1.000  C
  C12      1.0000 0.58830  0.31890  0.05430  Biso   1.000  C
  H5       1.0000 0.40540  0.59810  0.87070  Biso   1.000  H
  H6       1.0000 0.59460  0.40190  0.12930  Biso   1.000  H
  H7       1.0000 0.49100  0.75570  0.94390  Biso   1.000  H
  H8       1.0000 0.50900  0.24430  0.05610  Biso   1.000  H
  H9       1.0000 0.28870  0.69110  0.90660  Biso   1.000  H
  H10      1.0000 0.71130  0.30890  0.09340  Biso   1.000  H
  C13      1.0000 0.47260  0.83090  0.25170  Biso   1.000  C
  C14      1.0000 0.52740  0.16910  0.74830  Biso   1.000  C
  H11      1.0000 0.52460  0.84900  0.37380  Biso   1.000  H
  H12      1.0000 0.47540  0.15100  0.62620  Biso   1.000  H
  H13      1.0000 0.34180  0.82320  0.20090  Biso   1.000  H
  H14      1.0000 0.65820  0.17680  0.79910  Biso   1.000  H
  H15      1.0000 0.53490  0.90340  0.23220  Biso   1.000  H
  H16      1.0000 0.46510  0.09660  0.76780  Biso   1.000  H
