data_image0
_cell_length_a       12.878
_cell_length_b       6.897
_cell_length_c       16.117
_cell_angle_alpha    90
_cell_angle_beta     107.67
_cell_angle_gamma    90

_symmetry_space_group_name_H-M    "P 1"
_symmetry_int_tables_number       1

loop_
  _symmetry_equiv_pos_as_xyz
  'x, y, z'

loop_
  _atom_site_label
  _atom_site_occupancy
  _atom_site_fract_x
  _atom_site_fract_y
  _atom_site_fract_z
  _atom_site_thermal_displace_type
  _atom_site_B_iso_or_equiv
  _atom_site_type_symbol
  Cu1      1.0000 0.05330  0.21529  0.51536  Biso   1.000  Cu
  Cu2      1.0000 0.55330  0.71529  0.51536  Biso   1.000  Cu
  Cu3      1.0000 0.05330  0.78471  0.01537  Biso   1.000  Cu
  Cu4      1.0000 0.55330  0.28471  0.01537  Biso   1.000  Cu
  Cu5      1.0000 0.94670  0.78471  0.48463  Biso   1.000  Cu
  Cu6      1.0000 0.44670  0.28471  0.48463  Biso   1.000  Cu
  Cu7      1.0000 0.94670  0.21529  0.98463  Biso   1.000  Cu
  Cu8      1.0000 0.44670  0.71529  0.98463  Biso   1.000  Cu
  O1       1.0000 0.87444  0.80540  0.58050  Biso   1.000  O
  O2       1.0000 0.37444  0.30540  0.58050  Biso   1.000  O
  O3       1.0000 0.87444  0.19460  0.08050  Biso   1.000  O
  O4       1.0000 0.37444  0.69460  0.08050  Biso   1.000  O
  O5       1.0000 0.12556  0.19460  0.41950  Biso   1.000  O
  O6       1.0000 0.62556  0.69460  0.41950  Biso   1.000  O
  O7       1.0000 0.12556  0.80540  0.91950  Biso   1.000  O
  O8       1.0000 0.62556  0.30540  0.91950  Biso   1.000  O
  O9       1.0000 0.28016  0.82210  0.60633  Biso   1.000  O
  O10      1.0000 0.78016  0.32210  0.60633  Biso   1.000  O
  O11      1.0000 0.28016  0.17790  0.10633  Biso   1.000  O
  O12      1.0000 0.78016  0.67790  0.10633  Biso   1.000  O
  O13      1.0000 0.71984  0.17790  0.39367  Biso   1.000  O
  O14      1.0000 0.21984  0.67790  0.39367  Biso   1.000  O
  O15      1.0000 0.71984  0.82210  0.89367  Biso   1.000  O
  O16      1.0000 0.21984  0.32210  0.89367  Biso   1.000  O
  O17      1.0000 0.00000  0.05190  0.25000  Biso   1.000  O
  O18      1.0000 0.50000  0.55190  0.25000  Biso   1.000  O
  O19      1.0000 0.00000  0.94810  0.75000  Biso   1.000  O
  O20      1.0000 0.50000  0.44810  0.75000  Biso   1.000  O
  N1       1.0000 0.69537  0.79870  0.58307  Biso   1.000  N
  N2       1.0000 0.19537  0.29870  0.58307  Biso   1.000  N
  N3       1.0000 0.69537  0.20130  0.08307  Biso   1.000  N
  N4       1.0000 0.19537  0.70130  0.08307  Biso   1.000  N
  N5       1.0000 0.30463  0.20130  0.41693  Biso   1.000  N
  N6       1.0000 0.80463  0.70130  0.41693  Biso   1.000  N
  N7       1.0000 0.30463  0.79870  0.91693  Biso   1.000  N
  N8       1.0000 0.80463  0.29870  0.91693  Biso   1.000  N
  N9       1.0000 0.98341  0.72590  0.37412  Biso   1.000  N
  N10      1.0000 0.48341  0.22590  0.37412  Biso   1.000  N
  N11      1.0000 0.98341  0.27410  0.87412  Biso   1.000  N
  N12      1.0000 0.48341  0.77410  0.87412  Biso   1.000  N
  N13      1.0000 0.01659  0.27410  0.62588  Biso   1.000  N
  N14      1.0000 0.51659  0.77410  0.62588  Biso   1.000  N
  N15      1.0000 0.01659  0.72590  0.12588  Biso   1.000  N
  N16      1.0000 0.51659  0.22590  0.12588  Biso   1.000  N
  N17      1.0000 0.91033  0.14840  0.44236  Biso   1.000  N
  N18      1.0000 0.41033  0.64840  0.44236  Biso   1.000  N
  N19      1.0000 0.91033  0.85160  0.94236  Biso   1.000  N
  N20      1.0000 0.41033  0.35160  0.94236  Biso   1.000  N
  N21      1.0000 0.08967  0.85160  0.55764  Biso   1.000  N
  N22      1.0000 0.58967  0.35160  0.55764  Biso   1.000  N
  N23      1.0000 0.08967  0.14840  0.05764  Biso   1.000  N
  N24      1.0000 0.58967  0.64840  0.05764  Biso   1.000  N
  C1       1.0000 0.77194  0.77950  0.54779  Biso   1.000  C
  C2       1.0000 0.27194  0.27950  0.54779  Biso   1.000  C
  C3       1.0000 0.77194  0.22050  0.04779  Biso   1.000  C
  C4       1.0000 0.27194  0.72050  0.04779  Biso   1.000  C
  C5       1.0000 0.22806  0.22050  0.45221  Biso   1.000  C
  C6       1.0000 0.72806  0.72050  0.45221  Biso   1.000  C
  C7       1.0000 0.22806  0.77950  0.95221  Biso   1.000  C
  C8       1.0000 0.72806  0.27950  0.95221  Biso   1.000  C
  C9       1.0000 0.78879  0.65380  0.32584  Biso   1.000  C
  C10      1.0000 0.28879  0.15380  0.32584  Biso   1.000  C
  C11      1.0000 0.78879  0.34620  0.82584  Biso   1.000  C
  C12      1.0000 0.28879  0.84620  0.82584  Biso   1.000  C
  C13      1.0000 0.21121  0.34620  0.67416  Biso   1.000  C
  C14      1.0000 0.71121  0.84620  0.67416  Biso   1.000  C
  C15      1.0000 0.21121  0.65380  0.17416  Biso   1.000  C
  C16      1.0000 0.71121  0.15380  0.17416  Biso   1.000  C
  C17      1.0000 0.90010  0.59190  0.32009  Biso   1.000  C
  C18      1.0000 0.40010  0.09190  0.32009  Biso   1.000  C
  C19      1.0000 0.90010  0.40810  0.82009  Biso   1.000  C
  C20      1.0000 0.40010  0.90810  0.82009  Biso   1.000  C
  C21      1.0000 0.09990  0.40810  0.67991  Biso   1.000  C
  C22      1.0000 0.59990  0.90810  0.67991  Biso   1.000  C
  C23      1.0000 0.09990  0.59190  0.17991  Biso   1.000  C
  C24      1.0000 0.59990  0.09190  0.17991  Biso   1.000  C
  C25      1.0000 0.18348  0.83310  0.57997  Biso   1.000  C
  C26      1.0000 0.68348  0.33310  0.57997  Biso   1.000  C
  C27      1.0000 0.18348  0.16690  0.07997  Biso   1.000  C
  C28      1.0000 0.68348  0.66690  0.07997  Biso   1.000  C
  C29      1.0000 0.81652  0.16690  0.42003  Biso   1.000  C
  C30      1.0000 0.31652  0.66690  0.42003  Biso   1.000  C
  C31      1.0000 0.81652  0.83310  0.92003  Biso   1.000  C
  C32      1.0000 0.31652  0.33310  0.92003  Biso   1.000  C
  H1       1.0000 0.75890  0.76620  0.28550  Biso   1.000  H
  H2       1.0000 0.25890  0.26620  0.28550  Biso   1.000  H
  H3       1.0000 0.75890  0.23380  0.78550  Biso   1.000  H
  H4       1.0000 0.25890  0.73380  0.78550  Biso   1.000  H
  H5       1.0000 0.24110  0.23380  0.71450  Biso   1.000  H
  H6       1.0000 0.74110  0.73380  0.71450  Biso   1.000  H
  H7       1.0000 0.24110  0.76620  0.21450  Biso   1.000  H
  H8       1.0000 0.74110  0.26620  0.21450  Biso   1.000  H
  H9       1.0000 0.73910  0.54750  0.30470  Biso   1.000  H
  H10      1.0000 0.23910  0.04750  0.30470  Biso   1.000  H
  H11      1.0000 0.73910  0.45250  0.80470  Biso   1.000  H
  H12      1.0000 0.23910  0.95250  0.80470  Biso   1.000  H
  H13      1.0000 0.26090  0.45250  0.69530  Biso   1.000  H
  H14      1.0000 0.76090  0.95250  0.69530  Biso   1.000  H
  H15      1.0000 0.26090  0.54750  0.19530  Biso   1.000  H
  H16      1.0000 0.76090  0.04750  0.19530  Biso   1.000  H
  H17      1.0000 0.92070  0.45690  0.34540  Biso   1.000  H
  H18      1.0000 0.42070  0.95690  0.34540  Biso   1.000  H
  H19      1.0000 0.92070  0.54310  0.84540  Biso   1.000  H
  H20      1.0000 0.42070  0.04310  0.84540  Biso   1.000  H
  H21      1.0000 0.07930  0.54310  0.65460  Biso   1.000  H
  H22      1.0000 0.57930  0.04310  0.65460  Biso   1.000  H
  H23      1.0000 0.07930  0.45690  0.15460  Biso   1.000  H
  H24      1.0000 0.57930  0.95690  0.15460  Biso   1.000  H
  H25      1.0000 0.89660  0.60050  0.25920  Biso   1.000  H
  H26      1.0000 0.39660  0.10050  0.25920  Biso   1.000  H
  H27      1.0000 0.89660  0.39950  0.75920  Biso   1.000  H
  H28      1.0000 0.39660  0.89950  0.75920  Biso   1.000  H
  H29      1.0000 0.10340  0.39950  0.74080  Biso   1.000  H
  H30      1.0000 0.60340  0.89950  0.74080  Biso   1.000  H
  H31      1.0000 0.10340  0.60050  0.24080  Biso   1.000  H
  H32      1.0000 0.60340  0.10050  0.24080  Biso   1.000  H
  H33      1.0000 0.97890  0.85620  0.34730  Biso   1.000  H
  H34      1.0000 0.47890  0.35620  0.34730  Biso   1.000  H
  H35      1.0000 0.97890  0.14380  0.84730  Biso   1.000  H
  H36      1.0000 0.47890  0.64380  0.84730  Biso   1.000  H
  H37      1.0000 0.02110  0.14380  0.65270  Biso   1.000  H
  H38      1.0000 0.52110  0.64380  0.65270  Biso   1.000  H
  H39      1.0000 0.02110  0.85620  0.15270  Biso   1.000  H
  H40      1.0000 0.52110  0.35620  0.15270  Biso   1.000  H
  H41      1.0000 0.04330  0.68530  0.38520  Biso   1.000  H
  H42      1.0000 0.54330  0.18530  0.38520  Biso   1.000  H
  H43      1.0000 0.04330  0.31470  0.88520  Biso   1.000  H
  H44      1.0000 0.54330  0.81470  0.88520  Biso   1.000  H
  H45      1.0000 0.95670  0.31470  0.61480  Biso   1.000  H
  H46      1.0000 0.45670  0.81470  0.61480  Biso   1.000  H
  H47      1.0000 0.95670  0.68530  0.11480  Biso   1.000  H
  H48      1.0000 0.45670  0.18530  0.11480  Biso   1.000  H
  H49      1.0000 0.03390  0.12500  0.28850  Biso   1.000  H
  H50      1.0000 0.53390  0.62500  0.28850  Biso   1.000  H
  H51      1.0000 0.03390  0.87500  0.78850  Biso   1.000  H
  H52      1.0000 0.53390  0.37500  0.78850  Biso   1.000  H
  H53      1.0000 0.96610  0.87500  0.71150  Biso   1.000  H
  H54      1.0000 0.46610  0.37500  0.71150  Biso   1.000  H
  H55      1.0000 0.96610  0.12500  0.21150  Biso   1.000  H
  H56      1.0000 0.46610  0.62500  0.21150  Biso   1.000  H
