data_image0
_cell_length_a       18.2394
_cell_length_b       15.8743
_cell_length_c       19.9582
_cell_angle_alpha    90
_cell_angle_beta     110.019
_cell_angle_gamma    90

_symmetry_space_group_name_H-M    "P 1"
_symmetry_int_tables_number       1

loop_
  _symmetry_equiv_pos_as_xyz
  'x, y, z'

loop_
  _atom_site_label
  _atom_site_occupancy
  _atom_site_fract_x
  _atom_site_fract_y
  _atom_site_fract_z
  _atom_site_thermal_displace_type
  _atom_site_B_iso_or_equiv
  _atom_site_type_symbol
  Cu1      1.0000 0.82360  0.23458  0.99778  Biso   1.000  Cu
  Cu2      1.0000 0.17640  0.73458  0.50222  Biso   1.000  Cu
  Cu3      1.0000 0.17640  0.76542  0.00222  Biso   1.000  Cu
  Cu4      1.0000 0.82360  0.26542  0.49778  Biso   1.000  Cu
  Cu5      1.0000 0.66899  0.25934  0.01227  Biso   1.000  Cu
  Cu6      1.0000 0.33101  0.75934  0.48773  Biso   1.000  Cu
  Cu7      1.0000 0.33101  0.74066  0.98773  Biso   1.000  Cu
  Cu8      1.0000 0.66899  0.24066  0.51227  Biso   1.000  Cu
  O1       1.0000 0.71584  0.24979  0.93688  Biso   1.000  O
  O2       1.0000 0.28416  0.74979  0.56312  Biso   1.000  O
  O3       1.0000 0.28416  0.75021  0.06312  Biso   1.000  O
  O4       1.0000 0.71584  0.25021  0.43688  Biso   1.000  O
  O5       1.0000 0.77736  0.24559  0.07330  Biso   1.000  O
  O6       1.0000 0.22264  0.74559  0.42670  Biso   1.000  O
  O7       1.0000 0.22264  0.75441  0.92670  Biso   1.000  O
  O8       1.0000 0.77736  0.25441  0.57330  Biso   1.000  O
  N1       1.0000 0.84903  0.28406  0.91441  Biso   1.000  N
  N2       1.0000 0.15097  0.78406  0.58559  Biso   1.000  N
  N3       1.0000 0.15097  0.71594  0.08559  Biso   1.000  N
  N4       1.0000 0.84903  0.21594  0.41441  Biso   1.000  N
  H1       1.0000 0.86880  0.33770  0.92520  Biso   1.000  H
  H2       1.0000 0.13120  0.83770  0.57480  Biso   1.000  H
  H3       1.0000 0.13120  0.66230  0.07480  Biso   1.000  H
  H4       1.0000 0.86880  0.16230  0.42520  Biso   1.000  H
  H5       1.0000 0.88560  0.25140  0.90430  Biso   1.000  H
  H6       1.0000 0.11440  0.75140  0.59570  Biso   1.000  H
  H7       1.0000 0.11440  0.74860  0.09570  Biso   1.000  H
  H8       1.0000 0.88560  0.24860  0.40430  Biso   1.000  H
  N5       1.0000 0.81892  0.09496  0.98615  Biso   1.000  N
  N6       1.0000 0.18108  0.59496  0.51385  Biso   1.000  N
  N7       1.0000 0.18108  0.90504  0.01385  Biso   1.000  N
  N8       1.0000 0.81892  0.40504  0.48615  Biso   1.000  N
  N9       1.0000 0.93370  0.24175  0.06461  Biso   1.000  N
  N10      1.0000 0.06630  0.74175  0.43539  Biso   1.000  N
  N11      1.0000 0.06630  0.75825  0.93539  Biso   1.000  N
  N12      1.0000 0.93370  0.25825  0.56461  Biso   1.000  N
  N13      1.0000 0.64377  0.21743  0.09755  Biso   1.000  N
  N14      1.0000 0.35623  0.71743  0.40245  Biso   1.000  N
  N15      1.0000 0.35623  0.78257  0.90245  Biso   1.000  N
  N16      1.0000 0.64377  0.28257  0.59755  Biso   1.000  N
  H9       1.0000 0.60960  0.25360  0.10770  Biso   1.000  H
  H10      1.0000 0.39040  0.75360  0.39230  Biso   1.000  H
  H11      1.0000 0.39040  0.74640  0.89230  Biso   1.000  H
  H12      1.0000 0.60960  0.24640  0.60770  Biso   1.000  H
  H13      1.0000 0.62120  0.16490  0.08840  Biso   1.000  H
  H14      1.0000 0.37880  0.66490  0.41160  Biso   1.000  H
  H15      1.0000 0.37880  0.83510  0.91160  Biso   1.000  H
  H16      1.0000 0.62120  0.33510  0.58840  Biso   1.000  H
  N17      1.0000 0.67164  0.40096  0.01706  Biso   1.000  N
  N18      1.0000 0.32836  0.90096  0.48294  Biso   1.000  N
  N19      1.0000 0.32836  0.59904  0.98294  Biso   1.000  N
  N20      1.0000 0.67164  0.09904  0.51706  Biso   1.000  N
  N21      1.0000 0.55958  0.24977  0.44561  Biso   1.000  N
  N22      1.0000 0.44042  0.74977  0.05439  Biso   1.000  N
  N23      1.0000 0.44042  0.75023  0.55439  Biso   1.000  N
  N24      1.0000 0.55958  0.25023  0.94561  Biso   1.000  N
  C1       1.0000 0.86120  0.04425  0.03903  Biso   1.000  C
  C2       1.0000 0.13880  0.54425  0.46097  Biso   1.000  C
  C3       1.0000 0.13880  0.95575  0.96097  Biso   1.000  C
  C4       1.0000 0.86120  0.45575  0.53903  Biso   1.000  C
  H17      1.0000 0.90380  0.06800  0.07620  Biso   1.000  H
  H18      1.0000 0.09620  0.56800  0.42380  Biso   1.000  H
  H19      1.0000 0.09620  0.93200  0.92380  Biso   1.000  H
  H20      1.0000 0.90380  0.43200  0.57620  Biso   1.000  H
  C5       1.0000 0.95209  0.28692  0.12504  Biso   1.000  C
  C6       1.0000 0.04791  0.78692  0.37496  Biso   1.000  C
  C7       1.0000 0.04791  0.71308  0.87496  Biso   1.000  C
  C8       1.0000 0.95209  0.21308  0.62504  Biso   1.000  C
  H21      1.0000 0.91140  0.31420  0.13630  Biso   1.000  H
  H22      1.0000 0.08860  0.81420  0.36370  Biso   1.000  H
  H23      1.0000 0.08860  0.68580  0.86370  Biso   1.000  H
  H24      1.0000 0.91140  0.18580  0.63630  Biso   1.000  H
  C9       1.0000 0.84615  0.95931  0.04233  Biso   1.000  C
  C10      1.0000 0.15385  0.45931  0.45767  Biso   1.000  C
  C11      1.0000 0.15385  0.04069  0.95767  Biso   1.000  C
  C12      1.0000 0.84615  0.54069  0.54233  Biso   1.000  C
  H25      1.0000 0.87800  0.92610  0.08090  Biso   1.000  H
  H26      1.0000 0.12200  0.42610  0.41910  Biso   1.000  H
  H27      1.0000 0.12200  0.07390  0.91910  Biso   1.000  H
  H28      1.0000 0.87800  0.57390  0.58090  Biso   1.000  H
  C13      1.0000 0.02779  0.29525  0.17147  Biso   1.000  C
  C14      1.0000 0.97221  0.79525  0.32853  Biso   1.000  C
  C15      1.0000 0.97221  0.70475  0.82853  Biso   1.000  C
  C16      1.0000 0.02779  0.20475  0.67147  Biso   1.000  C
  H29      1.0000 0.03850  0.32830  0.21340  Biso   1.000  H
  H30      1.0000 0.96150  0.82830  0.28660  Biso   1.000  H
  H31      1.0000 0.96150  0.67170  0.78660  Biso   1.000  H
  H32      1.0000 0.03850  0.17170  0.71340  Biso   1.000  H
  C17      1.0000 0.78363  0.92258  0.98831  Biso   1.000  C
  C18      1.0000 0.21637  0.42258  0.51169  Biso   1.000  C
  C19      1.0000 0.21637  0.07742  0.01169  Biso   1.000  C
  C20      1.0000 0.78363  0.57742  0.48831  Biso   1.000  C
  C21      1.0000 0.08848  0.25514  0.15672  Biso   1.000  C
  C22      1.0000 0.91152  0.75514  0.34328  Biso   1.000  C
  C23      1.0000 0.91152  0.74486  0.84328  Biso   1.000  C
  C24      1.0000 0.08848  0.24486  0.65672  Biso   1.000  C
  C25      1.0000 0.74032  0.97528  0.93261  Biso   1.000  C
  C26      1.0000 0.25968  0.47528  0.56739  Biso   1.000  C
  C27      1.0000 0.25968  0.02472  0.06739  Biso   1.000  C
  C28      1.0000 0.74032  0.52472  0.43261  Biso   1.000  C
  H33      1.0000 0.69800  0.95320  0.89410  Biso   1.000  H
  H34      1.0000 0.30200  0.45320  0.60590  Biso   1.000  H
  H35      1.0000 0.30200  0.04680  0.10590  Biso   1.000  H
  H36      1.0000 0.69800  0.54680  0.39410  Biso   1.000  H
  C29      1.0000 0.06887  0.20838  0.09361  Biso   1.000  C
  C30      1.0000 0.93113  0.70838  0.40639  Biso   1.000  C
  C31      1.0000 0.93113  0.79162  0.90639  Biso   1.000  C
  C32      1.0000 0.06887  0.29162  0.59361  Biso   1.000  C
  H37      1.0000 0.10830  0.18010  0.08120  Biso   1.000  H
  H38      1.0000 0.89170  0.68010  0.41880  Biso   1.000  H
  H39      1.0000 0.89170  0.81990  0.91880  Biso   1.000  H
  H40      1.0000 0.10830  0.31990  0.58120  Biso   1.000  H
  C33      1.0000 0.75945  0.05979  0.93388  Biso   1.000  C
  C34      1.0000 0.24055  0.55979  0.56612  Biso   1.000  C
  C35      1.0000 0.24055  0.94021  0.06612  Biso   1.000  C
  C36      1.0000 0.75945  0.44021  0.43388  Biso   1.000  C
  H41      1.0000 0.72900  0.09460  0.89580  Biso   1.000  H
  H42      1.0000 0.27100  0.59460  0.60420  Biso   1.000  H
  H43      1.0000 0.27100  0.90540  0.10420  Biso   1.000  H
  H44      1.0000 0.72900  0.40540  0.39580  Biso   1.000  H
  C37      1.0000 0.99211  0.20350  0.04949  Biso   1.000  C
  C38      1.0000 0.00789  0.70350  0.45051  Biso   1.000  C
  C39      1.0000 0.00789  0.79650  0.95051  Biso   1.000  C
  C40      1.0000 0.99211  0.29650  0.54949  Biso   1.000  C
  H45      1.0000 0.97990  0.17190  0.00660  Biso   1.000  H
  H46      1.0000 0.02010  0.67190  0.49340  Biso   1.000  H
  H47      1.0000 0.02010  0.82810  0.99340  Biso   1.000  H
  H48      1.0000 0.97990  0.32810  0.50660  Biso   1.000  H
  C41      1.0000 0.76396  0.83262  0.99088  Biso   1.000  C
  C42      1.0000 0.23604  0.33262  0.50912  Biso   1.000  C
  C43      1.0000 0.23604  0.16738  0.00912  Biso   1.000  C
  C44      1.0000 0.76396  0.66738  0.49088  Biso   1.000  C
  C45      1.0000 0.17010  0.25974  0.20598  Biso   1.000  C
  C46      1.0000 0.82990  0.75974  0.29402  Biso   1.000  C
  C47      1.0000 0.82990  0.74026  0.79402  Biso   1.000  C
  C48      1.0000 0.17010  0.24026  0.70598  Biso   1.000  C
  C49      1.0000 0.82193  0.77379  0.02575  Biso   1.000  C
  C50      1.0000 0.17807  0.27379  0.47425  Biso   1.000  C
  C51      1.0000 0.17807  0.22621  0.97425  Biso   1.000  C
  C52      1.0000 0.82193  0.72621  0.52575  Biso   1.000  C
  H49      1.0000 0.87450  0.79170  0.04700  Biso   1.000  H
  H50      1.0000 0.12550  0.29170  0.45300  Biso   1.000  H
  H51      1.0000 0.12550  0.20830  0.95300  Biso   1.000  H
  H52      1.0000 0.87450  0.70830  0.54700  Biso   1.000  H
  C53      1.0000 0.18665  0.26442  0.27974  Biso   1.000  C
  C54      1.0000 0.81335  0.76442  0.22026  Biso   1.000  C
  C55      1.0000 0.81335  0.73558  0.72026  Biso   1.000  C
  C56      1.0000 0.18665  0.23558  0.77974  Biso   1.000  C
  H53      1.0000 0.14500  0.26790  0.29800  Biso   1.000  H
  H54      1.0000 0.85500  0.76790  0.20200  Biso   1.000  H
  H55      1.0000 0.85500  0.73210  0.70200  Biso   1.000  H
  H56      1.0000 0.14500  0.23210  0.79800  Biso   1.000  H
  C57      1.0000 0.80305  0.69004  0.02931  Biso   1.000  C
  C58      1.0000 0.19695  0.19004  0.47069  Biso   1.000  C
  C59      1.0000 0.19695  0.30996  0.97069  Biso   1.000  C
  C60      1.0000 0.80305  0.80996  0.52931  Biso   1.000  C
  H57      1.0000 0.84310  0.65100  0.05300  Biso   1.000  H
  H58      1.0000 0.15690  0.15100  0.44700  Biso   1.000  H
  H59      1.0000 0.15690  0.34900  0.94700  Biso   1.000  H
  H60      1.0000 0.84310  0.84900  0.55300  Biso   1.000  H
  C61      1.0000 0.26274  0.26407  0.32616  Biso   1.000  C
  C62      1.0000 0.73726  0.76407  0.17384  Biso   1.000  C
  C63      1.0000 0.73726  0.73593  0.67384  Biso   1.000  C
  C64      1.0000 0.26274  0.23593  0.82616  Biso   1.000  C
  H61      1.0000 0.27290  0.26610  0.37610  Biso   1.000  H
  H62      1.0000 0.72710  0.76610  0.12390  Biso   1.000  H
  H63      1.0000 0.72710  0.73390  0.62390  Biso   1.000  H
  H64      1.0000 0.27290  0.23390  0.87610  Biso   1.000  H
  C65      1.0000 0.72595  0.66144  0.99869  Biso   1.000  C
  C66      1.0000 0.27405  0.16144  0.50131  Biso   1.000  C
  C67      1.0000 0.27405  0.33856  0.00131  Biso   1.000  C
  C68      1.0000 0.72595  0.83856  0.49869  Biso   1.000  C
  C69      1.0000 0.32502  0.26069  0.30042  Biso   1.000  C
  C70      1.0000 0.67498  0.76069  0.19958  Biso   1.000  C
  C71      1.0000 0.67498  0.73931  0.69958  Biso   1.000  C
  C72      1.0000 0.32502  0.23931  0.80042  Biso   1.000  C
  C73      1.0000 0.66850  0.72030  0.96268  Biso   1.000  C
  C74      1.0000 0.33150  0.22030  0.53732  Biso   1.000  C
  C75      1.0000 0.33150  0.27970  0.03732  Biso   1.000  C
  C76      1.0000 0.66850  0.77970  0.46268  Biso   1.000  C
  H65      1.0000 0.61610  0.70210  0.94050  Biso   1.000  H
  H66      1.0000 0.38390  0.20210  0.55950  Biso   1.000  H
  H67      1.0000 0.38390  0.29790  0.05950  Biso   1.000  H
  H68      1.0000 0.61610  0.79790  0.44050  Biso   1.000  H
  C77      1.0000 0.30864  0.25891  0.22662  Biso   1.000  C
  C78      1.0000 0.69136  0.75891  0.27338  Biso   1.000  C
  C79      1.0000 0.69136  0.74109  0.77338  Biso   1.000  C
  C80      1.0000 0.30864  0.24109  0.72662  Biso   1.000  C
  H69      1.0000 0.35030  0.25850  0.20820  Biso   1.000  H
  H70      1.0000 0.64970  0.75850  0.29180  Biso   1.000  H
  H71      1.0000 0.64970  0.74150  0.79180  Biso   1.000  H
  H72      1.0000 0.35030  0.24150  0.70820  Biso   1.000  H
  C81      1.0000 0.68694  0.80430  0.95903  Biso   1.000  C
  C82      1.0000 0.31306  0.30430  0.54097  Biso   1.000  C
  C83      1.0000 0.31306  0.19570  0.04097  Biso   1.000  C
  C84      1.0000 0.68694  0.69570  0.45903  Biso   1.000  C
  H73      1.0000 0.64710  0.84320  0.93470  Biso   1.000  H
  H74      1.0000 0.35290  0.34320  0.56530  Biso   1.000  H
  H75      1.0000 0.35290  0.15680  0.06530  Biso   1.000  H
  H76      1.0000 0.64710  0.65680  0.43470  Biso   1.000  H
  C85      1.0000 0.23223  0.25775  0.18027  Biso   1.000  C
  C86      1.0000 0.76777  0.75775  0.31973  Biso   1.000  C
  C87      1.0000 0.76777  0.74225  0.81973  Biso   1.000  C
  C88      1.0000 0.23223  0.24225  0.68027  Biso   1.000  C
  H77      1.0000 0.22200  0.25560  0.13030  Biso   1.000  H
  H78      1.0000 0.77800  0.75560  0.36970  Biso   1.000  H
  H79      1.0000 0.77800  0.74440  0.86970  Biso   1.000  H
  H80      1.0000 0.22200  0.24440  0.63030  Biso   1.000  H
  C89      1.0000 0.70618  0.57237  0.00598  Biso   1.000  C
  C90      1.0000 0.29382  0.07237  0.49402  Biso   1.000  C
  C91      1.0000 0.29382  0.42763  0.99402  Biso   1.000  C
  C92      1.0000 0.70618  0.92763  0.50598  Biso   1.000  C
  C93      1.0000 0.40625  0.25809  0.35041  Biso   1.000  C
  C94      1.0000 0.59375  0.75809  0.14959  Biso   1.000  C
  C95      1.0000 0.59375  0.74191  0.64959  Biso   1.000  C
  C96      1.0000 0.40625  0.24191  0.85041  Biso   1.000  C
  C97      1.0000 0.75235  0.52210  0.06233  Biso   1.000  C
  C98      1.0000 0.24765  0.02210  0.43767  Biso   1.000  C
  C99      1.0000 0.24765  0.47790  0.93767  Biso   1.000  C
  C100     1.0000 0.75235  0.97790  0.56233  Biso   1.000  C
  H81      1.0000 0.79630  0.54560  0.09830  Biso   1.000  H
  H82      1.0000 0.20370  0.04560  0.40170  Biso   1.000  H
  H83      1.0000 0.20370  0.45440  0.90170  Biso   1.000  H
  H84      1.0000 0.79630  0.95440  0.59830  Biso   1.000  H
  C101     1.0000 0.42536  0.21199  0.41384  Biso   1.000  C
  C102     1.0000 0.57464  0.71199  0.08616  Biso   1.000  C
  C103     1.0000 0.57464  0.78801  0.58616  Biso   1.000  C
  C104     1.0000 0.42536  0.28801  0.91384  Biso   1.000  C
  H85      1.0000 0.38600  0.18220  0.42530  Biso   1.000  H
  H86      1.0000 0.61400  0.68220  0.07470  Biso   1.000  H
  H87      1.0000 0.61400  0.81780  0.57470  Biso   1.000  H
  H88      1.0000 0.38600  0.31780  0.92530  Biso   1.000  H
  C105     1.0000 0.73364  0.43809  0.06541  Biso   1.000  C
  C106     1.0000 0.26636  0.93809  0.43459  Biso   1.000  C
  C107     1.0000 0.26636  0.56191  0.93459  Biso   1.000  C
  C108     1.0000 0.73364  0.06191  0.56541  Biso   1.000  C
  H89      1.0000 0.76620  0.40490  0.10360  Biso   1.000  H
  H90      1.0000 0.23380  0.90490  0.39640  Biso   1.000  H
  H91      1.0000 0.23380  0.59510  0.89640  Biso   1.000  H
  H92      1.0000 0.76620  0.09510  0.60360  Biso   1.000  H
  C109     1.0000 0.50140  0.20996  0.45958  Biso   1.000  C
  C110     1.0000 0.49860  0.70996  0.04042  Biso   1.000  C
  C111     1.0000 0.49860  0.79004  0.54042  Biso   1.000  C
  C112     1.0000 0.50140  0.29004  0.95958  Biso   1.000  C
  H93      1.0000 0.51330  0.17920  0.50280  Biso   1.000  H
  H94      1.0000 0.48670  0.67920  0.99720  Biso   1.000  H
  H95      1.0000 0.48670  0.82080  0.49720  Biso   1.000  H
  H96      1.0000 0.51330  0.32080  0.00280  Biso   1.000  H
  C113     1.0000 0.62632  0.44999  0.96403  Biso   1.000  C
  C114     1.0000 0.37368  0.94999  0.53597  Biso   1.000  C
  C115     1.0000 0.37368  0.55001  0.03597  Biso   1.000  C
  C116     1.0000 0.62632  0.05001  0.46403  Biso   1.000  C
  H97      1.0000 0.58160  0.42530  0.92990  Biso   1.000  H
  H98      1.0000 0.41840  0.92530  0.57010  Biso   1.000  H
  H99      1.0000 0.41840  0.57470  0.07010  Biso   1.000  H
  H100     1.0000 0.58160  0.07470  0.42990  Biso   1.000  H
  C117     1.0000 0.54182  0.29418  0.38466  Biso   1.000  C
  C118     1.0000 0.45818  0.79418  0.11534  Biso   1.000  C
  C119     1.0000 0.45818  0.70582  0.61534  Biso   1.000  C
  C120     1.0000 0.54182  0.20582  0.88466  Biso   1.000  C
  H101     1.0000 0.58250  0.32260  0.37430  Biso   1.000  H
  H102     1.0000 0.41750  0.82260  0.12570  Biso   1.000  H
  H103     1.0000 0.41750  0.67740  0.62570  Biso   1.000  H
  H104     1.0000 0.58250  0.17740  0.87430  Biso   1.000  H
  C121     1.0000 0.64097  0.53403  0.95637  Biso   1.000  C
  C122     1.0000 0.35903  0.03403  0.54363  Biso   1.000  C
  C123     1.0000 0.35903  0.46597  0.04363  Biso   1.000  C
  C124     1.0000 0.64097  0.96597  0.45637  Biso   1.000  C
  H105     1.0000 0.60710  0.56560  0.91770  Biso   1.000  H
  H106     1.0000 0.39290  0.06560  0.58230  Biso   1.000  H
  H107     1.0000 0.39290  0.43440  0.08230  Biso   1.000  H
  H108     1.0000 0.60710  0.93440  0.41770  Biso   1.000  H
  C125     1.0000 0.46642  0.29999  0.33649  Biso   1.000  C
  C126     1.0000 0.53358  0.79999  0.16351  Biso   1.000  C
  C127     1.0000 0.53358  0.70001  0.66351  Biso   1.000  C
  C128     1.0000 0.46642  0.20001  0.83649  Biso   1.000  C
  H109     1.0000 0.45590  0.33240  0.29420  Biso   1.000  H
  H110     1.0000 0.54410  0.83240  0.20580  Biso   1.000  H
  H111     1.0000 0.54410  0.66760  0.70580  Biso   1.000  H
  H112     1.0000 0.45590  0.16760  0.79420  Biso   1.000  H
  C129     1.0000 0.77507  0.28592  0.85231  Biso   1.000  C
  C130     1.0000 0.22493  0.78592  0.64769  Biso   1.000  C
  C131     1.0000 0.22493  0.71408  0.14769  Biso   1.000  C
  C132     1.0000 0.77507  0.21408  0.35231  Biso   1.000  C
  H113     1.0000 0.76590  0.23060  0.82800  Biso   1.000  H
  H114     1.0000 0.23410  0.73060  0.67200  Biso   1.000  H
  H115     1.0000 0.23410  0.76940  0.17200  Biso   1.000  H
  H116     1.0000 0.76590  0.26940  0.32800  Biso   1.000  H
  H117     1.0000 0.77800  0.32940  0.81770  Biso   1.000  H
  H118     1.0000 0.22200  0.82940  0.68230  Biso   1.000  H
  H119     1.0000 0.22200  0.67060  0.18230  Biso   1.000  H
  H120     1.0000 0.77800  0.17060  0.31770  Biso   1.000  H
  C133     1.0000 0.70921  0.30622  0.88008  Biso   1.000  C
  C134     1.0000 0.29079  0.80622  0.61992  Biso   1.000  C
  C135     1.0000 0.29079  0.69378  0.11992  Biso   1.000  C
  C136     1.0000 0.70921  0.19378  0.38008  Biso   1.000  C
  H121     1.0000 0.71350  0.36520  0.89720  Biso   1.000  H
  H122     1.0000 0.28650  0.86520  0.60280  Biso   1.000  H
  H123     1.0000 0.28650  0.63480  0.10280  Biso   1.000  H
  H124     1.0000 0.71350  0.13480  0.39720  Biso   1.000  H
  H125     1.0000 0.65810  0.29910  0.84170  Biso   1.000  H
  H126     1.0000 0.34190  0.79910  0.65830  Biso   1.000  H
  H127     1.0000 0.34190  0.70090  0.15830  Biso   1.000  H
  H128     1.0000 0.65810  0.20090  0.34170  Biso   1.000  H
  C137     1.0000 0.71834  0.21336  0.15868  Biso   1.000  C
  C138     1.0000 0.28166  0.71336  0.34132  Biso   1.000  C
  C139     1.0000 0.28166  0.78664  0.84132  Biso   1.000  C
  C140     1.0000 0.71834  0.28664  0.65868  Biso   1.000  C
  H129     1.0000 0.71460  0.17100  0.19380  Biso   1.000  H
  H130     1.0000 0.28540  0.67100  0.30620  Biso   1.000  H
  H131     1.0000 0.28540  0.82900  0.80620  Biso   1.000  H
  H132     1.0000 0.71460  0.32900  0.69380  Biso   1.000  H
  H133     1.0000 0.73020  0.26880  0.18270  Biso   1.000  H
  H134     1.0000 0.26980  0.76880  0.31730  Biso   1.000  H
  H135     1.0000 0.26980  0.73120  0.81730  Biso   1.000  H
  H136     1.0000 0.73020  0.23120  0.68270  Biso   1.000  H
  C141     1.0000 0.78179  0.18899  0.12942  Biso   1.000  C
  C142     1.0000 0.21821  0.68899  0.37058  Biso   1.000  C
  C143     1.0000 0.21821  0.81101  0.87058  Biso   1.000  C
  C144     1.0000 0.78179  0.31101  0.62942  Biso   1.000  C
  H137     1.0000 0.83360  0.19280  0.16730  Biso   1.000  H
  H138     1.0000 0.16640  0.69280  0.33270  Biso   1.000  H
  H139     1.0000 0.16640  0.80720  0.83270  Biso   1.000  H
  H140     1.0000 0.83360  0.30720  0.66730  Biso   1.000  H
  H141     1.0000 0.77390  0.13040  0.11140  Biso   1.000  H
  H142     1.0000 0.22610  0.63040  0.38860  Biso   1.000  H
  H143     1.0000 0.22610  0.86960  0.88860  Biso   1.000  H
  H144     1.0000 0.77390  0.36960  0.61140  Biso   1.000  H
  N25      1.0000 0.26250  0.48673  0.26095  Biso   1.000  N
  N26      1.0000 0.73750  0.98673  0.23905  Biso   1.000  N
  N27      1.0000 0.73750  0.51327  0.73905  Biso   1.000  N
  N28      1.0000 0.26250  0.01327  0.76095  Biso   1.000  N
  C145     1.0000 0.18906  0.49832  0.25988  Biso   1.000  C
  C146     1.0000 0.81094  0.99832  0.24012  Biso   1.000  C
  C147     1.0000 0.81094  0.50168  0.74012  Biso   1.000  C
  C148     1.0000 0.18906  0.00168  0.75988  Biso   1.000  C
  H145     1.0000 0.18120  0.50490  0.30420  Biso   1.000  H
  H146     1.0000 0.81880  0.00490  0.19580  Biso   1.000  H
  H147     1.0000 0.81880  0.49510  0.69580  Biso   1.000  H
  H148     1.0000 0.18120  0.99510  0.80420  Biso   1.000  H
  C149     1.0000 0.12458  0.50122  0.19866  Biso   1.000  C
  C150     1.0000 0.87542  0.00122  0.30134  Biso   1.000  C
  C151     1.0000 0.87542  0.49878  0.80134  Biso   1.000  C
  C152     1.0000 0.12458  0.99878  0.69866  Biso   1.000  C
  H149     1.0000 0.07440  0.51080  0.20160  Biso   1.000  H
  H150     1.0000 0.92560  0.01080  0.29840  Biso   1.000  H
  H151     1.0000 0.92560  0.48920  0.79840  Biso   1.000  H
  H152     1.0000 0.07440  0.98920  0.70160  Biso   1.000  H
  C153     1.0000 0.13287  0.49010  0.13205  Biso   1.000  C
  C154     1.0000 0.86713  0.99010  0.36795  Biso   1.000  C
  C155     1.0000 0.86713  0.50990  0.86795  Biso   1.000  C
  C156     1.0000 0.13287  0.00990  0.63205  Biso   1.000  C
  C157     1.0000 0.20847  0.47591  0.13295  Biso   1.000  C
  C158     1.0000 0.79153  0.97591  0.36705  Biso   1.000  C
  C159     1.0000 0.79153  0.52409  0.86705  Biso   1.000  C
  C160     1.0000 0.20847  0.02409  0.63295  Biso   1.000  C
  H153     1.0000 0.21770  0.46680  0.08950  Biso   1.000  H
  H154     1.0000 0.78230  0.96680  0.41050  Biso   1.000  H
  H155     1.0000 0.78230  0.53320  0.91050  Biso   1.000  H
  H156     1.0000 0.21770  0.03320  0.58950  Biso   1.000  H
  C161     1.0000 0.27042  0.47502  0.19710  Biso   1.000  C
  C162     1.0000 0.72958  0.97502  0.30290  Biso   1.000  C
  C163     1.0000 0.72958  0.52498  0.80290  Biso   1.000  C
  C164     1.0000 0.27042  0.02498  0.69710  Biso   1.000  C
  H157     1.0000 0.32140  0.46560  0.19580  Biso   1.000  H
  H158     1.0000 0.67860  0.96560  0.30420  Biso   1.000  H
  H159     1.0000 0.67860  0.53440  0.80420  Biso   1.000  H
  H160     1.0000 0.32140  0.03440  0.69580  Biso   1.000  H
  C165     1.0000 0.06480  0.49448  0.06459  Biso   1.000  C
  C166     1.0000 0.93520  0.99448  0.43541  Biso   1.000  C
  C167     1.0000 0.93520  0.50552  0.93541  Biso   1.000  C
  C168     1.0000 0.06480  0.00552  0.56459  Biso   1.000  C
  C169     1.0000 0.98820  0.48426  0.06373  Biso   1.000  C
  C170     1.0000 0.01180  0.98426  0.43627  Biso   1.000  C
  C171     1.0000 0.01180  0.51574  0.93627  Biso   1.000  C
  C172     1.0000 0.98820  0.01574  0.56373  Biso   1.000  C
  H161     1.0000 0.97930  0.47350  0.10720  Biso   1.000  H
  H162     1.0000 0.02070  0.97350  0.39280  Biso   1.000  H
  H163     1.0000 0.02070  0.52650  0.89280  Biso   1.000  H
  H164     1.0000 0.97930  0.02650  0.60720  Biso   1.000  H
  C173     1.0000 0.07474  0.51053  0.99907  Biso   1.000  C
  C174     1.0000 0.92526  0.01053  0.50093  Biso   1.000  C
  C175     1.0000 0.92526  0.48947  0.00093  Biso   1.000  C
  C176     1.0000 0.07474  0.98947  0.49907  Biso   1.000  C
  H165     1.0000 0.12600  0.51800  0.99790  Biso   1.000  H
  H166     1.0000 0.87400  0.01800  0.50210  Biso   1.000  H
  H167     1.0000 0.87400  0.48200  0.00210  Biso   1.000  H
  H168     1.0000 0.12600  0.98200  0.49790  Biso   1.000  H
  S1       1.0000 0.44564  0.88352  0.30306  Biso   1.000  S
  S2       1.0000 0.55436  0.38352  0.19694  Biso   1.000  S
  S3       1.0000 0.55436  0.11648  0.69694  Biso   1.000  S
  S4       1.0000 0.44564  0.61648  0.80306  Biso   1.000  S
  F1       1.0000 0.42857  0.02721  0.35779  Biso   1.000  F
  F2       1.0000 0.57143  0.52721  0.14221  Biso   1.000  F
  F3       1.0000 0.57143  0.97279  0.64221  Biso   1.000  F
  F4       1.0000 0.42857  0.47279  0.85779  Biso   1.000  F
  F5       1.0000 0.32239  0.95880  0.31140  Biso   1.000  F
  F6       1.0000 0.67761  0.45880  0.18860  Biso   1.000  F
  F7       1.0000 0.67761  0.04120  0.68860  Biso   1.000  F
  F8       1.0000 0.32239  0.54120  0.81140  Biso   1.000  F
  F9       1.0000 0.37441  0.02095  0.24427  Biso   1.000  F
  F10      1.0000 0.62559  0.52095  0.25573  Biso   1.000  F
  F11      1.0000 0.62559  0.97905  0.75573  Biso   1.000  F
  F12      1.0000 0.37441  0.47905  0.74427  Biso   1.000  F
  O9       1.0000 0.39430  0.83691  0.24443  Biso   1.000  O
  O10      1.0000 0.60570  0.33691  0.25557  Biso   1.000  O
  O11      1.0000 0.60570  0.16309  0.75557  Biso   1.000  O
  O12      1.0000 0.39430  0.66309  0.74443  Biso   1.000  O
  O13      1.0000 0.51583  0.91452  0.29433  Biso   1.000  O
  O14      1.0000 0.48417  0.41452  0.20567  Biso   1.000  O
  O15      1.0000 0.48417  0.08548  0.70567  Biso   1.000  O
  O16      1.0000 0.51583  0.58548  0.79433  Biso   1.000  O
  O17      1.0000 0.45873  0.84716  0.37221  Biso   1.000  O
  O18      1.0000 0.54127  0.34716  0.12779  Biso   1.000  O
  O19      1.0000 0.54127  0.15284  0.62779  Biso   1.000  O
  O20      1.0000 0.45873  0.65284  0.87221  Biso   1.000  O
  C177     1.0000 0.39015  0.97790  0.30468  Biso   1.000  C
  C178     1.0000 0.60985  0.47790  0.19532  Biso   1.000  C
  C179     1.0000 0.60985  0.02210  0.69532  Biso   1.000  C
  C180     1.0000 0.39015  0.52210  0.80468  Biso   1.000  C
  S5       1.0000 0.04253  0.98648  0.22719  Biso   1.000  S
  S6       1.0000 0.95747  0.48648  0.27281  Biso   1.000  S
  S7       1.0000 0.95747  0.01352  0.77281  Biso   1.000  S
  S8       1.0000 0.04253  0.51352  0.72719  Biso   1.000  S
  F13      1.0000 0.08405  0.99329  0.11440  Biso   1.000  F
  F14      1.0000 0.91595  0.49329  0.38560  Biso   1.000  F
  F15      1.0000 0.91595  0.00671  0.88560  Biso   1.000  F
  F16      1.0000 0.08405  0.50671  0.61440  Biso   1.000  F
  F17      1.0000 0.15785  0.91511  0.19887  Biso   1.000  F
  F18      1.0000 0.84215  0.41511  0.30113  Biso   1.000  F
  F19      1.0000 0.84215  0.08489  0.80113  Biso   1.000  F
  F20      1.0000 0.15785  0.58489  0.69887  Biso   1.000  F
  F21      1.0000 0.16654  0.04964  0.20770  Biso   1.000  F
  F22      1.0000 0.83346  0.54964  0.29230  Biso   1.000  F
  F23      1.0000 0.83346  0.95036  0.79230  Biso   1.000  F
  F24      1.0000 0.16654  0.45036  0.70770  Biso   1.000  F
  O21      1.0000 0.99498  0.91417  0.19498  Biso   1.000  O
  O22      1.0000 0.00502  0.41417  0.30502  Biso   1.000  O
  O23      1.0000 0.00502  0.08583  0.80502  Biso   1.000  O
  O24      1.0000 0.99498  0.58583  0.69498  Biso   1.000  O
  O25      1.0000 0.00332  0.06544  0.20614  Biso   1.000  O
  O26      1.0000 0.99668  0.56544  0.29386  Biso   1.000  O
  O27      1.0000 0.99668  0.93456  0.79386  Biso   1.000  O
  O28      1.0000 0.00332  0.43456  0.70614  Biso   1.000  O
  O29      1.0000 0.08556  0.97643  0.30163  Biso   1.000  O
  O30      1.0000 0.91444  0.47643  0.19837  Biso   1.000  O
  O31      1.0000 0.91444  0.02357  0.69837  Biso   1.000  O
  O32      1.0000 0.08556  0.52357  0.80163  Biso   1.000  O
  C181     1.0000 0.11696  0.98637  0.18492  Biso   1.000  C
  C182     1.0000 0.88304  0.48637  0.31508  Biso   1.000  C
  C183     1.0000 0.88304  0.01363  0.81508  Biso   1.000  C
  C184     1.0000 0.11696  0.51363  0.68492  Biso   1.000  C
  O33      1.0000 0.01839  0.77026  0.12664  Biso   1.000  O
  O34      1.0000 0.98161  0.27026  0.37336  Biso   1.000  O
  O35      1.0000 0.98161  0.22974  0.87336  Biso   1.000  O
  O36      1.0000 0.01839  0.72974  0.62664  Biso   1.000  O
  H169     1.0000 0.01690  0.81540  0.14810  Biso   1.000  H
  H170     1.0000 0.98310  0.31540  0.35190  Biso   1.000  H
  H171     1.0000 0.98310  0.18460  0.85190  Biso   1.000  H
  H172     1.0000 0.01690  0.68460  0.64810  Biso   1.000  H
  C185     1.0000 0.01244  0.70101  0.16934  Biso   1.000  C
  C186     1.0000 0.98756  0.20101  0.33066  Biso   1.000  C
  C187     1.0000 0.98756  0.29899  0.83066  Biso   1.000  C
  C188     1.0000 0.01244  0.79899  0.66934  Biso   1.000  C
  H173     1.0000 0.05670  0.70170  0.21430  Biso   1.000  H
  H174     1.0000 0.94330  0.20170  0.28570  Biso   1.000  H
  H175     1.0000 0.94330  0.29830  0.78570  Biso   1.000  H
  H176     1.0000 0.05670  0.79830  0.71430  Biso   1.000  H
  H177     1.0000 0.01300  0.64840  0.14390  Biso   1.000  H
  H178     1.0000 0.98700  0.14840  0.35610  Biso   1.000  H
  H179     1.0000 0.98700  0.35160  0.85610  Biso   1.000  H
  H180     1.0000 0.01300  0.85160  0.64390  Biso   1.000  H
  H181     1.0000 0.96360  0.70510  0.17940  Biso   1.000  H
  H182     1.0000 0.03640  0.20510  0.32060  Biso   1.000  H
  H183     1.0000 0.03640  0.29490  0.82060  Biso   1.000  H
  H184     1.0000 0.96360  0.79490  0.67940  Biso   1.000  H
  O37      1.0000 0.48252  0.09790  0.12645  Biso   1.000  O
  O38      1.0000 0.51748  0.59790  0.37355  Biso   1.000  O
  O39      1.0000 0.51748  0.90210  0.87355  Biso   1.000  O
  O40      1.0000 0.48252  0.40210  0.62645  Biso   1.000  O
  H185     1.0000 0.51200  0.06020  0.12050  Biso   1.000  H
  H186     1.0000 0.48800  0.56020  0.37950  Biso   1.000  H
  H187     1.0000 0.48800  0.93980  0.87950  Biso   1.000  H
  H188     1.0000 0.51200  0.43980  0.62050  Biso   1.000  H
  C189     1.0000 0.51090  0.12570  0.19730  Biso   1.000  C
  C190     1.0000 0.48910  0.62570  0.30270  Biso   1.000  C
  C191     1.0000 0.48910  0.87430  0.80270  Biso   1.000  C
  C192     1.0000 0.51090  0.37430  0.69730  Biso   1.000  C
  H189     1.0000 0.55590  0.16270  0.20420  Biso   1.000  H
  H190     1.0000 0.44410  0.66270  0.29580  Biso   1.000  H
  H191     1.0000 0.44410  0.83730  0.79580  Biso   1.000  H
  H192     1.0000 0.55590  0.33730  0.70420  Biso   1.000  H
  H193     1.0000 0.52680  0.07710  0.22930  Biso   1.000  H
  H194     1.0000 0.47320  0.57710  0.27070  Biso   1.000  H
  H195     1.0000 0.47320  0.92290  0.77070  Biso   1.000  H
  H196     1.0000 0.52680  0.42290  0.72930  Biso   1.000  H
  H197     1.0000 0.46990  0.15680  0.20800  Biso   1.000  H
  H198     1.0000 0.53010  0.65680  0.29200  Biso   1.000  H
  H199     1.0000 0.53010  0.84320  0.79200  Biso   1.000  H
  H200     1.0000 0.46990  0.34320  0.70800  Biso   1.000  H
  O41      1.0000 0.61678  0.02604  0.10964  Biso   1.000  O
  O42      1.0000 0.38322  0.52604  0.39036  Biso   1.000  O
  O43      1.0000 0.38322  0.97396  0.89036  Biso   1.000  O
  O44      1.0000 0.61678  0.47396  0.60964  Biso   1.000  O
  H201     1.0000 0.65060  0.01170  0.14840  Biso   1.000  H
  H202     1.0000 0.34940  0.51170  0.35160  Biso   1.000  H
  H203     1.0000 0.34940  0.98830  0.85160  Biso   1.000  H
  H204     1.0000 0.65060  0.48830  0.64840  Biso   1.000  H
  C193     1.0000 0.61500  0.96710  0.05663  Biso   1.000  C
  C194     1.0000 0.38500  0.46710  0.44337  Biso   1.000  C
  C195     1.0000 0.38500  0.03290  0.94337  Biso   1.000  C
  C196     1.0000 0.61500  0.53290  0.55663  Biso   1.000  C
  H205     1.0000 0.59740  0.99480  0.00990  Biso   1.000  H
  H206     1.0000 0.40260  0.49480  0.49010  Biso   1.000  H
  H207     1.0000 0.40260  0.00520  0.99010  Biso   1.000  H
  H208     1.0000 0.59740  0.50520  0.50990  Biso   1.000  H
  H209     1.0000 0.57900  0.92140  0.05680  Biso   1.000  H
  H210     1.0000 0.42100  0.42140  0.44320  Biso   1.000  H
  H211     1.0000 0.42100  0.07860  0.94320  Biso   1.000  H
  H212     1.0000 0.57900  0.57860  0.55680  Biso   1.000  H
  H213     1.0000 0.66750  0.94400  0.06620  Biso   1.000  H
  H214     1.0000 0.33250  0.44400  0.43380  Biso   1.000  H
  H215     1.0000 0.33250  0.05600  0.93380  Biso   1.000  H
  H216     1.0000 0.66750  0.55600  0.56620  Biso   1.000  H
