data_image0
_cell_length_a       15.295
_cell_length_b       14.351
_cell_length_c       26.579
_cell_angle_alpha    90
_cell_angle_beta     97.514
_cell_angle_gamma    90

_symmetry_space_group_name_H-M    "P 1"
_symmetry_int_tables_number       1

loop_
  _symmetry_equiv_pos_as_xyz
  'x, y, z'

loop_
  _atom_site_label
  _atom_site_occupancy
  _atom_site_fract_x
  _atom_site_fract_y
  _atom_site_fract_z
  _atom_site_thermal_displace_type
  _atom_site_B_iso_or_equiv
  _atom_site_type_symbol
  Cu1      1.0000 0.43805  0.77229  0.21919  Biso   1.000  Cu
  Cu2      1.0000 0.56195  0.27229  0.28081  Biso   1.000  Cu
  Cu3      1.0000 0.56195  0.22771  0.78081  Biso   1.000  Cu
  Cu4      1.0000 0.43805  0.72771  0.71919  Biso   1.000  Cu
  Cu5      1.0000 0.30248  0.89218  0.24852  Biso   1.000  Cu
  Cu6      1.0000 0.69752  0.39218  0.25148  Biso   1.000  Cu
  Cu7      1.0000 0.69752  0.10782  0.75148  Biso   1.000  Cu
  Cu8      1.0000 0.30248  0.60782  0.74852  Biso   1.000  Cu
  Cu9      1.0000 0.81160  0.36747  0.75395  Biso   1.000  Cu
  Cu10     1.0000 0.18840  0.86747  0.74605  Biso   1.000  Cu
  Cu11     1.0000 0.18840  0.63253  0.24605  Biso   1.000  Cu
  Cu12     1.0000 0.81160  0.13253  0.25395  Biso   1.000  Cu
  Cu13     1.0000 0.95358  0.25384  0.72947  Biso   1.000  Cu
  Cu14     1.0000 0.04642  0.75384  0.77053  Biso   1.000  Cu
  Cu15     1.0000 0.04642  0.74616  0.27053  Biso   1.000  Cu
  Cu16     1.0000 0.95358  0.24616  0.22947  Biso   1.000  Cu
  O1       1.0000 0.39000  0.80660  0.28089  Biso   1.000  O
  O2       1.0000 0.61000  0.30660  0.21911  Biso   1.000  O
  O3       1.0000 0.61000  0.19340  0.71911  Biso   1.000  O
  O4       1.0000 0.39000  0.69340  0.78089  Biso   1.000  O
  O5       1.0000 0.04610  0.55550  0.74040  Biso   1.000  O
  O6       1.0000 0.95390  0.05550  0.75960  Biso   1.000  O
  O7       1.0000 0.95390  0.44450  0.25960  Biso   1.000  O
  O8       1.0000 0.04610  0.94450  0.24040  Biso   1.000  O
  O9       1.0000 0.55600  0.04920  0.23830  Biso   1.000  O
  O10      1.0000 0.44400  0.54920  0.26170  Biso   1.000  O
  O11      1.0000 0.44400  0.95080  0.76170  Biso   1.000  O
  O12      1.0000 0.55600  0.45080  0.73830  Biso   1.000  O
  O13      1.0000 0.32360  0.81860  0.19016  Biso   1.000  O
  O14      1.0000 0.67640  0.31860  0.30984  Biso   1.000  O
  O15      1.0000 0.67640  0.18140  0.80984  Biso   1.000  O
  O16      1.0000 0.32360  0.68140  0.69016  Biso   1.000  O
  O17      1.0000 0.91620  0.50240  0.75000  Biso   1.000  O
  O18      1.0000 0.08380  0.00240  0.75000  Biso   1.000  O
  O19      1.0000 0.08380  0.49760  0.25000  Biso   1.000  O
  O20      1.0000 0.91620  0.99760  0.25000  Biso   1.000  O
  O21      1.0000 0.51150  0.91770  0.20526  Biso   1.000  O
  O22      1.0000 0.48850  0.41770  0.29474  Biso   1.000  O
  O23      1.0000 0.48850  0.08230  0.79474  Biso   1.000  O
  O24      1.0000 0.51150  0.58230  0.70526  Biso   1.000  O
  O25      1.0000 0.83610  0.28820  0.69878  Biso   1.000  O
  O26      1.0000 0.16390  0.78820  0.80122  Biso   1.000  O
  O27      1.0000 0.16390  0.71180  0.30122  Biso   1.000  O
  O28      1.0000 0.83610  0.21180  0.19878  Biso   1.000  O
  O29      1.0000 0.01190  0.41480  0.71890  Biso   1.000  O
  O30      1.0000 0.98810  0.91480  0.78110  Biso   1.000  O
  O31      1.0000 0.98810  0.58520  0.28110  Biso   1.000  O
  O32      1.0000 0.01190  0.08520  0.21890  Biso   1.000  O
  O33      1.0000 0.41930  0.01090  0.23607  Biso   1.000  O
  O34      1.0000 0.58070  0.51090  0.26393  Biso   1.000  O
  O35      1.0000 0.58070  0.98910  0.76393  Biso   1.000  O
  O36      1.0000 0.41930  0.48910  0.73607  Biso   1.000  O
  O37      1.0000 0.90000  0.28650  0.78976  Biso   1.000  O
  O38      1.0000 0.10000  0.78650  0.71024  Biso   1.000  O
  O39      1.0000 0.10000  0.71350  0.21024  Biso   1.000  O
  O40      1.0000 0.90000  0.21350  0.28976  Biso   1.000  O
  N1       1.0000 0.54400  0.73270  0.26630  Biso   1.000  N
  N2       1.0000 0.45600  0.23270  0.23370  Biso   1.000  N
  N3       1.0000 0.45600  0.26730  0.73370  Biso   1.000  N
  N4       1.0000 0.54400  0.76730  0.76630  Biso   1.000  N
  H1       1.0000 0.55750  0.67160  0.26030  Biso   1.000  H
  H2       1.0000 0.44250  0.17160  0.23970  Biso   1.000  H
  H3       1.0000 0.44250  0.32840  0.73970  Biso   1.000  H
  H4       1.0000 0.55750  0.82840  0.76030  Biso   1.000  H
  H5       1.0000 0.59170  0.76910  0.26140  Biso   1.000  H
  H6       1.0000 0.40830  0.26910  0.23860  Biso   1.000  H
  H7       1.0000 0.40830  0.23090  0.73860  Biso   1.000  H
  H8       1.0000 0.59170  0.73090  0.76140  Biso   1.000  H
  N5       1.0000 0.47950  0.72050  0.15620  Biso   1.000  N
  N6       1.0000 0.52050  0.22050  0.34380  Biso   1.000  N
  N7       1.0000 0.52050  0.27950  0.84380  Biso   1.000  N
  N8       1.0000 0.47950  0.77950  0.65620  Biso   1.000  N
  N9       1.0000 0.99950  0.21220  0.66650  Biso   1.000  N
  N10      1.0000 0.00050  0.71220  0.83350  Biso   1.000  N
  N11      1.0000 0.00050  0.78780  0.33350  Biso   1.000  N
  N12      1.0000 0.99950  0.28780  0.16650  Biso   1.000  N
  N13      1.0000 0.99150  0.49030  0.73650  Biso   1.000  N
  N14      1.0000 0.00850  0.99030  0.76350  Biso   1.000  N
  N15      1.0000 0.00850  0.50970  0.26350  Biso   1.000  N
  N16      1.0000 0.99150  0.00970  0.23650  Biso   1.000  N
  N17      1.0000 0.49610  0.99170  0.22660  Biso   1.000  N
  N18      1.0000 0.50390  0.49170  0.27340  Biso   1.000  N
  N19      1.0000 0.50390  0.00830  0.77340  Biso   1.000  N
  N20      1.0000 0.49610  0.50830  0.72660  Biso   1.000  N
  N21      1.0000 0.21550  0.96250  0.20010  Biso   1.000  N
  N22      1.0000 0.78450  0.46250  0.29990  Biso   1.000  N
  N23      1.0000 0.78450  0.03750  0.79990  Biso   1.000  N
  N24      1.0000 0.21550  0.53750  0.70010  Biso   1.000  N
  H9       1.0000 0.16170  0.96490  0.21200  Biso   1.000  H
  H10      1.0000 0.83830  0.46490  0.28800  Biso   1.000  H
  H11      1.0000 0.83830  0.03510  0.78800  Biso   1.000  H
  H12      1.0000 0.16170  0.53510  0.71200  Biso   1.000  H
  H13      1.0000 0.23480  0.02250  0.19630  Biso   1.000  H
  H14      1.0000 0.76520  0.52250  0.30370  Biso   1.000  H
  H15      1.0000 0.76520  0.97750  0.80370  Biso   1.000  H
  H16      1.0000 0.23480  0.47750  0.69630  Biso   1.000  H
  N25      1.0000 0.77020  0.42330  0.81450  Biso   1.000  N
  N26      1.0000 0.22980  0.92330  0.68550  Biso   1.000  N
  N27      1.0000 0.22980  0.57670  0.18550  Biso   1.000  N
  N28      1.0000 0.77020  0.07670  0.31450  Biso   1.000  N
  N29      1.0000 0.26890  0.94610  0.31220  Biso   1.000  N
  N30      1.0000 0.73110  0.44610  0.18780  Biso   1.000  N
  N31      1.0000 0.73110  0.05390  0.68780  Biso   1.000  N
  N32      1.0000 0.26890  0.55390  0.81220  Biso   1.000  N
  N33      1.0000 0.73160  0.43780  0.70120  Biso   1.000  N
  N34      1.0000 0.26840  0.93780  0.79880  Biso   1.000  N
  N35      1.0000 0.26840  0.56220  0.29880  Biso   1.000  N
  N36      1.0000 0.73160  0.06220  0.20120  Biso   1.000  N
  H17      1.0000 0.67680  0.44510  0.71140  Biso   1.000  H
  H18      1.0000 0.32320  0.94510  0.78860  Biso   1.000  H
  H19      1.0000 0.32320  0.55490  0.28860  Biso   1.000  H
  H20      1.0000 0.67680  0.05490  0.21140  Biso   1.000  H
  H21      1.0000 0.75450  0.49580  0.69620  Biso   1.000  H
  H22      1.0000 0.24550  0.99580  0.80380  Biso   1.000  H
  H23      1.0000 0.24550  0.50420  0.30380  Biso   1.000  H
  H24      1.0000 0.75450  0.00420  0.19620  Biso   1.000  H
  N37      1.0000 0.06320  0.22880  0.77700  Biso   1.000  N
  N38      1.0000 0.93680  0.72880  0.72300  Biso   1.000  N
  N39      1.0000 0.93680  0.77120  0.22300  Biso   1.000  N
  N40      1.0000 0.06320  0.27120  0.27700  Biso   1.000  N
  H25      1.0000 0.08520  0.17070  0.77110  Biso   1.000  H
  H26      1.0000 0.91480  0.67070  0.72890  Biso   1.000  H
  H27      1.0000 0.91480  0.82930  0.22890  Biso   1.000  H
  H28      1.0000 0.08520  0.32930  0.27110  Biso   1.000  H
  H29      1.0000 0.10570  0.27260  0.77300  Biso   1.000  H
  H30      1.0000 0.89430  0.77260  0.72700  Biso   1.000  H
  H31      1.0000 0.89430  0.72740  0.22700  Biso   1.000  H
  H32      1.0000 0.10570  0.22740  0.27300  Biso   1.000  H
  C1       1.0000 0.50900  0.63140  0.15560  Biso   1.000  C
  C2       1.0000 0.49100  0.13140  0.34440  Biso   1.000  C
  C3       1.0000 0.49100  0.36860  0.84440  Biso   1.000  C
  C4       1.0000 0.50900  0.86860  0.65560  Biso   1.000  C
  H33      1.0000 0.50570  0.59320  0.18450  Biso   1.000  H
  H34      1.0000 0.49430  0.09320  0.31550  Biso   1.000  H
  H35      1.0000 0.49430  0.40680  0.81550  Biso   1.000  H
  H36      1.0000 0.50570  0.90680  0.68450  Biso   1.000  H
  C5       1.0000 0.98870  0.12500  0.65050  Biso   1.000  C
  C6       1.0000 0.01130  0.62500  0.84950  Biso   1.000  C
  C7       1.0000 0.01130  0.87500  0.34950  Biso   1.000  C
  C8       1.0000 0.98870  0.37500  0.15050  Biso   1.000  C
  H37      1.0000 0.95780  0.08400  0.67000  Biso   1.000  H
  H38      1.0000 0.04220  0.58400  0.83000  Biso   1.000  H
  H39      1.0000 0.04220  0.91600  0.33000  Biso   1.000  H
  H40      1.0000 0.95780  0.41600  0.17000  Biso   1.000  H
  C9       1.0000 0.54330  0.59450  0.11480  Biso   1.000  C
  C10      1.0000 0.45670  0.09450  0.38520  Biso   1.000  C
  C11      1.0000 0.45670  0.40550  0.88520  Biso   1.000  C
  C12      1.0000 0.54330  0.90550  0.61480  Biso   1.000  C
  H41      1.0000 0.56360  0.53190  0.11610  Biso   1.000  H
  H42      1.0000 0.43640  0.03190  0.38390  Biso   1.000  H
  H43      1.0000 0.43640  0.46810  0.88390  Biso   1.000  H
  H44      1.0000 0.56360  0.96810  0.61610  Biso   1.000  H
  C13      1.0000 0.01850  0.08950  0.60810  Biso   1.000  C
  C14      1.0000 0.98150  0.58950  0.89190  Biso   1.000  C
  C15      1.0000 0.98150  0.91050  0.39190  Biso   1.000  C
  C16      1.0000 0.01850  0.41050  0.10810  Biso   1.000  C
  H45      1.0000 0.00630  0.02680  0.59800  Biso   1.000  H
  H46      1.0000 0.99370  0.52680  0.90200  Biso   1.000  H
  H47      1.0000 0.99370  0.97320  0.40200  Biso   1.000  H
  H48      1.0000 0.00630  0.47320  0.09800  Biso   1.000  H
  C17      1.0000 0.54870  0.64800  0.07100  Biso   1.000  C
  C18      1.0000 0.45130  0.14800  0.42900  Biso   1.000  C
  C19      1.0000 0.45130  0.35200  0.92900  Biso   1.000  C
  C20      1.0000 0.54870  0.85200  0.57100  Biso   1.000  C
  C21      1.0000 0.06740  0.14740  0.57970  Biso   1.000  C
  C22      1.0000 0.93260  0.64740  0.92030  Biso   1.000  C
  C23      1.0000 0.93260  0.85260  0.42030  Biso   1.000  C
  C24      1.0000 0.06740  0.35260  0.07970  Biso   1.000  C
  C25      1.0000 0.58700  0.60880  0.02700  Biso   1.000  C
  C26      1.0000 0.41300  0.10880  0.47300  Biso   1.000  C
  C27      1.0000 0.41300  0.39120  0.97300  Biso   1.000  C
  C28      1.0000 0.58700  0.89120  0.52700  Biso   1.000  C
  C29      1.0000 0.10260  0.11410  0.53290  Biso   1.000  C
  C30      1.0000 0.89740  0.61410  0.96710  Biso   1.000  C
  C31      1.0000 0.89740  0.88590  0.46710  Biso   1.000  C
  C32      1.0000 0.10260  0.38590  0.03290  Biso   1.000  C
  C33      1.0000 0.59760  0.51340  0.02130  Biso   1.000  C
  C34      1.0000 0.40240  0.01340  0.47870  Biso   1.000  C
  C35      1.0000 0.40240  0.48660  0.97870  Biso   1.000  C
  C36      1.0000 0.59760  0.98660  0.52130  Biso   1.000  C
  H49      1.0000 0.57960  0.47210  0.04590  Biso   1.000  H
  H50      1.0000 0.42040  0.97210  0.45410  Biso   1.000  H
  H51      1.0000 0.42040  0.52790  0.95410  Biso   1.000  H
  H52      1.0000 0.57960  0.02790  0.54590  Biso   1.000  H
  C37      1.0000 0.10970  0.01880  0.52350  Biso   1.000  C
  C38      1.0000 0.89030  0.51880  0.97650  Biso   1.000  C
  C39      1.0000 0.89030  0.98120  0.47650  Biso   1.000  C
  C40      1.0000 0.10970  0.48120  0.02350  Biso   1.000  C
  H53      1.0000 0.09110  0.97520  0.54680  Biso   1.000  H
  H54      1.0000 0.90890  0.47520  0.95320  Biso   1.000  H
  H55      1.0000 0.90890  0.02480  0.45320  Biso   1.000  H
  H56      1.0000 0.09110  0.52480  0.04680  Biso   1.000  H
  C41      1.0000 0.63390  0.47740  0.98040  Biso   1.000  C
  C42      1.0000 0.36610  0.97740  0.51960  Biso   1.000  C
  C43      1.0000 0.36610  0.52260  0.01960  Biso   1.000  C
  C44      1.0000 0.63390  0.02260  0.48040  Biso   1.000  C
  H57      1.0000 0.64220  0.41210  0.97790  Biso   1.000  H
  H58      1.0000 0.35780  0.91210  0.52210  Biso   1.000  H
  H59      1.0000 0.35780  0.58790  0.02210  Biso   1.000  H
  H60      1.0000 0.64220  0.08790  0.47790  Biso   1.000  H
  C45      1.0000 0.14320  0.98700  0.48100  Biso   1.000  C
  C46      1.0000 0.85680  0.48700  0.01900  Biso   1.000  C
  C47      1.0000 0.85680  0.01300  0.51900  Biso   1.000  C
  C48      1.0000 0.14320  0.51300  0.98100  Biso   1.000  C
  H61      1.0000 0.14740  0.92190  0.47530  Biso   1.000  H
  H62      1.0000 0.85260  0.42190  0.02470  Biso   1.000  H
  H63      1.0000 0.85260  0.07810  0.52470  Biso   1.000  H
  H64      1.0000 0.14740  0.57810  0.97530  Biso   1.000  H
  C49      1.0000 0.65840  0.53600  0.94290  Biso   1.000  C
  C50      1.0000 0.34160  0.03600  0.55710  Biso   1.000  C
  C51      1.0000 0.34160  0.46400  0.05710  Biso   1.000  C
  C52      1.0000 0.65840  0.96400  0.44290  Biso   1.000  C
  C53      1.0000 0.17100  0.04910  0.44630  Biso   1.000  C
  C54      1.0000 0.82900  0.54910  0.05370  Biso   1.000  C
  C55      1.0000 0.82900  0.95090  0.55370  Biso   1.000  C
  C56      1.0000 0.17100  0.45090  0.94630  Biso   1.000  C
  C57      1.0000 0.69820  0.49670  0.89880  Biso   1.000  C
  C58      1.0000 0.30180  0.99670  0.60120  Biso   1.000  C
  C59      1.0000 0.30180  0.50330  0.10120  Biso   1.000  C
  C60      1.0000 0.69820  0.00330  0.39880  Biso   1.000  C
  C61      1.0000 0.20620  0.01560  0.39970  Biso   1.000  C
  C62      1.0000 0.79380  0.51560  0.10030  Biso   1.000  C
  C63      1.0000 0.79380  0.98440  0.60030  Biso   1.000  C
  C64      1.0000 0.20620  0.48440  0.89970  Biso   1.000  C
  C65      1.0000 0.72310  0.40390  0.89620  Biso   1.000  C
  C66      1.0000 0.27690  0.90390  0.60380  Biso   1.000  C
  C67      1.0000 0.27690  0.59610  0.10380  Biso   1.000  C
  C68      1.0000 0.72310  0.09610  0.39620  Biso   1.000  C
  H65      1.0000 0.71630  0.36320  0.92360  Biso   1.000  H
  H66      1.0000 0.28370  0.86320  0.57640  Biso   1.000  H
  H67      1.0000 0.28370  0.63680  0.07640  Biso   1.000  H
  H68      1.0000 0.71630  0.13680  0.42360  Biso   1.000  H
  C69      1.0000 0.23660  0.92400  0.39680  Biso   1.000  C
  C70      1.0000 0.76340  0.42400  0.10320  Biso   1.000  C
  C71      1.0000 0.76340  0.07600  0.60320  Biso   1.000  C
  C72      1.0000 0.23660  0.57600  0.89680  Biso   1.000  C
  H69      1.0000 0.23720  0.88330  0.42500  Biso   1.000  H
  H70      1.0000 0.76280  0.38330  0.07500  Biso   1.000  H
  H71      1.0000 0.76280  0.11670  0.57500  Biso   1.000  H
  H72      1.0000 0.23720  0.61670  0.92500  Biso   1.000  H
  C73      1.0000 0.75750  0.37010  0.85430  Biso   1.000  C
  C74      1.0000 0.24250  0.87010  0.64570  Biso   1.000  C
  C75      1.0000 0.24250  0.62990  0.14570  Biso   1.000  C
  C76      1.0000 0.75750  0.12990  0.35430  Biso   1.000  C
  H73      1.0000 0.77300  0.30610  0.85370  Biso   1.000  H
  H74      1.0000 0.22700  0.80610  0.64630  Biso   1.000  H
  H75      1.0000 0.22700  0.69390  0.14630  Biso   1.000  H
  H76      1.0000 0.77300  0.19390  0.35370  Biso   1.000  H
  C77      1.0000 0.26550  0.89320  0.35290  Biso   1.000  C
  C78      1.0000 0.73450  0.39320  0.14710  Biso   1.000  C
  C79      1.0000 0.73450  0.10680  0.64710  Biso   1.000  C
  C80      1.0000 0.26550  0.60680  0.85290  Biso   1.000  C
  H77      1.0000 0.28420  0.83030  0.35160  Biso   1.000  H
  H78      1.0000 0.71580  0.33030  0.14840  Biso   1.000  H
  H79      1.0000 0.71580  0.16970  0.64840  Biso   1.000  H
  H80      1.0000 0.28420  0.66970  0.85160  Biso   1.000  H
  C81      1.0000 0.74650  0.51310  0.81680  Biso   1.000  C
  C82      1.0000 0.25350  0.01310  0.68320  Biso   1.000  C
  C83      1.0000 0.25350  0.48690  0.18320  Biso   1.000  C
  C84      1.0000 0.74650  0.98690  0.31680  Biso   1.000  C
  H81      1.0000 0.75470  0.55240  0.78910  Biso   1.000  H
  H82      1.0000 0.24530  0.05240  0.71090  Biso   1.000  H
  H83      1.0000 0.24530  0.44760  0.21090  Biso   1.000  H
  H84      1.0000 0.75470  0.94760  0.28910  Biso   1.000  H
  C85      1.0000 0.24320  0.03490  0.31570  Biso   1.000  C
  C86      1.0000 0.75680  0.53490  0.18430  Biso   1.000  C
  C87      1.0000 0.75680  0.96510  0.68430  Biso   1.000  C
  C88      1.0000 0.24320  0.46510  0.81570  Biso   1.000  C
  H85      1.0000 0.24740  0.07540  0.28780  Biso   1.000  H
  H86      1.0000 0.75260  0.57540  0.21220  Biso   1.000  H
  H87      1.0000 0.75260  0.92460  0.71220  Biso   1.000  H
  H88      1.0000 0.24740  0.42460  0.78780  Biso   1.000  H
  C89      1.0000 0.71090  0.55150  0.85700  Biso   1.000  C
  C90      1.0000 0.28910  0.05150  0.64300  Biso   1.000  C
  C91      1.0000 0.28910  0.44850  0.14300  Biso   1.000  C
  C92      1.0000 0.71090  0.94850  0.35700  Biso   1.000  C
  H89      1.0000 0.69500  0.61550  0.85630  Biso   1.000  H
  H90      1.0000 0.30500  0.11550  0.64370  Biso   1.000  H
  H91      1.0000 0.30500  0.38450  0.14370  Biso   1.000  H
  H92      1.0000 0.69500  0.88450  0.35630  Biso   1.000  H
  C93      1.0000 0.21110  0.06970  0.35780  Biso   1.000  C
  C94      1.0000 0.78890  0.56970  0.14220  Biso   1.000  C
  C95      1.0000 0.78890  0.93030  0.64220  Biso   1.000  C
  C96      1.0000 0.21110  0.43030  0.85780  Biso   1.000  C
  H93      1.0000 0.19180  0.13270  0.35780  Biso   1.000  H
  H94      1.0000 0.80820  0.63270  0.14220  Biso   1.000  H
  H95      1.0000 0.80820  0.86730  0.64220  Biso   1.000  H
  H96      1.0000 0.19180  0.36730  0.85780  Biso   1.000  H
  C97      1.0000 0.64800  0.63150  0.94870  Biso   1.000  C
  C98      1.0000 0.35200  0.13150  0.55130  Biso   1.000  C
  C99      1.0000 0.35200  0.36850  0.05130  Biso   1.000  C
  C100     1.0000 0.64800  0.86850  0.44870  Biso   1.000  C
  H97      1.0000 0.66610  0.67270  0.92400  Biso   1.000  H
  H98      1.0000 0.33390  0.17270  0.57600  Biso   1.000  H
  H99      1.0000 0.33390  0.32730  0.07600  Biso   1.000  H
  H100     1.0000 0.66610  0.82730  0.42400  Biso   1.000  H
  C101     1.0000 0.16500  0.14350  0.45530  Biso   1.000  C
  C102     1.0000 0.83500  0.64350  0.04470  Biso   1.000  C
  C103     1.0000 0.83500  0.85650  0.54470  Biso   1.000  C
  C104     1.0000 0.16500  0.35650  0.95530  Biso   1.000  C
  H101     1.0000 0.18450  0.18690  0.43220  Biso   1.000  H
  H102     1.0000 0.81550  0.68690  0.06780  Biso   1.000  H
  H103     1.0000 0.81550  0.81310  0.56780  Biso   1.000  H
  H104     1.0000 0.18450  0.31310  0.93220  Biso   1.000  H
  C105     1.0000 0.61190  0.66780  0.98920  Biso   1.000  C
  C106     1.0000 0.38810  0.16780  0.51080  Biso   1.000  C
  C107     1.0000 0.38810  0.33220  0.01080  Biso   1.000  C
  C108     1.0000 0.61190  0.83220  0.48920  Biso   1.000  C
  H105     1.0000 0.60380  0.73320  0.99170  Biso   1.000  H
  H106     1.0000 0.39620  0.23320  0.50830  Biso   1.000  H
  H107     1.0000 0.39620  0.26680  0.00830  Biso   1.000  H
  H108     1.0000 0.60380  0.76680  0.49170  Biso   1.000  H
  C109     1.0000 0.13050  0.17580  0.49820  Biso   1.000  C
  C110     1.0000 0.86950  0.67580  0.00180  Biso   1.000  C
  C111     1.0000 0.86950  0.82420  0.50180  Biso   1.000  C
  C112     1.0000 0.13050  0.32420  0.99820  Biso   1.000  C
  H109     1.0000 0.12610  0.24100  0.50360  Biso   1.000  H
  H110     1.0000 0.87390  0.74100  0.99640  Biso   1.000  H
  H111     1.0000 0.87390  0.75900  0.49640  Biso   1.000  H
  H112     1.0000 0.12610  0.25900  0.00360  Biso   1.000  H
  C113     1.0000 0.51500  0.73850  0.07190  Biso   1.000  C
  C114     1.0000 0.48500  0.23850  0.42810  Biso   1.000  C
  C115     1.0000 0.48500  0.26150  0.92810  Biso   1.000  C
  C116     1.0000 0.51500  0.76150  0.57190  Biso   1.000  C
  H113     1.0000 0.51440  0.77740  0.04300  Biso   1.000  H
  H114     1.0000 0.48560  0.27740  0.45700  Biso   1.000  H
  H115     1.0000 0.48560  0.22260  0.95700  Biso   1.000  H
  H116     1.0000 0.51440  0.72260  0.54300  Biso   1.000  H
  C117     1.0000 0.07960  0.23890  0.59650  Biso   1.000  C
  C118     1.0000 0.92040  0.73890  0.90350  Biso   1.000  C
  C119     1.0000 0.92040  0.76110  0.40350  Biso   1.000  C
  C120     1.0000 0.07960  0.26110  0.09650  Biso   1.000  C
  H117     1.0000 0.11090  0.28170  0.57820  Biso   1.000  H
  H118     1.0000 0.88910  0.78170  0.92180  Biso   1.000  H
  H119     1.0000 0.88910  0.71830  0.42180  Biso   1.000  H
  H120     1.0000 0.11090  0.21830  0.07820  Biso   1.000  H
  C121     1.0000 0.48300  0.77130  0.11410  Biso   1.000  C
  C122     1.0000 0.51700  0.27130  0.38590  Biso   1.000  C
  C123     1.0000 0.51700  0.22870  0.88590  Biso   1.000  C
  C124     1.0000 0.48300  0.72870  0.61410  Biso   1.000  C
  H121     1.0000 0.46200  0.83360  0.11370  Biso   1.000  H
  H122     1.0000 0.53800  0.33360  0.38630  Biso   1.000  H
  H123     1.0000 0.53800  0.16640  0.88630  Biso   1.000  H
  H124     1.0000 0.46200  0.66640  0.61370  Biso   1.000  H
  C125     1.0000 0.04600  0.26750  0.63980  Biso   1.000  C
  C126     1.0000 0.95400  0.76750  0.86020  Biso   1.000  C
  C127     1.0000 0.95400  0.73250  0.36020  Biso   1.000  C
  C128     1.0000 0.04600  0.23250  0.13980  Biso   1.000  C
  H125     1.0000 0.05680  0.32970  0.65110  Biso   1.000  H
  H126     1.0000 0.94320  0.82970  0.84890  Biso   1.000  H
  H127     1.0000 0.94320  0.67030  0.34890  Biso   1.000  H
  H128     1.0000 0.05680  0.17030  0.15110  Biso   1.000  H
  C129     1.0000 0.29730  0.87130  0.14530  Biso   1.000  C
  C130     1.0000 0.70270  0.37130  0.35470  Biso   1.000  C
  C131     1.0000 0.70270  0.12870  0.85470  Biso   1.000  C
  C132     1.0000 0.29730  0.62870  0.64530  Biso   1.000  C
  H129     1.0000 0.29330  0.83060  0.11500  Biso   1.000  H
  H130     1.0000 0.70670  0.33060  0.38500  Biso   1.000  H
  H131     1.0000 0.70670  0.16940  0.88500  Biso   1.000  H
  H132     1.0000 0.29330  0.66940  0.61500  Biso   1.000  H
  H133     1.0000 0.34040  0.92140  0.14170  Biso   1.000  H
  H134     1.0000 0.65960  0.42140  0.35830  Biso   1.000  H
  H135     1.0000 0.65960  0.07860  0.85830  Biso   1.000  H
  H136     1.0000 0.34040  0.57860  0.64170  Biso   1.000  H
  C133     1.0000 0.46050  0.82390  0.32020  Biso   1.000  C
  C134     1.0000 0.53950  0.32390  0.17980  Biso   1.000  C
  C135     1.0000 0.53950  0.17610  0.67980  Biso   1.000  C
  C136     1.0000 0.46050  0.67610  0.82020  Biso   1.000  C
  H137     1.0000 0.43830  0.82740  0.35350  Biso   1.000  H
  H138     1.0000 0.56170  0.32740  0.14650  Biso   1.000  H
  H139     1.0000 0.56170  0.17260  0.64650  Biso   1.000  H
  H140     1.0000 0.43830  0.67260  0.85350  Biso   1.000  H
  H141     1.0000 0.49010  0.88340  0.31410  Biso   1.000  H
  H142     1.0000 0.50990  0.38340  0.18590  Biso   1.000  H
  H143     1.0000 0.50990  0.11660  0.68590  Biso   1.000  H
  H144     1.0000 0.49010  0.61660  0.81410  Biso   1.000  H
  C137     1.0000 0.81480  0.33470  0.65180  Biso   1.000  C
  C138     1.0000 0.18520  0.83470  0.84820  Biso   1.000  C
  C139     1.0000 0.18520  0.66530  0.34820  Biso   1.000  C
  C140     1.0000 0.81480  0.16530  0.15180  Biso   1.000  C
  H145     1.0000 0.81140  0.28980  0.62340  Biso   1.000  H
  H146     1.0000 0.18860  0.78980  0.87660  Biso   1.000  H
  H147     1.0000 0.18860  0.71020  0.37660  Biso   1.000  H
  H148     1.0000 0.81140  0.21020  0.12340  Biso   1.000  H
  H149     1.0000 0.86020  0.38200  0.64720  Biso   1.000  H
  H150     1.0000 0.13980  0.88200  0.85280  Biso   1.000  H
  H151     1.0000 0.13980  0.61800  0.35280  Biso   1.000  H
  H152     1.0000 0.86020  0.11800  0.14720  Biso   1.000  H
  C141     1.0000 0.96710  0.30660  0.82970  Biso   1.000  C
  C142     1.0000 0.03290  0.80660  0.67030  Biso   1.000  C
  C143     1.0000 0.03290  0.69340  0.17030  Biso   1.000  C
  C144     1.0000 0.96710  0.19340  0.32970  Biso   1.000  C
  H153     1.0000 0.94340  0.30480  0.86260  Biso   1.000  H
  H154     1.0000 0.05660  0.80480  0.63740  Biso   1.000  H
  H155     1.0000 0.05660  0.69520  0.13740  Biso   1.000  H
  H156     1.0000 0.94340  0.19520  0.36260  Biso   1.000  H
  H157     1.0000 0.99150  0.36950  0.82530  Biso   1.000  H
  H158     1.0000 0.00850  0.86950  0.67470  Biso   1.000  H
  H159     1.0000 0.00850  0.63050  0.17470  Biso   1.000  H
  H160     1.0000 0.99150  0.13050  0.32530  Biso   1.000  H
  C145     1.0000 0.20740  0.91260  0.15090  Biso   1.000  C
  C146     1.0000 0.79260  0.41260  0.34910  Biso   1.000  C
  C147     1.0000 0.79260  0.08740  0.84910  Biso   1.000  C
  C148     1.0000 0.20740  0.58740  0.65090  Biso   1.000  C
  H161     1.0000 0.18890  0.95630  0.12260  Biso   1.000  H
  H162     1.0000 0.81110  0.45630  0.37740  Biso   1.000  H
  H163     1.0000 0.81110  0.04370  0.87740  Biso   1.000  H
  H164     1.0000 0.18890  0.54370  0.62260  Biso   1.000  H
  H165     1.0000 0.16270  0.86260  0.15020  Biso   1.000  H
  H166     1.0000 0.83730  0.36260  0.34980  Biso   1.000  H
  H167     1.0000 0.83730  0.13740  0.84980  Biso   1.000  H
  H168     1.0000 0.16270  0.63740  0.65020  Biso   1.000  H
  C149     1.0000 0.52390  0.74330  0.31930  Biso   1.000  C
  C150     1.0000 0.47610  0.24330  0.18070  Biso   1.000  C
  C151     1.0000 0.47610  0.25670  0.68070  Biso   1.000  C
  C152     1.0000 0.52390  0.75670  0.81930  Biso   1.000  C
  H169     1.0000 0.57870  0.75580  0.34250  Biso   1.000  H
  H170     1.0000 0.42130  0.25580  0.15750  Biso   1.000  H
  H171     1.0000 0.42130  0.24420  0.65750  Biso   1.000  H
  H172     1.0000 0.57870  0.74420  0.84250  Biso   1.000  H
  H173     1.0000 0.49690  0.68540  0.33050  Biso   1.000  H
  H174     1.0000 0.50310  0.18540  0.16950  Biso   1.000  H
  H175     1.0000 0.50310  0.31460  0.66950  Biso   1.000  H
  H176     1.0000 0.49690  0.81460  0.83050  Biso   1.000  H
  C153     1.0000 0.72490  0.38170  0.65340  Biso   1.000  C
  C154     1.0000 0.27510  0.88170  0.84660  Biso   1.000  C
  C155     1.0000 0.27510  0.61830  0.34660  Biso   1.000  C
  C156     1.0000 0.72490  0.11830  0.15340  Biso   1.000  C
  H177     1.0000 0.71030  0.42270  0.62350  Biso   1.000  H
  H178     1.0000 0.28970  0.92270  0.87650  Biso   1.000  H
  H179     1.0000 0.28970  0.57730  0.37650  Biso   1.000  H
  H180     1.0000 0.71030  0.07730  0.12350  Biso   1.000  H
  H181     1.0000 0.67800  0.33410  0.65310  Biso   1.000  H
  H182     1.0000 0.32200  0.83410  0.84690  Biso   1.000  H
  H183     1.0000 0.32200  0.66590  0.34690  Biso   1.000  H
  H184     1.0000 0.67800  0.16590  0.15310  Biso   1.000  H
  C157     1.0000 0.03740  0.23410  0.82850  Biso   1.000  C
  C158     1.0000 0.96260  0.73410  0.67150  Biso   1.000  C
  C159     1.0000 0.96260  0.76590  0.17150  Biso   1.000  C
  C160     1.0000 0.03740  0.26590  0.32850  Biso   1.000  C
  H185     1.0000 0.08940  0.25040  0.85320  Biso   1.000  H
  H186     1.0000 0.91060  0.75040  0.64680  Biso   1.000  H
  H187     1.0000 0.91060  0.74960  0.14680  Biso   1.000  H
  H188     1.0000 0.08940  0.24960  0.35320  Biso   1.000  H
  H189     1.0000 0.01510  0.17280  0.83820  Biso   1.000  H
  H190     1.0000 0.98490  0.67280  0.66180  Biso   1.000  H
  H191     1.0000 0.98490  0.82720  0.16180  Biso   1.000  H
  H192     1.0000 0.01510  0.32720  0.33820  Biso   1.000  H
  N41      1.0000 0.75440  0.78500  0.79240  Biso   1.000  N
  N42      1.0000 0.24560  0.28500  0.70760  Biso   1.000  N
  N43      1.0000 0.24560  0.21500  0.20760  Biso   1.000  N
  N44      1.0000 0.75440  0.71500  0.29240  Biso   1.000  N
  O41      1.0000 0.80900  0.83520  0.77960  Biso   1.000  O
  O42      1.0000 0.19100  0.33520  0.72040  Biso   1.000  O
  O43      1.0000 0.19100  0.16480  0.22040  Biso   1.000  O
  O44      1.0000 0.80900  0.66480  0.27960  Biso   1.000  O
  O45      1.0000 0.72720  0.78860  0.83350  Biso   1.000  O
  O46      1.0000 0.27280  0.28860  0.66650  Biso   1.000  O
  O47      1.0000 0.27280  0.21140  0.16650  Biso   1.000  O
  O48      1.0000 0.72720  0.71140  0.33350  Biso   1.000  O
  O49      1.0000 0.72970  0.71440  0.76520  Biso   1.000  O
  O50      1.0000 0.27030  0.21440  0.73480  Biso   1.000  O
  O51      1.0000 0.27030  0.28560  0.23480  Biso   1.000  O
  O52      1.0000 0.72970  0.78560  0.26520  Biso   1.000  O
  O53      1.0000 0.77800  0.80400  0.75440  Biso   1.000  O
  O54      1.0000 0.22200  0.30400  0.74560  Biso   1.000  O
  O55      1.0000 0.22200  0.19600  0.24560  Biso   1.000  O
  O56      1.0000 0.77800  0.69600  0.25440  Biso   1.000  O
  O57      1.0000 0.73680  0.84560  0.82320  Biso   1.000  O
  O58      1.0000 0.26320  0.34560  0.67680  Biso   1.000  O
  O59      1.0000 0.26320  0.15440  0.17680  Biso   1.000  O
  O60      1.0000 0.73680  0.65440  0.32320  Biso   1.000  O
  O61      1.0000 0.74100  0.70330  0.80470  Biso   1.000  O
  O62      1.0000 0.25900  0.20330  0.69530  Biso   1.000  O
  O63      1.0000 0.25900  0.29670  0.19530  Biso   1.000  O
  O64      1.0000 0.74100  0.79670  0.30470  Biso   1.000  O
  N45      1.0000 0.72400  0.67400  0.68880  Biso   1.000  N
  N46      1.0000 0.27600  0.17400  0.81120  Biso   1.000  N
  N47      1.0000 0.27600  0.32600  0.31120  Biso   1.000  N
  N48      1.0000 0.72400  0.82600  0.18880  Biso   1.000  N
  O65      1.0000 0.72700  0.66300  0.73540  Biso   1.000  O
  O66      1.0000 0.27300  0.16300  0.76460  Biso   1.000  O
  O67      1.0000 0.27300  0.33700  0.26460  Biso   1.000  O
  O68      1.0000 0.72700  0.83700  0.23540  Biso   1.000  O
  O69      1.0000 0.69600  0.75310  0.67400  Biso   1.000  O
  O70      1.0000 0.30400  0.25310  0.82600  Biso   1.000  O
  O71      1.0000 0.30400  0.24690  0.32600  Biso   1.000  O
  O72      1.0000 0.69600  0.74690  0.17400  Biso   1.000  O
  O73      1.0000 0.76530  0.62930  0.66420  Biso   1.000  O
  O74      1.0000 0.23470  0.12930  0.83580  Biso   1.000  O
  O75      1.0000 0.23470  0.37070  0.33580  Biso   1.000  O
  O76      1.0000 0.76530  0.87070  0.16420  Biso   1.000  O
  N49      1.0000 0.66680  0.21820  0.02280  Biso   1.000  N
  N50      1.0000 0.33320  0.71820  0.47720  Biso   1.000  N
  N51      1.0000 0.33320  0.78180  0.97720  Biso   1.000  N
  N52      1.0000 0.66680  0.28180  0.52280  Biso   1.000  N
  O77      1.0000 0.61490  0.25480  0.05070  Biso   1.000  O
  O78      1.0000 0.38510  0.75480  0.44930  Biso   1.000  O
  O79      1.0000 0.38510  0.74520  0.94930  Biso   1.000  O
  O80      1.0000 0.61490  0.24520  0.55070  Biso   1.000  O
  O81      1.0000 0.72970  0.26330  0.01000  Biso   1.000  O
  O82      1.0000 0.27030  0.76330  0.49000  Biso   1.000  O
  O83      1.0000 0.27030  0.73670  0.99000  Biso   1.000  O
  O84      1.0000 0.72970  0.23670  0.51000  Biso   1.000  O
  O85      1.0000 0.65490  0.13570  0.00830  Biso   1.000  O
  O86      1.0000 0.34510  0.63570  0.49170  Biso   1.000  O
  O87      1.0000 0.34510  0.86430  0.99170  Biso   1.000  O
  O88      1.0000 0.65490  0.36430  0.50830  Biso   1.000  O
  O89      1.0000 0.52690  0.87480  0.94050  Biso   1.000  O
  O90      1.0000 0.47310  0.37480  0.55950  Biso   1.000  O
  O91      1.0000 0.47310  0.12520  0.05950  Biso   1.000  O
  O92      1.0000 0.52690  0.62520  0.44050  Biso   1.000  O
  H193     1.0000 0.48140  0.84190  0.94020  Biso   1.000  H
  H194     1.0000 0.51860  0.34190  0.55980  Biso   1.000  H
  H195     1.0000 0.51860  0.15810  0.05980  Biso   1.000  H
  H196     1.0000 0.48140  0.65810  0.44020  Biso   1.000  H
  C161     1.0000 0.50210  0.96910  0.92950  Biso   1.000  C
  C162     1.0000 0.49790  0.46910  0.57050  Biso   1.000  C
  C163     1.0000 0.49790  0.03090  0.07050  Biso   1.000  C
  C164     1.0000 0.50210  0.53090  0.42950  Biso   1.000  C
  H197     1.0000 0.45010  0.98450  0.94590  Biso   1.000  H
  H198     1.0000 0.54990  0.48450  0.55410  Biso   1.000  H
  H199     1.0000 0.54990  0.01550  0.05410  Biso   1.000  H
  H200     1.0000 0.45010  0.51550  0.44590  Biso   1.000  H
  H201     1.0000 0.48810  0.97720  0.89280  Biso   1.000  H
  H202     1.0000 0.51190  0.47720  0.60720  Biso   1.000  H
  H203     1.0000 0.51190  0.02280  0.10720  Biso   1.000  H
  H204     1.0000 0.48810  0.52280  0.39280  Biso   1.000  H
  H205     1.0000 0.55090  0.01050  0.94250  Biso   1.000  H
  H206     1.0000 0.44910  0.51050  0.55750  Biso   1.000  H
  H207     1.0000 0.44910  0.98950  0.05750  Biso   1.000  H
  H208     1.0000 0.55090  0.48950  0.44250  Biso   1.000  H
  O93      1.0000 0.78970  0.60700  0.64840  Biso   1.000  O
  O94      1.0000 0.21030  0.10700  0.85160  Biso   1.000  O
  O95      1.0000 0.21030  0.39300  0.35160  Biso   1.000  O
  O96      1.0000 0.78970  0.89300  0.14840  Biso   1.000  O
  H209     1.0000 0.79310  0.59210  0.67910  Biso   1.000  H
  H210     1.0000 0.20690  0.09210  0.82090  Biso   1.000  H
  H211     1.0000 0.20690  0.40790  0.32090  Biso   1.000  H
  H212     1.0000 0.79310  0.90790  0.17910  Biso   1.000  H
  C165     1.0000 0.70700  0.65150  0.63290  Biso   1.000  C
  C166     1.0000 0.29300  0.15150  0.86710  Biso   1.000  C
  C167     1.0000 0.29300  0.34850  0.36710  Biso   1.000  C
  C168     1.0000 0.70700  0.84850  0.13290  Biso   1.000  C
  H213     1.0000 0.66880  0.64420  0.65950  Biso   1.000  H
  H214     1.0000 0.33120  0.14420  0.84050  Biso   1.000  H
  H215     1.0000 0.33120  0.35580  0.34050  Biso   1.000  H
  H216     1.0000 0.66880  0.85580  0.15950  Biso   1.000  H
  H217     1.0000 0.67870  0.62290  0.60140  Biso   1.000  H
  H218     1.0000 0.32130  0.12290  0.89860  Biso   1.000  H
  H219     1.0000 0.32130  0.37710  0.39860  Biso   1.000  H
  H220     1.0000 0.67870  0.87710  0.10140  Biso   1.000  H
  H221     1.0000 0.71670  0.71800  0.62720  Biso   1.000  H
  H222     1.0000 0.28330  0.21800  0.87280  Biso   1.000  H
  H223     1.0000 0.28330  0.28200  0.37280  Biso   1.000  H
  H224     1.0000 0.71670  0.78200  0.12720  Biso   1.000  H
  O97      1.0000 0.83990  0.13690  0.97290  Biso   1.000  O
  O98      1.0000 0.16010  0.63690  0.52710  Biso   1.000  O
  O99      1.0000 0.16010  0.86310  0.02710  Biso   1.000  O
  O100     1.0000 0.83990  0.36310  0.47290  Biso   1.000  O
  H225     1.0000 0.85560  0.09150  0.99180  Biso   1.000  H
  H226     1.0000 0.14440  0.59150  0.50820  Biso   1.000  H
  H227     1.0000 0.14440  0.90850  0.00820  Biso   1.000  H
  H228     1.0000 0.85560  0.40850  0.49180  Biso   1.000  H
  C169     1.0000 0.91010  0.20380  0.97590  Biso   1.000  C
  C170     1.0000 0.08990  0.70380  0.52410  Biso   1.000  C
  C171     1.0000 0.08990  0.79620  0.02410  Biso   1.000  C
  C172     1.0000 0.91010  0.29620  0.47590  Biso   1.000  C
  H229     1.0000 0.89000  0.25920  0.95610  Biso   1.000  H
  H230     1.0000 0.11000  0.75920  0.54390  Biso   1.000  H
  H231     1.0000 0.11000  0.74080  0.04390  Biso   1.000  H
  H232     1.0000 0.89000  0.24080  0.45610  Biso   1.000  H
  H233     1.0000 0.96070  0.17640  0.96220  Biso   1.000  H
  H234     1.0000 0.03930  0.67640  0.53780  Biso   1.000  H
  H235     1.0000 0.03930  0.82360  0.03780  Biso   1.000  H
  H236     1.0000 0.96070  0.32360  0.46220  Biso   1.000  H
  H237     1.0000 0.92740  0.22140  0.01140  Biso   1.000  H
  H238     1.0000 0.07260  0.72140  0.48860  Biso   1.000  H
  H239     1.0000 0.07260  0.77860  0.98860  Biso   1.000  H
  H240     1.0000 0.92740  0.27860  0.51140  Biso   1.000  H
  O101     1.0000 0.89320  0.58440  0.57240  Biso   1.000  O
  O102     1.0000 0.10680  0.08440  0.92760  Biso   1.000  O
  O103     1.0000 0.10680  0.41560  0.42760  Biso   1.000  O
  O104     1.0000 0.89320  0.91560  0.07240  Biso   1.000  O
  H241     1.0000 0.89380  0.60590  0.54300  Biso   1.000  H
  H242     1.0000 0.10620  0.10590  0.95700  Biso   1.000  H
  H243     1.0000 0.10620  0.39410  0.45700  Biso   1.000  H
  H244     1.0000 0.89380  0.89410  0.04300  Biso   1.000  H
  C173     1.0000 0.96060  0.51380  0.58240  Biso   1.000  C
  C174     1.0000 0.03940  0.01380  0.91760  Biso   1.000  C
  C175     1.0000 0.03940  0.48620  0.41760  Biso   1.000  C
  C176     1.0000 0.96060  0.98620  0.08240  Biso   1.000  C
  H245     1.0000 0.97510  0.50530  0.61920  Biso   1.000  H
  H246     1.0000 0.02490  0.00530  0.88080  Biso   1.000  H
  H247     1.0000 0.02490  0.49470  0.38080  Biso   1.000  H
  H248     1.0000 0.97510  0.99470  0.11920  Biso   1.000  H
  H249     1.0000 0.01350  0.53330  0.56800  Biso   1.000  H
  H250     1.0000 0.98650  0.03330  0.93200  Biso   1.000  H
  H251     1.0000 0.98650  0.46670  0.43200  Biso   1.000  H
  H252     1.0000 0.01350  0.96670  0.06800  Biso   1.000  H
  H253     1.0000 0.93890  0.45480  0.56690  Biso   1.000  H
  H254     1.0000 0.06110  0.95480  0.93310  Biso   1.000  H
  H255     1.0000 0.06110  0.54520  0.43310  Biso   1.000  H
  H256     1.0000 0.93890  0.04520  0.06690  Biso   1.000  H
