data_image0
_cell_length_a       16.775
_cell_length_b       17.697
_cell_length_c       19.447
_cell_angle_alpha    105.702
_cell_angle_beta     106.851
_cell_angle_gamma    92.785

_symmetry_space_group_name_H-M    "P 1"
_symmetry_int_tables_number       1

loop_
  _symmetry_equiv_pos_as_xyz
  'x, y, z'

loop_
  _atom_site_label
  _atom_site_occupancy
  _atom_site_fract_x
  _atom_site_fract_y
  _atom_site_fract_z
  _atom_site_thermal_displace_type
  _atom_site_B_iso_or_equiv
  _atom_site_type_symbol
  Cu1      1.0000 0.57655  0.16860  0.83061  Biso   1.000  Cu
  Cu2      1.0000 0.42345  0.83140  0.16939  Biso   1.000  Cu
  Cu3      1.0000 0.60751  0.01137  0.74975  Biso   1.000  Cu
  Cu4      1.0000 0.39249  0.98863  0.25025  Biso   1.000  Cu
  O1       1.0000 0.59640  0.06650  0.84690  Biso   1.000  O
  O2       1.0000 0.40360  0.93350  0.15310  Biso   1.000  O
  O3       1.0000 0.57750  0.11020  0.73000  Biso   1.000  O
  O4       1.0000 0.42250  0.88980  0.27000  Biso   1.000  O
  N1       1.0000 0.64250  0.21130  0.94180  Biso   1.000  N
  N2       1.0000 0.35750  0.78870  0.05820  Biso   1.000  N
  H1       1.0000 0.67270  0.26020  0.95280  Biso   1.000  H
  H2       1.0000 0.32730  0.73980  0.04720  Biso   1.000  H
  H3       1.0000 0.60740  0.21530  0.97090  Biso   1.000  H
  H4       1.0000 0.39260  0.78470  0.02910  Biso   1.000  H
  N3       1.0000 0.43990  0.15300  0.82260  Biso   1.000  N
  N4       1.0000 0.56010  0.84700  0.17740  Biso   1.000  N
  N5       1.0000 0.74560  0.04110  0.77430  Biso   1.000  N
  N6       1.0000 0.25440  0.95890  0.22570  Biso   1.000  N
  N7       1.0000 0.61100  0.90360  0.76690  Biso   1.000  N
  N8       1.0000 0.38900  0.09640  0.23310  Biso   1.000  N
  N9       1.0000 0.56540  0.96630  0.63660  Biso   1.000  N
  N10      1.0000 0.43460  0.03370  0.36340  Biso   1.000  N
  H5       1.0000 0.60710  0.94410  0.61940  Biso   1.000  H
  H6       1.0000 0.39290  0.05590  0.38060  Biso   1.000  H
  H7       1.0000 0.52010  0.92760  0.62210  Biso   1.000  H
  H8       1.0000 0.47990  0.07240  0.37790  Biso   1.000  H
  N11      1.0000 0.57360  0.27370  0.81080  Biso   1.000  N
  N12      1.0000 0.42640  0.72630  0.18920  Biso   1.000  N
  C1       1.0000 0.70160  0.14800  0.95410  Biso   1.000  C
  C2       1.0000 0.29840  0.85200  0.04590  Biso   1.000  C
  H9       1.0000 0.74660  0.15210  0.93120  Biso   1.000  H
  H10      1.0000 0.25340  0.84790  0.06880  Biso   1.000  H
  H11      1.0000 0.72800  0.15570  0.00860  Biso   1.000  H
  H12      1.0000 0.27200  0.84430  0.99140  Biso   1.000  H
  C3       1.0000 0.41310  0.10110  0.85260  Biso   1.000  C
  C4       1.0000 0.58690  0.89890  0.14740  Biso   1.000  C
  H13      1.0000 0.45370  0.07490  0.87920  Biso   1.000  H
  H14      1.0000 0.54630  0.92510  0.12080  Biso   1.000  H
  C5       1.0000 0.77220  0.08580  0.73840  Biso   1.000  C
  C6       1.0000 0.22780  0.91420  0.26160  Biso   1.000  C
  H15      1.0000 0.73160  0.10880  0.70800  Biso   1.000  H
  H16      1.0000 0.26840  0.89120  0.29200  Biso   1.000  H
  C7       1.0000 0.64660  0.84730  0.72970  Biso   1.000  C
  C8       1.0000 0.35340  0.15270  0.27030  Biso   1.000  C
  H17      1.0000 0.67740  0.86050  0.69960  Biso   1.000  H
  H18      1.0000 0.32260  0.13950  0.30040  Biso   1.000  H
  C9       1.0000 0.54000  0.03210  0.60440  Biso   1.000  C
  C10      1.0000 0.46000  0.96790  0.39560  Biso   1.000  C
  H19      1.0000 0.49280  0.01160  0.55680  Biso   1.000  H
  H20      1.0000 0.50720  0.98840  0.44320  Biso   1.000  H
  H21      1.0000 0.58780  0.05590  0.59340  Biso   1.000  H
  H22      1.0000 0.41220  0.94410  0.40660  Biso   1.000  H
  C11      1.0000 0.33000  0.08310  0.84720  Biso   1.000  C
  C12      1.0000 0.67000  0.91690  0.15280  Biso   1.000  C
  H23      1.0000 0.31470  0.04520  0.86930  Biso   1.000  H
  H24      1.0000 0.68530  0.95480  0.13070  Biso   1.000  H
  C13      1.0000 0.85560  0.10100  0.74260  Biso   1.000  C
  C14      1.0000 0.14440  0.89900  0.25740  Biso   1.000  C
  H25      1.0000 0.87120  0.13200  0.71440  Biso   1.000  H
  H26      1.0000 0.12880  0.86800  0.28560  Biso   1.000  H
  C15      1.0000 0.64000  0.77060  0.73380  Biso   1.000  C
  C16      1.0000 0.36000  0.22940  0.26620  Biso   1.000  C
  H27      1.0000 0.66560  0.73200  0.70630  Biso   1.000  H
  H28      1.0000 0.33440  0.26800  0.29370  Biso   1.000  H
  C17      1.0000 0.26930  0.12040  0.80960  Biso   1.000  C
  C18      1.0000 0.73070  0.87960  0.19040  Biso   1.000  C
  C19      1.0000 0.91660  0.06940  0.78930  Biso   1.000  C
  C20      1.0000 0.08340  0.93060  0.21070  Biso   1.000  C
  C21      1.0000 0.59640  0.74980  0.77760  Biso   1.000  C
  C22      1.0000 0.40360  0.25020  0.22240  Biso   1.000  C
  C23      1.0000 0.29530  0.17410  0.77780  Biso   1.000  C
  C24      1.0000 0.70470  0.82590  0.22220  Biso   1.000  C
  H29      1.0000 0.25580  0.20110  0.75110  Biso   1.000  H
  H30      1.0000 0.74420  0.79890  0.24890  Biso   1.000  H
  C25      1.0000 0.88880  0.02660  0.82960  Biso   1.000  C
  C26      1.0000 0.11120  0.97340  0.17040  Biso   1.000  C
  H31      1.0000 0.92800  0.00600  0.86350  Biso   1.000  H
  H32      1.0000 0.07200  0.99400  0.13650  Biso   1.000  H
  C27      1.0000 0.56150  0.80890  0.81720  Biso   1.000  C
  C28      1.0000 0.43850  0.19110  0.18280  Biso   1.000  C
  H33      1.0000 0.53080  0.79750  0.84810  Biso   1.000  H
  H34      1.0000 0.46920  0.20250  0.15190  Biso   1.000  H
  C29      1.0000 0.65050  0.07220  0.91890  Biso   1.000  C
  C30      1.0000 0.34950  0.92780  0.08110  Biso   1.000  C
  H35      1.0000 0.68730  0.03030  0.91470  Biso   1.000  H
  H36      1.0000 0.31270  0.96970  0.08530  Biso   1.000  H
  H37      1.0000 0.61670  0.06330  0.95080  Biso   1.000  H
  H38      1.0000 0.38330  0.93670  0.04920  Biso   1.000  H
  C31      1.0000 0.37960  0.18780  0.78540  Biso   1.000  C
  C32      1.0000 0.62040  0.81220  0.21460  Biso   1.000  C
  H39      1.0000 0.39610  0.22450  0.76260  Biso   1.000  H
  H40      1.0000 0.60390  0.77550  0.23740  Biso   1.000  H
  C33      1.0000 0.80530  0.01370  0.82070  Biso   1.000  C
  C34      1.0000 0.19470  0.98630  0.17930  Biso   1.000  C
  H41      1.0000 0.78820  0.98350  0.84880  Biso   1.000  H
  H42      1.0000 0.21180  0.01650  0.15120  Biso   1.000  H
  C35      1.0000 0.57150  0.88440  0.81140  Biso   1.000  C
  C36      1.0000 0.42850  0.11560  0.18860  Biso   1.000  C
  H43      1.0000 0.54920  0.92480  0.84060  Biso   1.000  H
  H44      1.0000 0.45080  0.07520  0.15940  Biso   1.000  H
  C37      1.0000 0.51320  0.09430  0.66130  Biso   1.000  C
  C38      1.0000 0.48680  0.90570  0.33870  Biso   1.000  C
  H45      1.0000 0.50580  0.14300  0.64580  Biso   1.000  H
  H46      1.0000 0.49420  0.85700  0.35420  Biso   1.000  H
  H47      1.0000 0.45940  0.07400  0.66570  Biso   1.000  H
  H48      1.0000 0.54060  0.92600  0.33430  Biso   1.000  H
  C39      1.0000 0.17850  0.10620  0.80600  Biso   1.000  C
  C40      1.0000 0.82150  0.89380  0.19400  Biso   1.000  C
  C41      1.0000 0.58750  0.66650  0.78130  Biso   1.000  C
  C42      1.0000 0.41250  0.33350  0.21870  Biso   1.000  C
  C43      1.0000 0.13080  0.03150  0.76390  Biso   1.000  C
  C44      1.0000 0.86920  0.96850  0.23610  Biso   1.000  C
  C45      1.0000 0.65760  0.64030  0.82320  Biso   1.000  C
  C46      1.0000 0.34240  0.35970  0.17680  Biso   1.000  C
  C47      1.0000 0.16290  0.96750  0.72340  Biso   1.000  C
  C48      1.0000 0.83710  0.03250  0.27660  Biso   1.000  C
  H49      1.0000 0.22060  0.97330  0.72670  Biso   1.000  H
  H50      1.0000 0.77940  0.02670  0.27330  Biso   1.000  H
  C49      1.0000 0.73580  0.69020  0.86310  Biso   1.000  C
  C50      1.0000 0.26420  0.30980  0.13690  Biso   1.000  C
  H51      1.0000 0.74130  0.74320  0.86110  Biso   1.000  H
  H52      1.0000 0.25870  0.25680  0.13890  Biso   1.000  H
  C51      1.0000 0.11290  0.89790  0.67990  Biso   1.000  C
  C52      1.0000 0.88710  0.10210  0.32010  Biso   1.000  C
  H53      1.0000 0.13660  0.85610  0.65400  Biso   1.000  H
  H54      1.0000 0.86340  0.14390  0.34600  Biso   1.000  H
  C53      1.0000 0.80280  0.66380  0.90380  Biso   1.000  C
  C54      1.0000 0.19720  0.33620  0.09620  Biso   1.000  C
  H55      1.0000 0.85430  0.69810  0.92970  Biso   1.000  H
  H56      1.0000 0.14570  0.30190  0.07030  Biso   1.000  H
  C55      1.0000 0.02810  0.88670  0.67290  Biso   1.000  C
  C56      1.0000 0.97190  0.11330  0.32710  Biso   1.000  C
  H57      1.0000 0.99420  0.83800  0.64190  Biso   1.000  H
  H58      1.0000 0.00580  0.16200  0.35810  Biso   1.000  H
  C57      1.0000 0.79590  0.58440  0.90770  Biso   1.000  C
  C58      1.0000 0.20410  0.41560  0.09230  Biso   1.000  C
  H59      1.0000 0.84280  0.56630  0.93660  Biso   1.000  H
  H60      1.0000 0.15720  0.43370  0.06340  Biso   1.000  H
  C59      1.0000 0.99330  0.94610  0.71070  Biso   1.000  C
  C60      1.0000 0.00670  0.05390  0.28930  Biso   1.000  C
  H61      1.0000 0.93530  0.93790  0.70590  Biso   1.000  H
  H62      1.0000 0.06470  0.06210  0.29410  Biso   1.000  H
  C61      1.0000 0.72350  0.53520  0.87110  Biso   1.000  C
  C62      1.0000 0.27650  0.46480  0.12890  Biso   1.000  C
  H63      1.0000 0.71980  0.48280  0.87490  Biso   1.000  H
  H64      1.0000 0.28020  0.51720  0.12510  Biso   1.000  H
  C63      1.0000 0.04240  0.01990  0.75720  Biso   1.000  C
  C64      1.0000 0.95760  0.98010  0.24280  Biso   1.000  C
  C65      1.0000 0.65200  0.56000  0.82640  Biso   1.000  C
  C66      1.0000 0.34800  0.44000  0.17360  Biso   1.000  C
  C67      1.0000 0.00690  0.08200  0.79580  Biso   1.000  C
  C68      1.0000 0.99310  0.91800  0.20420  Biso   1.000  C
  C69      1.0000 0.57720  0.50790  0.78630  Biso   1.000  C
  C70      1.0000 0.42280  0.49210  0.21370  Biso   1.000  C
  C71      1.0000 0.05610  0.15510  0.83770  Biso   1.000  C
  C72      1.0000 0.94390  0.84490  0.16230  Biso   1.000  C
  C73      1.0000 0.50540  0.53490  0.74570  Biso   1.000  C
  C74      1.0000 0.49460  0.46510  0.25430  Biso   1.000  C
  C75      1.0000 0.02140  0.21910  0.87690  Biso   1.000  C
  C76      1.0000 0.97860  0.78090  0.12310  Biso   1.000  C
  H65      1.0000 0.96480  0.21110  0.87630  Biso   1.000  H
  H66      1.0000 0.03520  0.78890  0.12370  Biso   1.000  H
  C77      1.0000 0.42750  0.48490  0.70710  Biso   1.000  C
  C78      1.0000 0.57250  0.51510  0.29290  Biso   1.000  C
  H67      1.0000 0.42270  0.43200  0.70940  Biso   1.000  H
  H68      1.0000 0.57730  0.56800  0.29060  Biso   1.000  H
  C79      1.0000 0.06890  0.29140  0.91490  Biso   1.000  C
  C80      1.0000 0.93110  0.70860  0.08510  Biso   1.000  C
  H69      1.0000 0.04480  0.33380  0.93960  Biso   1.000  H
  H70      1.0000 0.95520  0.66620  0.06040  Biso   1.000  H
  C81      1.0000 0.36000  0.51070  0.66720  Biso   1.000  C
  C82      1.0000 0.64000  0.48930  0.33280  Biso   1.000  C
  H71      1.0000 0.30930  0.47550  0.63990  Biso   1.000  H
  H72      1.0000 0.69070  0.52450  0.36010  Biso   1.000  H
  C83      1.0000 0.15340  0.30320  0.91750  Biso   1.000  C
  C84      1.0000 0.84660  0.69680  0.08250  Biso   1.000  C
  H73      1.0000 0.18570  0.35390  0.94320  Biso   1.000  H
  H74      1.0000 0.81430  0.64610  0.05680  Biso   1.000  H
  C85      1.0000 0.36520  0.59080  0.66610  Biso   1.000  C
  C86      1.0000 0.63480  0.40920  0.33390  Biso   1.000  C
  H75      1.0000 0.31690  0.60940  0.64000  Biso   1.000  H
  H76      1.0000 0.68310  0.39060  0.36000  Biso   1.000  H
  C87      1.0000 0.18930  0.24370  0.88400  Biso   1.000  C
  C88      1.0000 0.81070  0.75630  0.11600  Biso   1.000  C
  H77      1.0000 0.24720  0.25270  0.88890  Biso   1.000  H
  H78      1.0000 0.75280  0.74730  0.11110  Biso   1.000  H
  C89      1.0000 0.43760  0.64050  0.70160  Biso   1.000  C
  C90      1.0000 0.56240  0.35950  0.29840  Biso   1.000  C
  H79      1.0000 0.43990  0.69310  0.69850  Biso   1.000  H
  H80      1.0000 0.56010  0.30690  0.30150  Biso   1.000  H
  C91      1.0000 0.14270  0.16770  0.84150  Biso   1.000  C
  C92      1.0000 0.85730  0.83230  0.15850  Biso   1.000  C
  C93      1.0000 0.51130  0.61620  0.74380  Biso   1.000  C
  C94      1.0000 0.48870  0.38380  0.25620  Biso   1.000  C
  C95      1.0000 0.57280  0.42530  0.79180  Biso   1.000  C
  C96      1.0000 0.42720  0.57470  0.20820  Biso   1.000  C
  C97      1.0000 0.60500  0.36600  0.74890  Biso   1.000  C
  C98      1.0000 0.39500  0.63400  0.25110  Biso   1.000  C
  H81      1.0000 0.62700  0.37590  0.71180  Biso   1.000  H
  H82      1.0000 0.37300  0.62410  0.28820  Biso   1.000  H
  C99      1.0000 0.60470  0.29230  0.76090  Biso   1.000  C
  C100     1.0000 0.39530  0.70770  0.23910  Biso   1.000  C
  H83      1.0000 0.62810  0.25270  0.73180  Biso   1.000  H
  H84      1.0000 0.37190  0.74730  0.26820  Biso   1.000  H
  C101     1.0000 0.54170  0.33120  0.85190  Biso   1.000  C
  C102     1.0000 0.45830  0.66880  0.14810  Biso   1.000  C
  H85      1.0000 0.51960  0.31970  0.88830  Biso   1.000  H
  H86      1.0000 0.48040  0.68030  0.11170  Biso   1.000  H
  C103     1.0000 0.53990  0.40590  0.84320  Biso   1.000  C
  C104     1.0000 0.46010  0.59410  0.15680  Biso   1.000  C
  H87      1.0000 0.51590  0.44430  0.87270  Biso   1.000  H
  H88      1.0000 0.48410  0.55570  0.12730  Biso   1.000  H
  Cu5      1.0000 0.99007  0.58481  0.72736  Biso   1.000  Cu
  Cu6      1.0000 0.00993  0.41519  0.27264  Biso   1.000  Cu
  Cu7      1.0000 0.02074  0.42610  0.74214  Biso   1.000  Cu
  Cu8      1.0000 0.97926  0.57390  0.25786  Biso   1.000  Cu
  O5       1.0000 0.02120  0.48720  0.67120  Biso   1.000  O
  O6       1.0000 0.97880  0.51280  0.32880  Biso   1.000  O
  O7       1.0000 0.00360  0.52750  0.80130  Biso   1.000  O
  O8       1.0000 0.99640  0.47250  0.19870  Biso   1.000  O
  N13      1.0000 0.85180  0.55720  0.66570  Biso   1.000  N
  N14      1.0000 0.14820  0.44280  0.33430  Biso   1.000  N
  N15      1.0000 0.98350  0.69040  0.80020  Biso   1.000  N
  N16      1.0000 0.01650  0.30960  0.19980  Biso   1.000  N
  N17      1.0000 0.02600  0.32000  0.67530  Biso   1.000  N
  N18      1.0000 0.97400  0.68000  0.32470  Biso   1.000  N
  N19      1.0000 0.15570  0.44170  0.81320  Biso   1.000  N
  N20      1.0000 0.84430  0.55830  0.18680  Biso   1.000  N
  N21      1.0000 0.03800  0.63550  0.66420  Biso   1.000  N
  N22      1.0000 0.96200  0.36450  0.33580  Biso   1.000  N
  H89      1.0000 0.99920  0.66260  0.64010  Biso   1.000  H
  H90      1.0000 0.00080  0.33740  0.35990  Biso   1.000  H
  H91      1.0000 0.08530  0.67080  0.69410  Biso   1.000  H
  H92      1.0000 0.91470  0.32920  0.30590  Biso   1.000  H
  N23      1.0000 0.93590  0.37920  0.78260  Biso   1.000  N
  N24      1.0000 0.06410  0.62080  0.21740  Biso   1.000  N
  H93      1.0000 0.90280  0.33480  0.74690  Biso   1.000  H
  H94      1.0000 0.09720  0.66520  0.25310  Biso   1.000  H
  H95      1.0000 0.96350  0.36550  0.82490  Biso   1.000  H
  H96      1.0000 0.03650  0.63450  0.17510  Biso   1.000  H
  C105     1.0000 0.82450  0.51560  0.59350  Biso   1.000  C
  C106     1.0000 0.17550  0.48440  0.40650  Biso   1.000  C
  H97      1.0000 0.86500  0.49610  0.57030  Biso   1.000  H
  H98      1.0000 0.13500  0.50390  0.42970  Biso   1.000  H
  C107     1.0000 0.94080  0.74590  0.77650  Biso   1.000  C
  C108     1.0000 0.05920  0.25410  0.22350  Biso   1.000  C
  H99      1.0000 0.90790  0.73370  0.72510  Biso   1.000  H
  H100     1.0000 0.09210  0.26630  0.27490  Biso   1.000  H
  C109     1.0000 0.04490  0.26200  0.70610  Biso   1.000  C
  C110     1.0000 0.95510  0.73800  0.29390  Biso   1.000  C
  H101     1.0000 0.06220  0.27450  0.75940  Biso   1.000  H
  H102     1.0000 0.93780  0.72550  0.24060  Biso   1.000  H
  C111     1.0000 0.18080  0.49160  0.88330  Biso   1.000  C
  C112     1.0000 0.81920  0.50840  0.11670  Biso   1.000  C
  H103     1.0000 0.13960  0.51780  0.90140  Biso   1.000  H
  H104     1.0000 0.86040  0.48220  0.09860  Biso   1.000  H
  C113     1.0000 0.73920  0.49840  0.54900  Biso   1.000  C
  C114     1.0000 0.26080  0.50160  0.45100  Biso   1.000  C
  H105     1.0000 0.72340  0.46970  0.49700  Biso   1.000  H
  H106     1.0000 0.27660  0.53030  0.50300  Biso   1.000  H
  C115     1.0000 0.94320  0.82060  0.82490  Biso   1.000  C
  C116     1.0000 0.05680  0.17940  0.17510  Biso   1.000  C
  H107     1.0000 0.91250  0.85840  0.80610  Biso   1.000  H
  H108     1.0000 0.08750  0.14160  0.19390  Biso   1.000  H
  C117     1.0000 0.04050  0.18460  0.66430  Biso   1.000  C
  C118     1.0000 0.95950  0.81540  0.33570  Biso   1.000  C
  H109     1.0000 0.05510  0.14510  0.68870  Biso   1.000  H
  H110     1.0000 0.94490  0.85490  0.31130  Biso   1.000  H
  C119     1.0000 0.26280  0.50750  0.93110  Biso   1.000  C
  C120     1.0000 0.73720  0.49250  0.06890  Biso   1.000  C
  H111     1.0000 0.27700  0.54390  0.98010  Biso   1.000  H
  H112     1.0000 0.72300  0.45610  0.01990  Biso   1.000  H
  C121     1.0000 0.06030  0.57120  0.60830  Biso   1.000  C
  C122     1.0000 0.93970  0.42880  0.39170  Biso   1.000  C
  H113     1.0000 0.10780  0.59200  0.59490  Biso   1.000  H
  H114     1.0000 0.89220  0.40800  0.40510  Biso   1.000  H
  H115     1.0000 0.01160  0.55060  0.56180  Biso   1.000  H
  H116     1.0000 0.98840  0.44940  0.43820  Biso   1.000  H
  C123     1.0000 0.67920  0.52390  0.58190  Biso   1.000  C
  C124     1.0000 0.32080  0.47610  0.41810  Biso   1.000  C
  C125     1.0000 0.99010  0.84030  0.90000  Biso   1.000  C
  C126     1.0000 0.00990  0.15970  0.10000  Biso   1.000  C
  C127     1.0000 0.01500  0.16480  0.58710  Biso   1.000  C
  C128     1.0000 0.98500  0.83520  0.41290  Biso   1.000  C
  C129     1.0000 0.32420  0.46900  0.90600  Biso   1.000  C
  C130     1.0000 0.67580  0.53100  0.09400  Biso   1.000  C
  C131     1.0000 0.88400  0.44300  0.80050  Biso   1.000  C
  C132     1.0000 0.11600  0.55700  0.19950  Biso   1.000  C
  H117     1.0000 0.85220  0.43170  0.83310  Biso   1.000  H
  H118     1.0000 0.14780  0.56830  0.16690  Biso   1.000  H
  H119     1.0000 0.84360  0.44780  0.75380  Biso   1.000  H
  H120     1.0000 0.15640  0.55220  0.24620  Biso   1.000  H
  C133     1.0000 0.70670  0.56420  0.65800  Biso   1.000  C
  C134     1.0000 0.29330  0.43580  0.34200  Biso   1.000  C
  H121     1.0000 0.66710  0.58070  0.68350  Biso   1.000  H
  H122     1.0000 0.33290  0.41930  0.31650  Biso   1.000  H
  C135     1.0000 0.03330  0.78200  0.92420  Biso   1.000  C
  C136     1.0000 0.96670  0.21800  0.07580  Biso   1.000  C
  H123     1.0000 0.06620  0.79240  0.97540  Biso   1.000  H
  H124     1.0000 0.93380  0.20760  0.02460  Biso   1.000  H
  C137     1.0000 0.99640  0.22580  0.55520  Biso   1.000  C
  C138     1.0000 0.00360  0.77420  0.44480  Biso   1.000  C
  H125     1.0000 0.98070  0.21530  0.50210  Biso   1.000  H
  H126     1.0000 0.01930  0.78470  0.49790  Biso   1.000  H
  C139     1.0000 0.29980  0.41820  0.83300  Biso   1.000  C
  C140     1.0000 0.70020  0.58180  0.16700  Biso   1.000  C
  H127     1.0000 0.34010  0.39220  0.81320  Biso   1.000  H
  H128     1.0000 0.65990  0.60780  0.18680  Biso   1.000  H
  C141     1.0000 0.79170  0.58040  0.69700  Biso   1.000  C
  C142     1.0000 0.20830  0.41960  0.30300  Biso   1.000  C
  H129     1.0000 0.80880  0.60970  0.74880  Biso   1.000  H
  H130     1.0000 0.19120  0.39030  0.25120  Biso   1.000  H
  C143     1.0000 0.02770  0.71020  0.87350  Biso   1.000  C
  C144     1.0000 0.97230  0.28980  0.12650  Biso   1.000  C
  H131     1.0000 0.05720  0.67130  0.89140  Biso   1.000  H
  H132     1.0000 0.94280  0.32870  0.10860  Biso   1.000  H
  C145     1.0000 0.00090  0.30110  0.60040  Biso   1.000  C
  C146     1.0000 0.99910  0.69890  0.39960  Biso   1.000  C
  H133     1.0000 0.98540  0.34160  0.57760  Biso   1.000  H
  H134     1.0000 0.01460  0.65840  0.42240  Biso   1.000  H
  C147     1.0000 0.21600  0.40560  0.78930  Biso   1.000  C
  C148     1.0000 0.78400  0.59440  0.21070  Biso   1.000  C
  H135     1.0000 0.20020  0.36980  0.73980  Biso   1.000  H
  H136     1.0000 0.79980  0.63020  0.26020  Biso   1.000  H
  C149     1.0000 0.58780  0.51040  0.53800  Biso   1.000  C
  C150     1.0000 0.41220  0.48960  0.46200  Biso   1.000  C
  C151     1.0000 0.99620  0.92210  0.95330  Biso   1.000  C
  C152     1.0000 0.00380  0.07790  0.04670  Biso   1.000  C
  C153     1.0000 0.00750  0.08100  0.54110  Biso   1.000  C
  C154     1.0000 0.99250  0.91900  0.45890  Biso   1.000  C
  C155     1.0000 0.41430  0.48600  0.95530  Biso   1.000  C
  C156     1.0000 0.58570  0.51400  0.04470  Biso   1.000  C
  C157     1.0000 0.08460  0.50620  0.64320  Biso   1.000  C
  C158     1.0000 0.91540  0.49380  0.35680  Biso   1.000  C
  H137     1.0000 0.09110  0.45900  0.60500  Biso   1.000  H
  H138     1.0000 0.90890  0.54100  0.39500  Biso   1.000  H
  H139     1.0000 0.13870  0.52410  0.68440  Biso   1.000  H
  H140     1.0000 0.86130  0.47590  0.31560  Biso   1.000  H
  C159     1.0000 0.93030  0.94250  0.98130  Biso   1.000  C
  C160     1.0000 0.06970  0.05750  0.01870  Biso   1.000  C
  C161     1.0000 0.94640  0.51930  0.84160  Biso   1.000  C
  C162     1.0000 0.05360  0.48070  0.15840  Biso   1.000  C
  H141     1.0000 0.91520  0.56560  0.84660  Biso   1.000  H
  H142     1.0000 0.08480  0.43440  0.15340  Biso   1.000  H
  H143     1.0000 0.97820  0.51820  0.89280  Biso   1.000  H
  H144     1.0000 0.02180  0.48180  0.10720  Biso   1.000  H
  C163     1.0000 0.85830  0.88660  0.96560  Biso   1.000  C
  C164     1.0000 0.14170  0.11340  0.03440  Biso   1.000  C
  H145     1.0000 0.85560  0.83380  0.93540  Biso   1.000  H
  H146     1.0000 0.14440  0.16620  0.06460  Biso   1.000  H
  C165     1.0000 0.79370  0.90680  0.99260  Biso   1.000  C
  C166     1.0000 0.20630  0.09320  0.00740  Biso   1.000  C
  H147     1.0000 0.74580  0.86880  0.98010  Biso   1.000  H
  H148     1.0000 0.25420  0.13120  0.01990  Biso   1.000  H
  C167     1.0000 0.79800  0.98440  0.03940  Biso   1.000  C
  C168     1.0000 0.20200  0.01560  0.96060  Biso   1.000  C
  H149     1.0000 0.75270  0.99790  0.05840  Biso   1.000  H
  H150     1.0000 0.24730  0.00210  0.94160  Biso   1.000  H
  C169     1.0000 0.86470  0.03940  0.05760  Biso   1.000  C
  C170     1.0000 0.13530  0.96060  0.94240  Biso   1.000  C
  H151     1.0000 0.86620  0.09100  0.08950  Biso   1.000  H
  H152     1.0000 0.13380  0.90900  0.91050  Biso   1.000  H
  C171     1.0000 0.06630  0.97890  0.97050  Biso   1.000  C
  C172     1.0000 0.93370  0.02110  0.02950  Biso   1.000  C
  C173     1.0000 0.53970  0.43580  0.51980  Biso   1.000  C
  C174     1.0000 0.46030  0.56420  0.48020  Biso   1.000  C
  C175     1.0000 0.08020  0.04290  0.54500  Biso   1.000  C
  C176     1.0000 0.91980  0.95710  0.45500  Biso   1.000  C
  C177     1.0000 0.46500  0.55550  0.96350  Biso   1.000  C
  C178     1.0000 0.53500  0.44450  0.03650  Biso   1.000  C
  C179     1.0000 0.57640  0.37080  0.54000  Biso   1.000  C
  C180     1.0000 0.42360  0.62920  0.46000  Biso   1.000  C
  H153     1.0000 0.63470  0.37750  0.56700  Biso   1.000  H
  H154     1.0000 0.36530  0.62250  0.43300  Biso   1.000  H
  C181     1.0000 0.16290  0.08430  0.58800  Biso   1.000  C
  C182     1.0000 0.83710  0.91570  0.41200  Biso   1.000  C
  H155     1.0000 0.16930  0.13890  0.61500  Biso   1.000  H
  H156     1.0000 0.83070  0.86110  0.38500  Biso   1.000  H
  C183     1.0000 0.43350  0.61190  0.92550  Biso   1.000  C
  C184     1.0000 0.56650  0.38810  0.07450  Biso   1.000  C
  H157     1.0000 0.37640  0.60290  0.89460  Biso   1.000  H
  H158     1.0000 0.62360  0.39710  0.10540  Biso   1.000  H
  C185     1.0000 0.52910  0.29930  0.52130  Biso   1.000  C
  C186     1.0000 0.47090  0.70070  0.47870  Biso   1.000  C
  H159     1.0000 0.55470  0.25610  0.53420  Biso   1.000  H
  H160     1.0000 0.44530  0.74390  0.46580  Biso   1.000  H
  C187     1.0000 0.23250  0.04730  0.59090  Biso   1.000  C
  C188     1.0000 0.76750  0.95270  0.40910  Biso   1.000  C
  H161     1.0000 0.28650  0.07530  0.62150  Biso   1.000  H
  H162     1.0000 0.71350  0.92470  0.37850  Biso   1.000  H
  C189     1.0000 0.48350  0.67810  0.93280  Biso   1.000  C
  C190     1.0000 0.51650  0.32190  0.06720  Biso   1.000  C
  H163     1.0000 0.46130  0.71490  0.90710  Biso   1.000  H
  H164     1.0000 0.53870  0.28510  0.09290  Biso   1.000  H
  C191     1.0000 0.44250  0.28910  0.48270  Biso   1.000  C
  C192     1.0000 0.55750  0.71090  0.51730  Biso   1.000  C
  H165     1.0000 0.41020  0.23880  0.46970  Biso   1.000  H
  H166     1.0000 0.58980  0.76120  0.53030  Biso   1.000  H
  C193     1.0000 0.22430  0.96650  0.54810  Biso   1.000  C
  C194     1.0000 0.77570  0.03350  0.45190  Biso   1.000  C
  H167     1.0000 0.27320  0.94120  0.54980  Biso   1.000  H
  H168     1.0000 0.72680  0.05880  0.45020  Biso   1.000  H
  C195     1.0000 0.56770  0.69240  0.97780  Biso   1.000  C
  C196     1.0000 0.43230  0.30760  0.02220  Biso   1.000  C
  H169     1.0000 0.60160  0.73970  0.98380  Biso   1.000  H
  H170     1.0000 0.39840  0.26030  0.01620  Biso   1.000  H
  C197     1.0000 0.40370  0.34950  0.46360  Biso   1.000  C
  C198     1.0000 0.59630  0.65050  0.53640  Biso   1.000  C
  H171     1.0000 0.34490  0.34130  0.43840  Biso   1.000  H
  H172     1.0000 0.65510  0.65870  0.56160  Biso   1.000  H
  C199     1.0000 0.14770  0.92500  0.50500  Biso   1.000  C
  C200     1.0000 0.85230  0.07500  0.49500  Biso   1.000  C
  H173     1.0000 0.14370  0.87140  0.47600  Biso   1.000  H
  H174     1.0000 0.85630  0.12860  0.52400  Biso   1.000  H
  C201     1.0000 0.60150  0.64000  0.01310  Biso   1.000  C
  C202     1.0000 0.39850  0.36000  0.98690  Biso   1.000  C
  H175     1.0000 0.65960  0.65010  0.04130  Biso   1.000  H
  H176     1.0000 0.34040  0.34990  0.95870  Biso   1.000  H
  C203     1.0000 0.54910  0.57480  0.51900  Biso   1.000  C
  C204     1.0000 0.45090  0.42520  0.48100  Biso   1.000  C
  C205     1.0000 0.92740  0.03850  0.49730  Biso   1.000  C
  C206     1.0000 0.07260  0.96150  0.50270  Biso   1.000  C
  C207     1.0000 0.44770  0.43030  0.99080  Biso   1.000  C
  C208     1.0000 0.55230  0.56970  0.00920  Biso   1.000  C
  O9       1.0000 0.29790  0.28710  0.66110  Biso   1.000  O
  O10      1.0000 0.70210  0.71290  0.33890  Biso   1.000  O
  H177     1.0000 0.25370  0.29050  0.62870  Biso   1.000  H
  H178     1.0000 0.74630  0.70950  0.37130  Biso   1.000  H
  C209     1.0000 0.35870  0.26840  0.62760  Biso   1.000  C
  C210     1.0000 0.64130  0.73160  0.37240  Biso   1.000  C
  H179     1.0000 0.36000  0.30190  0.59510  Biso   1.000  H
  H180     1.0000 0.64000  0.69810  0.40490  Biso   1.000  H
  H181     1.0000 0.34600  0.21260  0.59720  Biso   1.000  H
  H182     1.0000 0.65400  0.78740  0.40280  Biso   1.000  H
  H183     1.0000 0.41360  0.27730  0.66640  Biso   1.000  H
  H184     1.0000 0.58640  0.72270  0.33360  Biso   1.000  H
  O11      1.0000 0.17850  0.72580  0.79050  Biso   1.000  O
  O12      1.0000 0.82150  0.27420  0.20950  Biso   1.000  O
  H185     1.0000 0.20780  0.77040  0.80410  Biso   1.000  H
  H186     1.0000 0.79220  0.22960  0.19590  Biso   1.000  H
  C211     1.0000 0.22530  0.67340  0.82720  Biso   1.000  C
  C212     1.0000 0.77470  0.32660  0.17280  Biso   1.000  C
  H187     1.0000 0.27220  0.66060  0.80760  Biso   1.000  H
  H188     1.0000 0.72780  0.33940  0.19240  Biso   1.000  H
  H189     1.0000 0.18820  0.62460  0.81740  Biso   1.000  H
  H190     1.0000 0.81180  0.37540  0.18260  Biso   1.000  H
  H191     1.0000 0.24730  0.69960  0.88150  Biso   1.000  H
  H192     1.0000 0.75270  0.30040  0.11850  Biso   1.000  H
  O13      1.0000 0.26370  0.11590  0.39090  Biso   1.000  O
  O14      1.0000 0.73630  0.88410  0.60910  Biso   1.000  O
  H193     1.0000 0.23400  0.15280  0.39180  Biso   1.000  H
  H194     1.0000 0.76600  0.84720  0.60820  Biso   1.000  H
  C213     1.0000 0.24730  0.07110  0.43050  Biso   1.000  C
  C214     1.0000 0.75270  0.92890  0.56950  Biso   1.000  C
  H195     1.0000 0.29800  0.07360  0.47220  Biso   1.000  H
  H196     1.0000 0.70200  0.92640  0.52780  Biso   1.000  H
  H197     1.0000 0.22960  0.01610  0.39820  Biso   1.000  H
  H198     1.0000 0.77040  0.98390  0.60180  Biso   1.000  H
  H199     1.0000 0.20220  0.09000  0.45050  Biso   1.000  H
  H200     1.0000 0.79780  0.91000  0.54950  Biso   1.000  H
  O15      1.0000 0.19650  0.65980  0.53430  Biso   1.000  O
  O16      1.0000 0.80350  0.34020  0.46570  Biso   1.000  O
  H201     1.0000 0.18720  0.61900  0.54660  Biso   1.000  H
  H202     1.0000 0.81280  0.38100  0.45340  Biso   1.000  H
  C215     1.0000 0.19350  0.72710  0.59290  Biso   1.000  C
  C216     1.0000 0.80650  0.27290  0.40710  Biso   1.000  C
  H203     1.0000 0.25090  0.75140  0.62420  Biso   1.000  H
  H204     1.0000 0.74910  0.24860  0.37580  Biso   1.000  H
  H205     1.0000 0.16350  0.71070  0.62390  Biso   1.000  H
  H206     1.0000 0.83650  0.28930  0.37610  Biso   1.000  H
  H207     1.0000 0.16420  0.76570  0.57090  Biso   1.000  H
  H208     1.0000 0.83580  0.23430  0.42910  Biso   1.000  H
  Cl1      1.0000 0.75273  0.24676  0.61226  Biso   1.000  Cl
  Cl2      1.0000 0.24727  0.75324  0.38774  Biso   1.000  Cl
  O17      1.0000 0.83500  0.23000  0.64550  Biso   1.000  O
  O18      1.0000 0.16500  0.77000  0.35450  Biso   1.000  O
  O19      1.0000 0.73920  0.24090  0.53540  Biso   1.000  O
  O20      1.0000 0.26080  0.75910  0.46460  Biso   1.000  O
  O21      1.0000 0.68940  0.19270  0.61450  Biso   1.000  O
  O22      1.0000 0.31060  0.80730  0.38550  Biso   1.000  O
  O23      1.0000 0.74380  0.32380  0.65230  Biso   1.000  O
  O24      1.0000 0.25620  0.67620  0.34770  Biso   1.000  O
  Cl3      1.0000 0.16004  0.29279  0.47170  Biso   1.000  Cl
  Cl4      1.0000 0.83996  0.70721  0.52830  Biso   1.000  Cl
  O25      1.0000 0.07490  0.30570  0.44900  Biso   1.000  O
  O26      1.0000 0.92510  0.69430  0.55100  Biso   1.000  O
  O27      1.0000 0.20930  0.36180  0.52540  Biso   1.000  O
  O28      1.0000 0.79070  0.63820  0.47460  Biso   1.000  O
  O29      1.0000 0.16720  0.23000  0.50500  Biso   1.000  O
  O30      1.0000 0.83280  0.77000  0.49500  Biso   1.000  O
  O31      1.0000 0.18830  0.27330  0.40730  Biso   1.000  O
  O32      1.0000 0.81170  0.72670  0.59270  Biso   1.000  O
  Cl5      1.0000 0.82913  0.33306  0.93697  Biso   1.000  Cl
  Cl6      1.0000 0.17087  0.66694  0.06303  Biso   1.000  Cl
  O33      1.0000 0.76310  0.36930  0.90310  Biso   1.000  O
  O34      1.0000 0.23690  0.63070  0.09690  Biso   1.000  O
  O35      1.0000 0.91110  0.37430  0.96920  Biso   1.000  O
  O36      1.0000 0.08890  0.62570  0.03080  Biso   1.000  O
  O37      1.0000 0.81420  0.32140  0.00310  Biso   1.000  O
  O38      1.0000 0.18580  0.67860  0.99690  Biso   1.000  O
  O39      1.0000 0.83540  0.25750  0.89210  Biso   1.000  O
  O40      1.0000 0.16460  0.74250  0.10790  Biso   1.000  O
  O41      1.0000 0.74680  0.35440  0.92030  Biso   1.000  O
  O42      1.0000 0.25320  0.64560  0.07970  Biso   1.000  O
  O43      1.0000 0.88530  0.40600  0.96320  Biso   1.000  O
  O44      1.0000 0.11470  0.59400  0.03680  Biso   1.000  O
  O45      1.0000 0.82500  0.25950  0.95200  Biso   1.000  O
  O46      1.0000 0.17500  0.74050  0.04800  Biso   1.000  O
  O47      1.0000 0.83650  0.30050  0.86400  Biso   1.000  O
  O48      1.0000 0.16350  0.69950  0.13600  Biso   1.000  O
  Cl7      1.0000 0.36840  0.86456  0.86950  Biso   1.000  Cl
  Cl8      1.0000 0.63160  0.13544  0.13050  Biso   1.000  Cl
  O49      1.0000 0.28760  0.87690  0.87590  Biso   1.000  O
  O50      1.0000 0.71240  0.12310  0.12410  Biso   1.000  O
  O51      1.0000 0.41390  0.83990  0.93040  Biso   1.000  O
  O52      1.0000 0.58610  0.16010  0.06960  Biso   1.000  O
  Cl9      1.0000 0.35460  0.87050  0.83270  Biso   1.000  Cl
  Cl10     1.0000 0.64540  0.12950  0.16730  Biso   1.000  Cl
  O53      1.0000 0.36300  0.88870  0.76870  Biso   1.000  O
  O54      1.0000 0.63700  0.11130  0.23130  Biso   1.000  O
  O55      1.0000 0.27450  0.87670  0.84300  Biso   1.000  O
  O56      1.0000 0.72550  0.12330  0.15700  Biso   1.000  O
  O57      1.0000 0.36430  0.79380  0.80800  Biso   1.000  O
  O58      1.0000 0.63570  0.20620  0.19200  Biso   1.000  O
  O59      1.0000 0.41860  0.93420  0.88030  Biso   1.000  O
  O60      1.0000 0.58140  0.06580  0.11970  Biso   1.000  O
  O61      1.0000 0.40270  0.87040  0.59030  Biso   1.000  O
  O62      1.0000 0.59730  0.12960  0.40970  Biso   1.000  O
  C217     1.0000 0.39600  0.83400  0.62700  Biso   1.000  C
  C218     1.0000 0.60400  0.16600  0.37300  Biso   1.000  C
  O63      1.0000 0.37600  0.87400  0.66100  Biso   1.000  O
  O64      1.0000 0.62400  0.12600  0.33900  Biso   1.000  O
  C219     1.0000 0.39200  0.93600  0.69800  Biso   1.000  C
  C220     1.0000 0.60800  0.06400  0.30200  Biso   1.000  C
