data_image0
_cell_length_a       28.583
_cell_length_b       12.9499
_cell_length_c       9.4865
_cell_angle_alpha    90
_cell_angle_beta     96.586
_cell_angle_gamma    90

_symmetry_space_group_name_H-M    "P 1"
_symmetry_int_tables_number       1

loop_
  _symmetry_equiv_pos_as_xyz
  'x, y, z'

loop_
  _atom_site_label
  _atom_site_occupancy
  _atom_site_fract_x
  _atom_site_fract_y
  _atom_site_fract_z
  _atom_site_thermal_displace_type
  _atom_site_B_iso_or_equiv
  _atom_site_type_symbol
  Cu1      1.0000 0.76389  0.26146  0.48375  Biso   1.000  Cu
  Cu2      1.0000 0.76389  0.73854  0.98375  Biso   1.000  Cu
  Cu3      1.0000 0.26389  0.76146  0.48375  Biso   1.000  Cu
  Cu4      1.0000 0.26389  0.23854  0.98375  Biso   1.000  Cu
  Cu5      1.0000 0.82024  0.22664  0.76443  Biso   1.000  Cu
  Cu6      1.0000 0.82024  0.77336  0.26443  Biso   1.000  Cu
  Cu7      1.0000 0.32024  0.72664  0.76443  Biso   1.000  Cu
  Cu8      1.0000 0.32024  0.27336  0.26443  Biso   1.000  Cu
  O1       1.0000 0.82188  0.30200  0.59000  Biso   1.000  O
  O2       1.0000 0.82188  0.69800  0.09000  Biso   1.000  O
  O3       1.0000 0.32188  0.80200  0.59000  Biso   1.000  O
  O4       1.0000 0.32188  0.19800  0.09000  Biso   1.000  O
  O5       1.0000 0.80740  0.13170  0.32720  Biso   1.000  O
  O6       1.0000 0.80740  0.86830  0.82720  Biso   1.000  O
  O7       1.0000 0.30740  0.63170  0.32720  Biso   1.000  O
  O8       1.0000 0.30740  0.36830  0.82720  Biso   1.000  O
  O9       1.0000 0.70238  0.34910  0.92030  Biso   1.000  O
  O10      1.0000 0.70238  0.65090  0.42030  Biso   1.000  O
  O11      1.0000 0.20238  0.84910  0.92030  Biso   1.000  O
  O12      1.0000 0.20238  0.15090  0.42030  Biso   1.000  O
  O13      1.0000 0.76173  0.18270  0.65870  Biso   1.000  O
  O14      1.0000 0.76173  0.81730  0.15870  Biso   1.000  O
  O15      1.0000 0.26173  0.68270  0.65870  Biso   1.000  O
  O16      1.0000 0.26173  0.31730  0.15870  Biso   1.000  O
  O17      1.0000 0.86310  0.17040  0.20040  Biso   1.000  O
  O18      1.0000 0.86310  0.82960  0.70040  Biso   1.000  O
  O19      1.0000 0.36310  0.67040  0.20040  Biso   1.000  O
  O20      1.0000 0.36310  0.32960  0.70040  Biso   1.000  O
  O21      1.0000 0.76554  0.30940  0.05000  Biso   1.000  O
  O22      1.0000 0.76554  0.69060  0.55000  Biso   1.000  O
  O23      1.0000 0.26554  0.80940  0.05000  Biso   1.000  O
  O24      1.0000 0.26554  0.19060  0.55000  Biso   1.000  O
  O25      1.0000 0.87753  0.07630  0.38530  Biso   1.000  O
  O26      1.0000 0.87753  0.92370  0.88530  Biso   1.000  O
  O27      1.0000 0.37753  0.57630  0.38530  Biso   1.000  O
  O28      1.0000 0.37753  0.42370  0.88530  Biso   1.000  O
  O29      1.0000 0.76960  0.38860  0.85230  Biso   1.000  O
  O30      1.0000 0.76960  0.61140  0.35230  Biso   1.000  O
  O31      1.0000 0.26960  0.88860  0.85230  Biso   1.000  O
  O32      1.0000 0.26960  0.11140  0.35230  Biso   1.000  O
  N1       1.0000 0.77843  0.37370  0.34950  Biso   1.000  N
  N2       1.0000 0.77843  0.62630  0.84950  Biso   1.000  N
  N3       1.0000 0.27843  0.87370  0.34950  Biso   1.000  N
  N4       1.0000 0.27843  0.12630  0.84950  Biso   1.000  N
  H1       1.0000 0.77360  0.35050  0.25730  Biso   1.000  H
  H2       1.0000 0.77360  0.64950  0.75730  Biso   1.000  H
  H3       1.0000 0.27360  0.85050  0.25730  Biso   1.000  H
  H4       1.0000 0.27360  0.14950  0.75730  Biso   1.000  H
  H5       1.0000 0.75940  0.43000  0.35840  Biso   1.000  H
  H6       1.0000 0.75940  0.57000  0.85840  Biso   1.000  H
  H7       1.0000 0.25940  0.93000  0.35840  Biso   1.000  H
  H8       1.0000 0.25940  0.07000  0.85840  Biso   1.000  H
  N5       1.0000 0.70360  0.20720  0.38200  Biso   1.000  N
  N6       1.0000 0.70360  0.79280  0.88200  Biso   1.000  N
  N7       1.0000 0.20360  0.70720  0.38200  Biso   1.000  N
  N8       1.0000 0.20360  0.29280  0.88200  Biso   1.000  N
  N9       1.0000 0.84802  0.12750  0.30410  Biso   1.000  N
  N10      1.0000 0.84802  0.87250  0.80410  Biso   1.000  N
  N11      1.0000 0.34802  0.62750  0.30410  Biso   1.000  N
  N12      1.0000 0.34802  0.37250  0.80410  Biso   1.000  N
  N13      1.0000 0.74537  0.35220  0.94520  Biso   1.000  N
  N14      1.0000 0.74537  0.64780  0.44520  Biso   1.000  N
  N15      1.0000 0.24537  0.85220  0.94520  Biso   1.000  N
  N16      1.0000 0.24537  0.14780  0.44520  Biso   1.000  N
  N17      1.0000 0.80409  0.12220  0.90890  Biso   1.000  N
  N18      1.0000 0.80409  0.87780  0.40890  Biso   1.000  N
  N19      1.0000 0.30409  0.62220  0.90890  Biso   1.000  N
  N20      1.0000 0.30409  0.37780  0.40890  Biso   1.000  N
  H9       1.0000 0.82470  0.06730  0.91260  Biso   1.000  H
  H10      1.0000 0.82470  0.93270  0.41260  Biso   1.000  H
  H11      1.0000 0.32470  0.56730  0.91260  Biso   1.000  H
  H12      1.0000 0.32470  0.43270  0.41260  Biso   1.000  H
  H13      1.0000 0.80590  0.15180  0.99750  Biso   1.000  H
  H14      1.0000 0.80590  0.84820  0.49750  Biso   1.000  H
  H15      1.0000 0.30590  0.65180  0.99750  Biso   1.000  H
  H16      1.0000 0.30590  0.34820  0.49750  Biso   1.000  H
  N21      1.0000 0.37715  0.78920  0.86830  Biso   1.000  N
  N22      1.0000 0.37715  0.21080  0.36830  Biso   1.000  N
  N23      1.0000 0.87715  0.28920  0.86830  Biso   1.000  N
  N24      1.0000 0.87715  0.71080  0.36830  Biso   1.000  N
  C1       1.0000 0.70020  0.17610  0.24750  Biso   1.000  C
  C2       1.0000 0.70020  0.82390  0.74750  Biso   1.000  C
  C3       1.0000 0.20020  0.67610  0.24750  Biso   1.000  C
  C4       1.0000 0.20020  0.32390  0.74750  Biso   1.000  C
  H17      1.0000 0.72650  0.18480  0.19570  Biso   1.000  H
  H18      1.0000 0.72650  0.81520  0.69570  Biso   1.000  H
  H19      1.0000 0.22650  0.68480  0.19570  Biso   1.000  H
  H20      1.0000 0.22650  0.31520  0.69570  Biso   1.000  H
  C5       1.0000 0.65950  0.13140  0.18100  Biso   1.000  C
  C6       1.0000 0.65950  0.86860  0.68100  Biso   1.000  C
  C7       1.0000 0.15950  0.63140  0.18100  Biso   1.000  C
  C8       1.0000 0.15950  0.36860  0.68100  Biso   1.000  C
  H21      1.0000 0.65820  0.11030  0.08470  Biso   1.000  H
  H22      1.0000 0.65820  0.88970  0.58470  Biso   1.000  H
  H23      1.0000 0.15820  0.61030  0.08470  Biso   1.000  H
  H24      1.0000 0.15820  0.38970  0.58470  Biso   1.000  H
  C9       1.0000 0.62113  0.11760  0.25400  Biso   1.000  C
  C10      1.0000 0.62113  0.88240  0.75400  Biso   1.000  C
  C11      1.0000 0.12113  0.61760  0.25400  Biso   1.000  C
  C12      1.0000 0.12113  0.38240  0.75400  Biso   1.000  C
  C13      1.0000 0.62440  0.15230  0.39270  Biso   1.000  C
  C14      1.0000 0.62440  0.84770  0.89270  Biso   1.000  C
  C15      1.0000 0.12440  0.65230  0.39270  Biso   1.000  C
  C16      1.0000 0.12440  0.34770  0.89270  Biso   1.000  C
  H25      1.0000 0.59850  0.14530  0.44630  Biso   1.000  H
  H26      1.0000 0.59850  0.85470  0.94630  Biso   1.000  H
  H27      1.0000 0.09850  0.64530  0.44630  Biso   1.000  H
  H28      1.0000 0.09850  0.35470  0.94630  Biso   1.000  H
  C17      1.0000 0.66580  0.19740  0.45230  Biso   1.000  C
  C18      1.0000 0.66580  0.80260  0.95230  Biso   1.000  C
  C19      1.0000 0.16580  0.69740  0.45230  Biso   1.000  C
  C20      1.0000 0.16580  0.30260  0.95230  Biso   1.000  C
  H29      1.0000 0.66760  0.22250  0.54680  Biso   1.000  H
  H30      1.0000 0.66760  0.77750  0.04680  Biso   1.000  H
  H31      1.0000 0.16760  0.72250  0.54680  Biso   1.000  H
  H32      1.0000 0.16760  0.27750  0.04680  Biso   1.000  H
  C21      1.0000 0.57806  0.06110  0.18770  Biso   1.000  C
  C22      1.0000 0.57806  0.93890  0.68770  Biso   1.000  C
  C23      1.0000 0.07806  0.56110  0.18770  Biso   1.000  C
  C24      1.0000 0.07806  0.43890  0.68770  Biso   1.000  C
  C25      1.0000 0.54132  0.11610  0.10960  Biso   1.000  C
  C26      1.0000 0.54132  0.88390  0.60960  Biso   1.000  C
  C27      1.0000 0.04132  0.61610  0.10960  Biso   1.000  C
  C28      1.0000 0.04132  0.38390  0.60960  Biso   1.000  C
  C29      1.0000 0.54210  0.22580  0.09260  Biso   1.000  C
  C30      1.0000 0.54210  0.77420  0.59260  Biso   1.000  C
  C31      1.0000 0.04210  0.72580  0.09260  Biso   1.000  C
  C32      1.0000 0.04210  0.27420  0.59260  Biso   1.000  C
  H33      1.0000 0.56880  0.26370  0.13310  Biso   1.000  H
  H34      1.0000 0.56880  0.73630  0.63310  Biso   1.000  H
  H35      1.0000 0.06880  0.76370  0.13310  Biso   1.000  H
  H36      1.0000 0.06880  0.23630  0.63310  Biso   1.000  H
  C33      1.0000 0.50550  0.27670  0.01940  Biso   1.000  C
  C34      1.0000 0.50550  0.72330  0.51940  Biso   1.000  C
  C35      1.0000 0.00550  0.77670  0.01940  Biso   1.000  C
  C36      1.0000 0.00550  0.22330  0.51940  Biso   1.000  C
  H37      1.0000 0.50600  0.34990  0.01410  Biso   1.000  H
  H38      1.0000 0.50600  0.65010  0.51410  Biso   1.000  H
  H39      1.0000 0.00600  0.84990  0.01410  Biso   1.000  H
  H40      1.0000 0.00600  0.15010  0.51410  Biso   1.000  H
  C37      1.0000 0.46650  0.22110  0.95050  Biso   1.000  C
  C38      1.0000 0.46650  0.77890  0.45050  Biso   1.000  C
  C39      1.0000 0.96650  0.72110  0.95050  Biso   1.000  C
  C40      1.0000 0.96650  0.27890  0.45050  Biso   1.000  C
  H41      1.0000 0.44210  0.25640  0.89310  Biso   1.000  H
  H42      1.0000 0.44210  0.74360  0.39310  Biso   1.000  H
  H43      1.0000 0.94210  0.75640  0.89310  Biso   1.000  H
  H44      1.0000 0.94210  0.24360  0.39310  Biso   1.000  H
  C41      1.0000 0.46420  0.11660  0.96760  Biso   1.000  C
  C42      1.0000 0.46420  0.88340  0.46760  Biso   1.000  C
  C43      1.0000 0.96420  0.61660  0.96760  Biso   1.000  C
  C44      1.0000 0.96420  0.38340  0.46760  Biso   1.000  C
  H45      1.0000 0.43720  0.08050  0.92520  Biso   1.000  H
  H46      1.0000 0.43720  0.91950  0.42520  Biso   1.000  H
  H47      1.0000 0.93720  0.58050  0.92520  Biso   1.000  H
  H48      1.0000 0.93720  0.41950  0.42520  Biso   1.000  H
  C45      1.0000 0.50049  0.06050  0.04620  Biso   1.000  C
  C46      1.0000 0.50049  0.93950  0.54620  Biso   1.000  C
  C47      1.0000 0.00049  0.56050  0.04620  Biso   1.000  C
  C48      1.0000 0.00049  0.43950  0.54620  Biso   1.000  C
  C49      1.0000 0.49860  0.95150  0.06310  Biso   1.000  C
  C50      1.0000 0.49860  0.04850  0.56310  Biso   1.000  C
  C51      1.0000 0.99860  0.45150  0.06310  Biso   1.000  C
  C52      1.0000 0.99860  0.54850  0.56310  Biso   1.000  C
  C53      1.0000 0.53580  0.89830  0.14060  Biso   1.000  C
  C54      1.0000 0.53580  0.10170  0.64060  Biso   1.000  C
  C55      1.0000 0.03580  0.39830  0.14060  Biso   1.000  C
  C56      1.0000 0.03580  0.60170  0.64060  Biso   1.000  C
  C57      1.0000 0.53490  0.78950  0.15780  Biso   1.000  C
  C58      1.0000 0.53490  0.21050  0.65780  Biso   1.000  C
  C59      1.0000 0.03490  0.28950  0.15780  Biso   1.000  C
  C60      1.0000 0.03490  0.71050  0.65780  Biso   1.000  C
  H49      1.0000 0.50820  0.75170  0.11710  Biso   1.000  H
  H50      1.0000 0.50820  0.24830  0.61710  Biso   1.000  H
  H51      1.0000 0.00820  0.25170  0.11710  Biso   1.000  H
  H52      1.0000 0.00820  0.74830  0.61710  Biso   1.000  H
  C61      1.0000 0.57130  0.73870  0.23120  Biso   1.000  C
  C62      1.0000 0.57130  0.26130  0.73120  Biso   1.000  C
  C63      1.0000 0.07130  0.23870  0.23120  Biso   1.000  C
  C64      1.0000 0.07130  0.76130  0.73120  Biso   1.000  C
  H53      1.0000 0.56940  0.66610  0.24350  Biso   1.000  H
  H54      1.0000 0.56940  0.33390  0.74350  Biso   1.000  H
  H55      1.0000 0.06940  0.16610  0.24350  Biso   1.000  H
  H56      1.0000 0.06940  0.83390  0.74350  Biso   1.000  H
  C65      1.0000 0.61240  0.79280  0.29010  Biso   1.000  C
  C66      1.0000 0.61240  0.20720  0.79010  Biso   1.000  C
  C67      1.0000 0.11240  0.29280  0.29010  Biso   1.000  C
  C68      1.0000 0.11240  0.70720  0.79010  Biso   1.000  C
  H57      1.0000 0.63870  0.75590  0.33470  Biso   1.000  H
  H58      1.0000 0.63870  0.24410  0.83470  Biso   1.000  H
  H59      1.0000 0.13870  0.25590  0.33470  Biso   1.000  H
  H60      1.0000 0.13870  0.74410  0.83470  Biso   1.000  H
  C69      1.0000 0.61360  0.89630  0.28230  Biso   1.000  C
  C70      1.0000 0.61360  0.10370  0.78230  Biso   1.000  C
  C71      1.0000 0.11360  0.39630  0.28230  Biso   1.000  C
  C72      1.0000 0.11360  0.60370  0.78230  Biso   1.000  C
  H61      1.0000 0.63990  0.93230  0.32910  Biso   1.000  H
  H62      1.0000 0.63990  0.06770  0.82910  Biso   1.000  H
  H63      1.0000 0.13990  0.43230  0.32910  Biso   1.000  H
  H64      1.0000 0.13990  0.56770  0.82910  Biso   1.000  H
  C73      1.0000 0.57620  0.95390  0.20510  Biso   1.000  C
  C74      1.0000 0.57620  0.04610  0.70510  Biso   1.000  C
  C75      1.0000 0.07620  0.45390  0.20510  Biso   1.000  C
  C76      1.0000 0.07620  0.54610  0.70510  Biso   1.000  C
  C77      1.0000 0.45675  0.89480  0.99620  Biso   1.000  C
  C78      1.0000 0.45675  0.10520  0.49620  Biso   1.000  C
  C79      1.0000 0.95675  0.39480  0.99620  Biso   1.000  C
  C80      1.0000 0.95675  0.60520  0.49620  Biso   1.000  C
  C81      1.0000 0.45720  0.84360  0.86680  Biso   1.000  C
  C82      1.0000 0.45720  0.15640  0.36680  Biso   1.000  C
  C83      1.0000 0.95720  0.34360  0.86680  Biso   1.000  C
  C84      1.0000 0.95720  0.65640  0.36680  Biso   1.000  C
  H65      1.0000 0.48490  0.84400  0.82000  Biso   1.000  H
  H66      1.0000 0.48490  0.15600  0.32000  Biso   1.000  H
  H67      1.0000 0.98490  0.34400  0.82000  Biso   1.000  H
  H68      1.0000 0.98490  0.65600  0.32000  Biso   1.000  H
  C85      1.0000 0.41720  0.79220  0.80660  Biso   1.000  C
  C86      1.0000 0.41720  0.20780  0.30660  Biso   1.000  C
  C87      1.0000 0.91720  0.29220  0.80660  Biso   1.000  C
  C88      1.0000 0.91720  0.70780  0.30660  Biso   1.000  C
  H69      1.0000 0.41820  0.75780  0.71860  Biso   1.000  H
  H70      1.0000 0.41820  0.24220  0.21860  Biso   1.000  H
  H71      1.0000 0.91820  0.25780  0.71860  Biso   1.000  H
  H72      1.0000 0.91820  0.74220  0.21860  Biso   1.000  H
  C89      1.0000 0.37680  0.83650  0.99520  Biso   1.000  C
  C90      1.0000 0.37680  0.16350  0.49520  Biso   1.000  C
  C91      1.0000 0.87680  0.33650  0.99520  Biso   1.000  C
  C92      1.0000 0.87680  0.66350  0.49520  Biso   1.000  C
  H73      1.0000 0.34880  0.83390  0.04040  Biso   1.000  H
  H74      1.0000 0.34880  0.16610  0.54040  Biso   1.000  H
  H75      1.0000 0.84880  0.33390  0.04040  Biso   1.000  H
  H76      1.0000 0.84880  0.66610  0.54040  Biso   1.000  H
  C93      1.0000 0.41537  0.88840  0.06200  Biso   1.000  C
  C94      1.0000 0.41537  0.11160  0.56200  Biso   1.000  C
  C95      1.0000 0.91537  0.38840  0.06200  Biso   1.000  C
  C96      1.0000 0.91537  0.61160  0.56200  Biso   1.000  C
  H77      1.0000 0.41390  0.91960  0.15190  Biso   1.000  H
  H78      1.0000 0.41390  0.08040  0.65190  Biso   1.000  H
  H79      1.0000 0.91390  0.41960  0.15190  Biso   1.000  H
  H80      1.0000 0.91390  0.58040  0.65190  Biso   1.000  H
  C97      1.0000 0.82880  0.40200  0.38760  Biso   1.000  C
  C98      1.0000 0.82880  0.59800  0.88760  Biso   1.000  C
  C99      1.0000 0.32880  0.90200  0.38760  Biso   1.000  C
  C100     1.0000 0.32880  0.09800  0.88760  Biso   1.000  C
  H81      1.0000 0.83490  0.47180  0.35150  Biso   1.000  H
  H82      1.0000 0.83490  0.52820  0.85150  Biso   1.000  H
  H83      1.0000 0.33490  0.97180  0.35150  Biso   1.000  H
  H84      1.0000 0.33490  0.02820  0.85150  Biso   1.000  H
  H85      1.0000 0.84950  0.35210  0.34560  Biso   1.000  H
  H86      1.0000 0.84950  0.64790  0.84560  Biso   1.000  H
  H87      1.0000 0.34950  0.85210  0.34560  Biso   1.000  H
  H88      1.0000 0.34950  0.14790  0.84560  Biso   1.000  H
  C101     1.0000 0.75490  0.08640  0.86290  Biso   1.000  C
  C102     1.0000 0.75490  0.91360  0.36290  Biso   1.000  C
  C103     1.0000 0.25490  0.58640  0.86290  Biso   1.000  C
  C104     1.0000 0.25490  0.41360  0.36290  Biso   1.000  C
  H89      1.0000 0.73200  0.13300  0.90140  Biso   1.000  H
  H90      1.0000 0.73200  0.86700  0.40140  Biso   1.000  H
  H91      1.0000 0.23200  0.63300  0.90140  Biso   1.000  H
  H92      1.0000 0.23200  0.36700  0.40140  Biso   1.000  H
  H93      1.0000 0.75030  0.01580  0.89890  Biso   1.000  H
  H94      1.0000 0.75030  0.98420  0.39890  Biso   1.000  H
  H95      1.0000 0.25030  0.51580  0.89890  Biso   1.000  H
  H96      1.0000 0.25030  0.48420  0.39890  Biso   1.000  H
  C105     1.0000 0.83810  0.39980  0.54620  Biso   1.000  C
  C106     1.0000 0.83810  0.60020  0.04620  Biso   1.000  C
  C107     1.0000 0.33810  0.89980  0.54620  Biso   1.000  C
  C108     1.0000 0.33810  0.10020  0.04620  Biso   1.000  C
  H97      1.0000 0.87210  0.40790  0.57700  Biso   1.000  H
  H98      1.0000 0.87210  0.59210  0.07700  Biso   1.000  H
  H99      1.0000 0.37210  0.90790  0.57700  Biso   1.000  H
  H100     1.0000 0.37210  0.09210  0.07700  Biso   1.000  H
  H101     1.0000 0.82090  0.45640  0.58800  Biso   1.000  H
  H102     1.0000 0.82090  0.54360  0.08800  Biso   1.000  H
  H103     1.0000 0.32090  0.95640  0.58800  Biso   1.000  H
  H104     1.0000 0.32090  0.04360  0.08800  Biso   1.000  H
  C109     1.0000 0.74720  0.08700  0.70190  Biso   1.000  C
  C110     1.0000 0.74720  0.91300  0.20190  Biso   1.000  C
  C111     1.0000 0.24720  0.58700  0.70190  Biso   1.000  C
  C112     1.0000 0.24720  0.41300  0.20190  Biso   1.000  C
  H105     1.0000 0.76570  0.03140  0.66320  Biso   1.000  H
  H106     1.0000 0.76570  0.96860  0.16320  Biso   1.000  H
  H107     1.0000 0.26570  0.53140  0.66320  Biso   1.000  H
  H108     1.0000 0.26570  0.46860  0.16320  Biso   1.000  H
  H109     1.0000 0.71350  0.07600  0.66820  Biso   1.000  H
  H110     1.0000 0.71350  0.92400  0.16820  Biso   1.000  H
  H111     1.0000 0.21350  0.57600  0.66820  Biso   1.000  H
  H112     1.0000 0.21350  0.42400  0.16820  Biso   1.000  H
  O33      1.0000 0.71618  0.41340  0.58600  Biso   1.000  O
  O34      1.0000 0.71618  0.58660  0.08600  Biso   1.000  O
  O35      1.0000 0.21618  0.91340  0.58600  Biso   1.000  O
  O36      1.0000 0.21618  0.08660  0.08600  Biso   1.000  O
  H113     1.0000 0.72730  0.39370  0.66730  Biso   1.000  H
  H114     1.0000 0.72730  0.60630  0.16730  Biso   1.000  H
  H115     1.0000 0.22730  0.89370  0.66730  Biso   1.000  H
  H116     1.0000 0.22730  0.10630  0.16730  Biso   1.000  H
  C113     1.0000 0.67230  0.45440  0.59180  Biso   1.000  C
  C114     1.0000 0.67230  0.54560  0.09180  Biso   1.000  C
  C115     1.0000 0.17230  0.95440  0.59180  Biso   1.000  C
  C116     1.0000 0.17230  0.04560  0.09180  Biso   1.000  C
  H117     1.0000 0.67530  0.52350  0.63400  Biso   1.000  H
  H118     1.0000 0.67530  0.47650  0.13400  Biso   1.000  H
  H119     1.0000 0.17530  0.02350  0.63400  Biso   1.000  H
  H120     1.0000 0.17530  0.97650  0.13400  Biso   1.000  H
  H121     1.0000 0.65450  0.40990  0.64990  Biso   1.000  H
  H122     1.0000 0.65450  0.59010  0.14990  Biso   1.000  H
  H123     1.0000 0.15450  0.90990  0.64990  Biso   1.000  H
  H124     1.0000 0.15450  0.09010  0.14990  Biso   1.000  H
  H125     1.0000 0.65580  0.45910  0.49570  Biso   1.000  H
  H126     1.0000 0.65580  0.54090  0.99570  Biso   1.000  H
  H127     1.0000 0.15580  0.95910  0.49570  Biso   1.000  H
  H128     1.0000 0.15580  0.04090  0.99570  Biso   1.000  H
  O37      1.0000 0.98340  0.96020  0.40760  Biso   1.000  O
  O38      1.0000 0.98340  0.03980  0.90760  Biso   1.000  O
  O39      1.0000 0.48340  0.46020  0.40760  Biso   1.000  O
  O40      1.0000 0.48340  0.53980  0.90760  Biso   1.000  O
  H129     1.0000 0.96960  0.98680  0.33330  Biso   1.000  H
  H130     1.0000 0.96960  0.01320  0.83330  Biso   1.000  H
  H131     1.0000 0.46960  0.48680  0.33330  Biso   1.000  H
  H132     1.0000 0.46960  0.51320  0.83330  Biso   1.000  H
  C117     1.0000 0.03090  0.94050  0.38900  Biso   1.000  C
  C118     1.0000 0.03090  0.05950  0.88900  Biso   1.000  C
  C119     1.0000 0.53090  0.44050  0.38900  Biso   1.000  C
  C120     1.0000 0.53090  0.55950  0.88900  Biso   1.000  C
  H133     1.0000 0.05140  0.98780  0.44860  Biso   1.000  H
  H134     1.0000 0.05140  0.01220  0.94860  Biso   1.000  H
  H135     1.0000 0.55140  0.48780  0.44860  Biso   1.000  H
  H136     1.0000 0.55140  0.51220  0.94860  Biso   1.000  H
  H137     1.0000 0.03560  0.95080  0.28920  Biso   1.000  H
  H138     1.0000 0.03560  0.04920  0.78920  Biso   1.000  H
  H139     1.0000 0.53560  0.45080  0.28920  Biso   1.000  H
  H140     1.0000 0.53560  0.54920  0.78920  Biso   1.000  H
  H141     1.0000 0.03880  0.86910  0.41650  Biso   1.000  H
  H142     1.0000 0.03880  0.13090  0.91650  Biso   1.000  H
  H143     1.0000 0.53880  0.36910  0.41650  Biso   1.000  H
  H144     1.0000 0.53880  0.63090  0.91650  Biso   1.000  H
  O41      1.0000 0.86720  0.09150  0.67090  Biso   1.000  O
  O42      1.0000 0.86720  0.90850  0.17090  Biso   1.000  O
  O43      1.0000 0.36720  0.59150  0.67090  Biso   1.000  O
  O44      1.0000 0.36720  0.40850  0.17090  Biso   1.000  O
  O45      1.0000 0.95150  0.92760  0.66500  Biso   1.000  O
  O46      1.0000 0.95150  0.07240  0.16500  Biso   1.000  O
  O47      1.0000 0.45150  0.42760  0.66500  Biso   1.000  O
  O48      1.0000 0.45150  0.57240  0.16500  Biso   1.000  O
