data_image0
_cell_length_a       7.943
_cell_length_b       9.083
_cell_length_c       11.287
_cell_angle_alpha    88.694
_cell_angle_beta     83.983
_cell_angle_gamma    84.686

_symmetry_space_group_name_H-M    "P 1"
_symmetry_int_tables_number       1

loop_
  _symmetry_equiv_pos_as_xyz
  'x, y, z'

loop_
  _atom_site_label
  _atom_site_occupancy
  _atom_site_fract_x
  _atom_site_fract_y
  _atom_site_fract_z
  _atom_site_thermal_displace_type
  _atom_site_B_iso_or_equiv
  _atom_site_type_symbol
  Cu1      1.0000 0.61283  0.48469  0.09352  Biso   1.000  Cu
  Cu2      1.0000 0.38717  0.51531  0.90648  Biso   1.000  Cu
  S1       1.0000 0.22407  0.34953  0.21153  Biso   1.000  S
  S2       1.0000 0.77593  0.65047  0.78847  Biso   1.000  S
  F1       1.0000 0.11550  0.09030  0.18040  Biso   1.000  F
  F2       1.0000 0.88450  0.90970  0.81960  Biso   1.000  F
  F3       1.0000 0.37550  0.10510  0.11090  Biso   1.000  F
  F4       1.0000 0.62450  0.89490  0.88910  Biso   1.000  F
  F5       1.0000 0.31070  0.08620  0.30000  Biso   1.000  F
  F6       1.0000 0.68930  0.91380  0.70000  Biso   1.000  F
  O1       1.0000 0.54430  0.36720  0.97150  Biso   1.000  O
  O2       1.0000 0.45570  0.63280  0.02850  Biso   1.000  O
  O3       1.0000 0.38740  0.39270  0.23580  Biso   1.000  O
  O4       1.0000 0.61260  0.60730  0.76420  Biso   1.000  O
  O5       1.0000 0.09210  0.36910  0.30870  Biso   1.000  O
  O6       1.0000 0.90790  0.63090  0.69130  Biso   1.000  O
  O7       1.0000 0.17290  0.39390  0.09610  Biso   1.000  O
  O8       1.0000 0.82710  0.60610  0.90390  Biso   1.000  O
  N1       1.0000 0.80140  0.32040  0.10430  Biso   1.000  N
  N2       1.0000 0.19860  0.67960  0.89570  Biso   1.000  N
  H1       1.0000 0.90520  0.35550  0.08210  Biso   1.000  H
  H2       1.0000 0.09480  0.64450  0.91790  Biso   1.000  H
  H3       1.0000 0.80070  0.28510  0.18140  Biso   1.000  H
  H4       1.0000 0.19930  0.71490  0.81860  Biso   1.000  H
  N3       1.0000 0.70020  0.61790  0.20470  Biso   1.000  N
  N4       1.0000 0.29980  0.38210  0.79530  Biso   1.000  N
  C1       1.0000 0.73430  0.75430  0.16760  Biso   1.000  C
  C2       1.0000 0.26570  0.24570  0.83240  Biso   1.000  C
  H5       1.0000 0.70640  0.78680  0.09090  Biso   1.000  H
  H6       1.0000 0.29360  0.21320  0.90910  Biso   1.000  H
  C3       1.0000 0.25930  0.14930  0.20130  Biso   1.000  C
  C4       1.0000 0.74070  0.85070  0.79870  Biso   1.000  C
  C5       1.0000 0.80720  0.84840  0.23510  Biso   1.000  C
  C6       1.0000 0.19280  0.15160  0.76490  Biso   1.000  C
  H7       1.0000 0.83170  0.94290  0.20370  Biso   1.000  H
  H8       1.0000 0.16830  0.05710  0.79630  Biso   1.000  H
  C7       1.0000 0.84600  0.80750  0.34940  Biso   1.000  C
  C8       1.0000 0.15400  0.19250  0.65060  Biso   1.000  C
  C9       1.0000 0.80880  0.66570  0.38850  Biso   1.000  C
  C10      1.0000 0.19120  0.33430  0.61150  Biso   1.000  C
  H9       1.0000 0.83160  0.63180  0.46590  Biso   1.000  H
  H10      1.0000 0.16840  0.36820  0.53410  Biso   1.000  H
  C11      1.0000 0.73890  0.57560  0.31410  Biso   1.000  C
  C12      1.0000 0.26110  0.42440  0.68590  Biso   1.000  C
  H11      1.0000 0.71700  0.47890  0.34150  Biso   1.000  H
  H12      1.0000 0.28300  0.52110  0.65850  Biso   1.000  H
  C13      1.0000 0.92570  0.90740  0.42540  Biso   1.000  C
  C14      1.0000 0.07430  0.09260  0.57460  Biso   1.000  C
  C15      1.0000 0.08550  0.86280  0.46320  Biso   1.000  C
  C16      1.0000 0.91450  0.13720  0.53680  Biso   1.000  C
  C17      1.0000 0.18090  0.72770  0.42250  Biso   1.000  C
  C18      1.0000 0.81910  0.27230  0.57750  Biso   1.000  C
  H13      1.0000 0.13300  0.66540  0.37110  Biso   1.000  H
  H14      1.0000 0.86700  0.33460  0.62890  Biso   1.000  H
  C19      1.0000 0.33770  0.68750  0.45620  Biso   1.000  C
  C20      1.0000 0.66230  0.31250  0.54380  Biso   1.000  C
  H15      1.0000 0.39890  0.59870  0.42680  Biso   1.000  H
  H16      1.0000 0.60110  0.40130  0.57320  Biso   1.000  H
  C21      1.0000 0.41160  0.77680  0.53500  Biso   1.000  C
  C22      1.0000 0.58840  0.22320  0.46500  Biso   1.000  C
  H17      1.0000 0.51940  0.74560  0.56070  Biso   1.000  H
  H18      1.0000 0.48060  0.25440  0.43930  Biso   1.000  H
  C23      1.0000 0.32700  0.90720  0.57330  Biso   1.000  C
  C24      1.0000 0.67300  0.09280  0.42670  Biso   1.000  C
  H19      1.0000 0.37860  0.96750  0.62410  Biso   1.000  H
  H20      1.0000 0.62140  0.03250  0.37590  Biso   1.000  H
  C25      1.0000 0.83620  0.04470  0.46090  Biso   1.000  C
  C26      1.0000 0.16380  0.95530  0.53910  Biso   1.000  C
  C27      1.0000 0.77330  0.20020  0.02390  Biso   1.000  C
  C28      1.0000 0.22670  0.79980  0.97610  Biso   1.000  C
  H21      1.0000 0.70260  0.12820  0.06740  Biso   1.000  H
  H22      1.0000 0.29740  0.87180  0.93260  Biso   1.000  H
  H23      1.0000 0.88340  0.14750  0.99320  Biso   1.000  H
  H24      1.0000 0.11660  0.85250  0.00680  Biso   1.000  H
  C29      1.0000 0.68290  0.27120  0.92100  Biso   1.000  C
  C30      1.0000 0.31710  0.72880  0.07900  Biso   1.000  C
  H25      1.0000 0.76190  0.32750  0.86790  Biso   1.000  H
  H26      1.0000 0.23810  0.67250  0.13210  Biso   1.000  H
  H27      1.0000 0.64150  0.19410  0.87360  Biso   1.000  H
  H28      1.0000 0.35850  0.80590  0.12640  Biso   1.000  H
