data_image0
_cell_length_a       12.3642
_cell_length_b       10.5636
_cell_length_c       16.322
_cell_angle_alpha    90
_cell_angle_beta     90.054
_cell_angle_gamma    90

_symmetry_space_group_name_H-M    "P 1"
_symmetry_int_tables_number       1

loop_
  _symmetry_equiv_pos_as_xyz
  'x, y, z'

loop_
  _atom_site_label
  _atom_site_occupancy
  _atom_site_fract_x
  _atom_site_fract_y
  _atom_site_fract_z
  _atom_site_thermal_displace_type
  _atom_site_B_iso_or_equiv
  _atom_site_type_symbol
  Cu1      1.0000 0.45052  0.13070  0.99015  Biso   1.000  Cu
  Cu2      1.0000 0.04948  0.63070  0.50985  Biso   1.000  Cu
  Cu3      1.0000 0.54948  0.86930  0.00985  Biso   1.000  Cu
  Cu4      1.0000 0.95052  0.36930  0.49015  Biso   1.000  Cu
  S1       1.0000 0.36348  0.43622  0.65026  Biso   1.000  S
  S2       1.0000 0.13652  0.93622  0.84974  Biso   1.000  S
  S3       1.0000 0.63652  0.56378  0.34974  Biso   1.000  S
  S4       1.0000 0.86348  0.06378  0.15026  Biso   1.000  S
  S5       1.0000 0.46986  0.58108  0.63871  Biso   1.000  S
  S6       1.0000 0.03014  0.08108  0.86129  Biso   1.000  S
  S7       1.0000 0.53014  0.41892  0.36129  Biso   1.000  S
  S8       1.0000 0.96986  0.91892  0.13871  Biso   1.000  S
  O1       1.0000 0.51015  0.02048  0.07288  Biso   1.000  O
  O2       1.0000 0.98985  0.52048  0.42712  Biso   1.000  O
  O3       1.0000 0.48985  0.97952  0.92712  Biso   1.000  O
  O4       1.0000 0.01015  0.47952  0.57288  Biso   1.000  O
  N1       1.0000 0.42552  0.23598  0.89158  Biso   1.000  N
  N2       1.0000 0.07448  0.73598  0.60842  Biso   1.000  N
  N3       1.0000 0.57448  0.76402  0.10842  Biso   1.000  N
  N4       1.0000 0.92552  0.26402  0.39158  Biso   1.000  N
  N5       1.0000 0.77558  0.42303  0.52123  Biso   1.000  N
  N6       1.0000 0.72442  0.92303  0.97877  Biso   1.000  N
  N7       1.0000 0.22442  0.57697  0.47877  Biso   1.000  N
  N8       1.0000 0.27558  0.07697  0.02123  Biso   1.000  N
  N9       1.0000 0.46663  0.26519  0.07692  Biso   1.000  N
  N10      1.0000 0.03337  0.76519  0.42308  Biso   1.000  N
  N11      1.0000 0.53337  0.73481  0.92308  Biso   1.000  N
  N12      1.0000 0.96663  0.23481  0.57692  Biso   1.000  N
  H1       1.0000 0.52980  0.30980  0.06950  Biso   1.000  H
  H2       1.0000 0.97020  0.80980  0.43050  Biso   1.000  H
  H3       1.0000 0.47020  0.69020  0.93050  Biso   1.000  H
  H4       1.0000 0.02980  0.19020  0.56950  Biso   1.000  H
  H5       1.0000 0.40940  0.32080  0.07510  Biso   1.000  H
  H6       1.0000 0.09060  0.82080  0.42490  Biso   1.000  H
  H7       1.0000 0.59060  0.67920  0.92490  Biso   1.000  H
  H8       1.0000 0.90940  0.17920  0.57510  Biso   1.000  H
  C1       1.0000 0.49261  0.32820  0.86803  Biso   1.000  C
  C2       1.0000 0.00739  0.82820  0.63197  Biso   1.000  C
  C3       1.0000 0.50739  0.67180  0.13197  Biso   1.000  C
  C4       1.0000 0.99261  0.17180  0.36803  Biso   1.000  C
  H9       1.0000 0.55180  0.34890  0.90270  Biso   1.000  H
  H10      1.0000 0.94820  0.84890  0.59730  Biso   1.000  H
  H11      1.0000 0.44820  0.65110  0.09730  Biso   1.000  H
  H12      1.0000 0.05180  0.15110  0.40270  Biso   1.000  H
  C5       1.0000 0.48035  0.39530  0.79550  Biso   1.000  C
  C6       1.0000 0.01965  0.89530  0.70450  Biso   1.000  C
  C7       1.0000 0.51965  0.60470  0.20450  Biso   1.000  C
  C8       1.0000 0.98035  0.10470  0.29550  Biso   1.000  C
  H13      1.0000 0.52990  0.46010  0.78060  Biso   1.000  H
  H14      1.0000 0.97010  0.96010  0.71940  Biso   1.000  H
  H15      1.0000 0.47010  0.53990  0.21940  Biso   1.000  H
  H16      1.0000 0.02990  0.03990  0.28060  Biso   1.000  H
  C9       1.0000 0.39374  0.36482  0.74563  Biso   1.000  C
  C10      1.0000 0.10626  0.86482  0.75437  Biso   1.000  C
  C11      1.0000 0.60626  0.63518  0.25437  Biso   1.000  C
  C12      1.0000 0.89374  0.13518  0.24563  Biso   1.000  C
  C13      1.0000 0.32332  0.26850  0.76911  Biso   1.000  C
  C14      1.0000 0.17668  0.76850  0.73089  Biso   1.000  C
  C15      1.0000 0.67668  0.73150  0.23089  Biso   1.000  C
  C16      1.0000 0.82332  0.23150  0.26911  Biso   1.000  C
  H17      1.0000 0.26380  0.24540  0.73540  Biso   1.000  H
  H18      1.0000 0.23620  0.74540  0.76460  Biso   1.000  H
  H19      1.0000 0.73620  0.75460  0.26460  Biso   1.000  H
  H20      1.0000 0.76380  0.25460  0.23540  Biso   1.000  H
  C17      1.0000 0.34197  0.20760  0.84240  Biso   1.000  C
  C18      1.0000 0.15803  0.70760  0.65760  Biso   1.000  C
  C19      1.0000 0.65803  0.79240  0.15760  Biso   1.000  C
  C20      1.0000 0.84197  0.29240  0.34240  Biso   1.000  C
  H21      1.0000 0.29350  0.14260  0.85880  Biso   1.000  H
  H22      1.0000 0.20650  0.64260  0.64120  Biso   1.000  H
  H23      1.0000 0.70650  0.85740  0.14120  Biso   1.000  H
  H24      1.0000 0.79350  0.35740  0.35880  Biso   1.000  H
  C21      1.0000 0.58578  0.51194  0.59269  Biso   1.000  C
  C22      1.0000 0.91422  0.01194  0.90731  Biso   1.000  C
  C23      1.0000 0.41422  0.48806  0.40731  Biso   1.000  C
  C24      1.0000 0.08578  0.98806  0.09269  Biso   1.000  C
  C25      1.0000 0.66399  0.59622  0.56531  Biso   1.000  C
  C26      1.0000 0.83601  0.09622  0.93469  Biso   1.000  C
  C27      1.0000 0.33601  0.40378  0.43469  Biso   1.000  C
  C28      1.0000 0.16399  0.90378  0.06531  Biso   1.000  C
  H25      1.0000 0.65360  0.68500  0.57010  Biso   1.000  H
  H26      1.0000 0.84640  0.18500  0.92990  Biso   1.000  H
  H27      1.0000 0.34640  0.31500  0.42990  Biso   1.000  H
  H28      1.0000 0.15360  0.81500  0.07010  Biso   1.000  H
  C29      1.0000 0.75713  0.54790  0.53091  Biso   1.000  C
  C30      1.0000 0.74287  0.04790  0.96909  Biso   1.000  C
  C31      1.0000 0.24287  0.45210  0.46909  Biso   1.000  C
  C32      1.0000 0.25713  0.95210  0.03091  Biso   1.000  C
  H29      1.0000 0.81110  0.60570  0.51310  Biso   1.000  H
  H30      1.0000 0.68890  0.10570  0.98690  Biso   1.000  H
  H31      1.0000 0.18890  0.39430  0.48690  Biso   1.000  H
  H32      1.0000 0.31110  0.89430  0.01310  Biso   1.000  H
  C33      1.0000 0.69874  0.34310  0.54733  Biso   1.000  C
  C34      1.0000 0.80126  0.84310  0.95267  Biso   1.000  C
  C35      1.0000 0.30126  0.65690  0.45267  Biso   1.000  C
  C36      1.0000 0.19874  0.15690  0.04733  Biso   1.000  C
  H33      1.0000 0.71040  0.25480  0.54070  Biso   1.000  H
  H34      1.0000 0.78960  0.75480  0.95930  Biso   1.000  H
  H35      1.0000 0.28960  0.74520  0.45930  Biso   1.000  H
  H36      1.0000 0.21040  0.24520  0.04070  Biso   1.000  H
  C37      1.0000 0.60325  0.38280  0.58341  Biso   1.000  C
  C38      1.0000 0.89675  0.88280  0.91659  Biso   1.000  C
  C39      1.0000 0.39675  0.61720  0.41659  Biso   1.000  C
  C40      1.0000 0.10325  0.11720  0.08341  Biso   1.000  C
  H37      1.0000 0.55090  0.32310  0.60140  Biso   1.000  H
  H38      1.0000 0.94910  0.82310  0.89860  Biso   1.000  H
  H39      1.0000 0.44910  0.67690  0.39860  Biso   1.000  H
  H40      1.0000 0.05090  0.17690  0.10140  Biso   1.000  H
  C41      1.0000 0.46853  0.19670  0.15630  Biso   1.000  C
  C42      1.0000 0.03147  0.69670  0.34370  Biso   1.000  C
  C43      1.0000 0.53147  0.80330  0.84370  Biso   1.000  C
  C44      1.0000 0.96853  0.30330  0.65630  Biso   1.000  C
  H41      1.0000 0.39440  0.17070  0.17180  Biso   1.000  H
  H42      1.0000 0.10560  0.67070  0.32820  Biso   1.000  H
  H43      1.0000 0.60560  0.82930  0.82820  Biso   1.000  H
  H44      1.0000 0.89440  0.32930  0.67180  Biso   1.000  H
  H45      1.0000 0.49750  0.25230  0.19990  Biso   1.000  H
  H46      1.0000 0.00250  0.75230  0.30010  Biso   1.000  H
  H47      1.0000 0.50250  0.74770  0.80010  Biso   1.000  H
  H48      1.0000 0.99750  0.24770  0.69990  Biso   1.000  H
  C45      1.0000 0.54033  0.08060  0.14641  Biso   1.000  C
  C46      1.0000 0.95967  0.58060  0.35359  Biso   1.000  C
  C47      1.0000 0.45967  0.91940  0.85359  Biso   1.000  C
  C48      1.0000 0.04033  0.41940  0.64641  Biso   1.000  C
  H49      1.0000 0.61730  0.10600  0.14420  Biso   1.000  H
  H50      1.0000 0.88270  0.60600  0.35580  Biso   1.000  H
  H51      1.0000 0.38270  0.89400  0.85580  Biso   1.000  H
  H52      1.0000 0.11730  0.39400  0.64420  Biso   1.000  H
  H53      1.0000 0.53040  0.02230  0.19330  Biso   1.000  H
  H54      1.0000 0.96960  0.52230  0.30670  Biso   1.000  H
  H55      1.0000 0.46960  0.97770  0.80670  Biso   1.000  H
  H56      1.0000 0.03040  0.47770  0.69330  Biso   1.000  H
  S9       1.0000 0.74725  0.43525  0.02236  Biso   1.000  S
  S10      1.0000 0.75275  0.93525  0.47764  Biso   1.000  S
  S11      1.0000 0.25275  0.56475  0.97764  Biso   1.000  S
  S12      1.0000 0.24725  0.06475  0.52236  Biso   1.000  S
  F1       1.0000 0.93359  0.39103  0.09196  Biso   1.000  F
  F2       1.0000 0.56641  0.89103  0.40804  Biso   1.000  F
  F3       1.0000 0.06641  0.60897  0.90804  Biso   1.000  F
  F4       1.0000 0.43359  0.10897  0.59196  Biso   1.000  F
  F5       1.0000 0.82781  0.50970  0.16202  Biso   1.000  F
  F6       1.0000 0.67219  0.00970  0.33798  Biso   1.000  F
  F7       1.0000 0.17219  0.49030  0.83798  Biso   1.000  F
  F8       1.0000 0.32781  0.99030  0.66202  Biso   1.000  F
  F9       1.0000 0.90907  0.58432  0.05560  Biso   1.000  F
  F10      1.0000 0.59093  0.08432  0.44440  Biso   1.000  F
  F11      1.0000 0.09093  0.41568  0.94440  Biso   1.000  F
  F12      1.0000 0.40907  0.91568  0.55560  Biso   1.000  F
  O5       1.0000 0.70438  0.32745  0.06541  Biso   1.000  O
  O6       1.0000 0.79562  0.82745  0.43459  Biso   1.000  O
  O7       1.0000 0.29562  0.67255  0.93459  Biso   1.000  O
  O8       1.0000 0.20438  0.17255  0.56541  Biso   1.000  O
  O9       1.0000 0.79703  0.40550  0.94470  Biso   1.000  O
  O10      1.0000 0.70297  0.90550  0.55530  Biso   1.000  O
  O11      1.0000 0.20297  0.59450  0.05530  Biso   1.000  O
  O12      1.0000 0.29703  0.09450  0.44470  Biso   1.000  O
  O13      1.0000 0.67913  0.54625  0.02017  Biso   1.000  O
  O14      1.0000 0.82087  0.04625  0.47983  Biso   1.000  O
  O15      1.0000 0.32087  0.45375  0.97983  Biso   1.000  O
  O16      1.0000 0.17913  0.95375  0.52017  Biso   1.000  O
  C49      1.0000 0.86060  0.48320  0.08634  Biso   1.000  C
  C50      1.0000 0.63940  0.98320  0.41366  Biso   1.000  C
  C51      1.0000 0.13940  0.51680  0.91366  Biso   1.000  C
  C52      1.0000 0.36060  0.01680  0.58634  Biso   1.000  C
  O17      1.0000 0.28711  0.42580  0.17586  Biso   1.000  O
  O18      1.0000 0.21289  0.92580  0.32414  Biso   1.000  O
  O19      1.0000 0.71289  0.57420  0.82414  Biso   1.000  O
  O20      1.0000 0.78711  0.07420  0.67586  Biso   1.000  O
  H57      1.0000 0.26550  0.48680  0.14940  Biso   1.000  H
  H58      1.0000 0.23450  0.98680  0.35060  Biso   1.000  H
  H59      1.0000 0.73450  0.51320  0.85060  Biso   1.000  H
  H60      1.0000 0.76550  0.01320  0.64940  Biso   1.000  H
  C53      1.0000 0.20620  0.38790  0.23140  Biso   1.000  C
  C54      1.0000 0.29380  0.88790  0.26860  Biso   1.000  C
  C55      1.0000 0.79380  0.61210  0.76860  Biso   1.000  C
  C56      1.0000 0.70620  0.11210  0.73140  Biso   1.000  C
  H61      1.0000 0.22930  0.31090  0.25990  Biso   1.000  H
  H62      1.0000 0.27070  0.81090  0.24010  Biso   1.000  H
  H63      1.0000 0.77070  0.68910  0.74010  Biso   1.000  H
  H64      1.0000 0.72930  0.18910  0.75990  Biso   1.000  H
  H65      1.0000 0.13900  0.37100  0.20140  Biso   1.000  H
  H66      1.0000 0.36100  0.87100  0.29860  Biso   1.000  H
  H67      1.0000 0.86100  0.62900  0.79860  Biso   1.000  H
  H68      1.0000 0.63900  0.12900  0.70140  Biso   1.000  H
  H69      1.0000 0.19380  0.45550  0.27140  Biso   1.000  H
  H70      1.0000 0.30620  0.95550  0.22860  Biso   1.000  H
  H71      1.0000 0.80620  0.54450  0.72860  Biso   1.000  H
  H72      1.0000 0.69380  0.04450  0.77140  Biso   1.000  H
