data_image0
_cell_length_a       10.4247
_cell_length_b       11.9967
_cell_length_c       14.591
_cell_angle_alpha    90
_cell_angle_beta     96.623
_cell_angle_gamma    90

_symmetry_space_group_name_H-M    "P 1"
_symmetry_int_tables_number       1

loop_
  _symmetry_equiv_pos_as_xyz
  'x, y, z'

loop_
  _atom_site_label
  _atom_site_occupancy
  _atom_site_fract_x
  _atom_site_fract_y
  _atom_site_fract_z
  _atom_site_thermal_displace_type
  _atom_site_B_iso_or_equiv
  _atom_site_type_symbol
  Cu1      1.0000 0.13877  0.96871  0.03428  Biso   1.000  Cu
  Cu2      1.0000 0.86123  0.46871  0.46572  Biso   1.000  Cu
  Cu3      1.0000 0.86123  0.03129  0.96572  Biso   1.000  Cu
  Cu4      1.0000 0.13877  0.53129  0.53428  Biso   1.000  Cu
  O1       1.0000 0.02900  0.09700  0.00610  Biso   1.000  O
  O2       1.0000 0.97100  0.59700  0.49390  Biso   1.000  O
  O3       1.0000 0.97100  0.90300  0.99390  Biso   1.000  O
  O4       1.0000 0.02900  0.40300  0.50610  Biso   1.000  O
  N1       1.0000 0.30260  0.05790  0.04390  Biso   1.000  N
  N2       1.0000 0.69740  0.55790  0.45610  Biso   1.000  N
  N3       1.0000 0.69740  0.94210  0.95610  Biso   1.000  N
  N4       1.0000 0.30260  0.44210  0.54390  Biso   1.000  N
  H1       1.0000 0.36410  0.01990  0.08200  Biso   1.000  H
  H2       1.0000 0.63590  0.51990  0.41800  Biso   1.000  H
  H3       1.0000 0.63590  0.98010  0.91800  Biso   1.000  H
  H4       1.0000 0.36410  0.48010  0.58200  Biso   1.000  H
  H5       1.0000 0.33030  0.05970  0.98620  Biso   1.000  H
  H6       1.0000 0.66970  0.55970  0.51380  Biso   1.000  H
  H7       1.0000 0.66970  0.94030  0.01380  Biso   1.000  H
  H8       1.0000 0.33030  0.44030  0.48620  Biso   1.000  H
  N5       1.0000 0.11540  0.96420  0.19060  Biso   1.000  N
  N6       1.0000 0.88460  0.46420  0.30940  Biso   1.000  N
  N7       1.0000 0.88460  0.03580  0.80940  Biso   1.000  N
  N8       1.0000 0.11540  0.53580  0.69060  Biso   1.000  N
  N9       1.0000 0.23750  0.82600  0.02560  Biso   1.000  N
  N10      1.0000 0.76250  0.32600  0.47440  Biso   1.000  N
  N11      1.0000 0.76250  0.17400  0.97440  Biso   1.000  N
  N12      1.0000 0.23750  0.67400  0.52560  Biso   1.000  N
  C1       1.0000 0.20140  0.00110  0.25990  Biso   1.000  C
  C2       1.0000 0.79860  0.50110  0.24010  Biso   1.000  C
  C3       1.0000 0.79860  0.99890  0.74010  Biso   1.000  C
  C4       1.0000 0.20140  0.49890  0.75990  Biso   1.000  C
  H9       1.0000 0.28630  0.01800  0.24660  Biso   1.000  H
  H10      1.0000 0.71370  0.51800  0.25340  Biso   1.000  H
  H11      1.0000 0.71370  0.98200  0.75340  Biso   1.000  H
  H12      1.0000 0.28630  0.48200  0.74660  Biso   1.000  H
  C5       1.0000 0.25900  0.75420  0.09570  Biso   1.000  C
  C6       1.0000 0.74100  0.25420  0.40430  Biso   1.000  C
  C7       1.0000 0.74100  0.24580  0.90430  Biso   1.000  C
  C8       1.0000 0.25900  0.74580  0.59570  Biso   1.000  C
  H13      1.0000 0.22240  0.76930  0.15100  Biso   1.000  H
  H14      1.0000 0.77760  0.26930  0.34900  Biso   1.000  H
  H15      1.0000 0.77760  0.23070  0.84900  Biso   1.000  H
  H16      1.0000 0.22240  0.73070  0.65100  Biso   1.000  H
  C9       1.0000 0.17270  0.01560  0.34920  Biso   1.000  C
  C10      1.0000 0.82730  0.51560  0.15080  Biso   1.000  C
  C11      1.0000 0.82730  0.98440  0.65080  Biso   1.000  C
  C12      1.0000 0.17270  0.48440  0.84920  Biso   1.000  C
  H17      1.0000 0.23590  0.04360  0.39560  Biso   1.000  H
  H18      1.0000 0.76410  0.54360  0.10440  Biso   1.000  H
  H19      1.0000 0.76410  0.95640  0.60440  Biso   1.000  H
  H20      1.0000 0.23590  0.45640  0.89560  Biso   1.000  H
  C13      1.0000 0.33290  0.65810  0.09090  Biso   1.000  C
  C14      1.0000 0.66710  0.15810  0.40910  Biso   1.000  C
  C15      1.0000 0.66710  0.34190  0.90910  Biso   1.000  C
  C16      1.0000 0.33290  0.84190  0.59090  Biso   1.000  C
  H21      1.0000 0.34550  0.60820  0.14170  Biso   1.000  H
  H22      1.0000 0.65450  0.10820  0.35830  Biso   1.000  H
  H23      1.0000 0.65450  0.39180  0.85830  Biso   1.000  H
  H24      1.0000 0.34550  0.89180  0.64170  Biso   1.000  H
  C17      1.0000 0.04980  0.98840  0.36980  Biso   1.000  C
  C18      1.0000 0.95020  0.48840  0.13020  Biso   1.000  C
  C19      1.0000 0.95020  0.01160  0.63020  Biso   1.000  C
  C20      1.0000 0.04980  0.51160  0.86980  Biso   1.000  C
  C21      1.0000 0.38770  0.63670  0.01050  Biso   1.000  C
  C22      1.0000 0.61230  0.13670  0.48950  Biso   1.000  C
  C23      1.0000 0.61230  0.36330  0.98950  Biso   1.000  C
  C24      1.0000 0.38770  0.86330  0.51050  Biso   1.000  C
  C25      1.0000 0.95920  0.95080  0.29840  Biso   1.000  C
  C26      1.0000 0.04080  0.45080  0.20160  Biso   1.000  C
  C27      1.0000 0.04080  0.04920  0.70160  Biso   1.000  C
  C28      1.0000 0.95920  0.54920  0.79840  Biso   1.000  C
  H25      1.0000 0.87380  0.93230  0.30980  Biso   1.000  H
  H26      1.0000 0.12620  0.43230  0.19020  Biso   1.000  H
  H27      1.0000 0.12620  0.06770  0.69020  Biso   1.000  H
  H28      1.0000 0.87380  0.56770  0.80980  Biso   1.000  H
  C29      1.0000 0.36330  0.71020  0.93700  Biso   1.000  C
  C30      1.0000 0.63670  0.21020  0.56300  Biso   1.000  C
  C31      1.0000 0.63670  0.28980  0.06300  Biso   1.000  C
  C32      1.0000 0.36330  0.78980  0.43700  Biso   1.000  C
  H29      1.0000 0.39740  0.69640  0.88050  Biso   1.000  H
  H30      1.0000 0.60260  0.19640  0.61950  Biso   1.000  H
  H31      1.0000 0.60260  0.30360  0.11950  Biso   1.000  H
  H32      1.0000 0.39740  0.80360  0.38050  Biso   1.000  H
  C33      1.0000 0.99670  0.94110  0.21060  Biso   1.000  C
  C34      1.0000 0.00330  0.44110  0.28940  Biso   1.000  C
  C35      1.0000 0.00330  0.05890  0.78940  Biso   1.000  C
  C36      1.0000 0.99670  0.55890  0.71060  Biso   1.000  C
  H33      1.0000 0.93440  0.91660  0.16210  Biso   1.000  H
  H34      1.0000 0.06560  0.41660  0.33790  Biso   1.000  H
  H35      1.0000 0.06560  0.08340  0.83790  Biso   1.000  H
  H36      1.0000 0.93440  0.58340  0.66210  Biso   1.000  H
  C37      1.0000 0.28910  0.80320  0.94710  Biso   1.000  C
  C38      1.0000 0.71090  0.30320  0.55290  Biso   1.000  C
  C39      1.0000 0.71090  0.19680  0.05290  Biso   1.000  C
  C40      1.0000 0.28910  0.69680  0.44710  Biso   1.000  C
  H37      1.0000 0.27360  0.85340  0.89670  Biso   1.000  H
  H38      1.0000 0.72640  0.35340  0.60330  Biso   1.000  H
  H39      1.0000 0.72640  0.14660  0.10330  Biso   1.000  H
  H40      1.0000 0.27360  0.64660  0.39670  Biso   1.000  H
  C41      1.0000 0.01530  0.99740  0.46190  Biso   1.000  C
  C42      1.0000 0.98470  0.49740  0.03810  Biso   1.000  C
  C43      1.0000 0.98470  0.00260  0.53810  Biso   1.000  C
  C44      1.0000 0.01530  0.50260  0.96190  Biso   1.000  C
  C45      1.0000 0.46650  0.54030  0.00330  Biso   1.000  C
  C46      1.0000 0.53350  0.04030  0.49670  Biso   1.000  C
  C47      1.0000 0.53350  0.45970  0.99670  Biso   1.000  C
  C48      1.0000 0.46650  0.95970  0.50330  Biso   1.000  C
  C49      1.0000 0.29930  0.17410  0.07780  Biso   1.000  C
  C50      1.0000 0.70070  0.67410  0.42220  Biso   1.000  C
  C51      1.0000 0.70070  0.82590  0.92220  Biso   1.000  C
  C52      1.0000 0.29930  0.32590  0.57780  Biso   1.000  C
  H41      1.0000 0.38360  0.21000  0.07250  Biso   1.000  H
  H42      1.0000 0.61640  0.71000  0.42750  Biso   1.000  H
  H43      1.0000 0.61640  0.79000  0.92750  Biso   1.000  H
  H44      1.0000 0.38360  0.29000  0.57250  Biso   1.000  H
  H45      1.0000 0.28590  0.17330  0.14390  Biso   1.000  H
  H46      1.0000 0.71410  0.67330  0.35610  Biso   1.000  H
  H47      1.0000 0.71410  0.82670  0.85610  Biso   1.000  H
  H48      1.0000 0.28590  0.32670  0.64390  Biso   1.000  H
  C53      1.0000 0.19360  0.24200  0.02480  Biso   1.000  C
  C54      1.0000 0.80640  0.74200  0.47520  Biso   1.000  C
  C55      1.0000 0.80640  0.75800  0.97520  Biso   1.000  C
  C56      1.0000 0.19360  0.25800  0.52480  Biso   1.000  C
  H49      1.0000 0.20190  0.23610  0.95810  Biso   1.000  H
  H50      1.0000 0.79810  0.73610  0.54190  Biso   1.000  H
  H51      1.0000 0.79810  0.76390  0.04190  Biso   1.000  H
  H52      1.0000 0.20190  0.26390  0.45810  Biso   1.000  H
  H53      1.0000 0.20520  0.32130  0.04260  Biso   1.000  H
  H54      1.0000 0.79480  0.82130  0.45740  Biso   1.000  H
  H55      1.0000 0.79480  0.67870  0.95740  Biso   1.000  H
  H56      1.0000 0.20520  0.17870  0.54260  Biso   1.000  H
  C57      1.0000 0.05910  0.20510  0.04150  Biso   1.000  C
  C58      1.0000 0.94090  0.70510  0.45850  Biso   1.000  C
  C59      1.0000 0.94090  0.79490  0.95850  Biso   1.000  C
  C60      1.0000 0.05910  0.29490  0.54150  Biso   1.000  C
  H57      1.0000 0.05250  0.20560  0.10870  Biso   1.000  H
  H58      1.0000 0.94750  0.70560  0.39130  Biso   1.000  H
  H59      1.0000 0.94750  0.79440  0.89130  Biso   1.000  H
  H60      1.0000 0.05250  0.29440  0.60870  Biso   1.000  H
  H61      1.0000 0.99520  0.25890  0.01200  Biso   1.000  H
  H62      1.0000 0.00480  0.75890  0.48800  Biso   1.000  H
  H63      1.0000 0.00480  0.74110  0.98800  Biso   1.000  H
  H64      1.0000 0.99520  0.24110  0.51200  Biso   1.000  H
  Cl1      1.0000 0.58899  0.90137  0.20210  Biso   1.000  Cl
  Cl2      1.0000 0.41101  0.40137  0.29790  Biso   1.000  Cl
  Cl3      1.0000 0.41101  0.09863  0.79790  Biso   1.000  Cl
  Cl4      1.0000 0.58899  0.59863  0.70210  Biso   1.000  Cl
  O5       1.0000 0.52840  0.90040  0.10530  Biso   1.000  O
  O6       1.0000 0.47160  0.40040  0.39470  Biso   1.000  O
  O7       1.0000 0.47160  0.09960  0.89470  Biso   1.000  O
  O8       1.0000 0.52840  0.59960  0.60530  Biso   1.000  O
  O9       1.0000 0.68340  0.81390  0.20460  Biso   1.000  O
  O10      1.0000 0.31660  0.31390  0.29540  Biso   1.000  O
  O11      1.0000 0.31660  0.18610  0.79540  Biso   1.000  O
  O12      1.0000 0.68340  0.68610  0.70460  Biso   1.000  O
  O13      1.0000 0.65280  0.00580  0.21570  Biso   1.000  O
  O14      1.0000 0.34720  0.50580  0.28430  Biso   1.000  O
  O15      1.0000 0.34720  0.99420  0.78430  Biso   1.000  O
  O16      1.0000 0.65280  0.49420  0.71570  Biso   1.000  O
  O17      1.0000 0.49190  0.87960  0.25760  Biso   1.000  O
  O18      1.0000 0.50810  0.37960  0.24240  Biso   1.000  O
  O19      1.0000 0.50810  0.12040  0.74240  Biso   1.000  O
  O20      1.0000 0.49190  0.62040  0.75760  Biso   1.000  O
  O21      1.0000 0.45440  0.90170  0.19240  Biso   1.000  O
  O22      1.0000 0.54560  0.40170  0.30760  Biso   1.000  O
  O23      1.0000 0.54560  0.09830  0.80760  Biso   1.000  O
  O24      1.0000 0.45440  0.59830  0.69240  Biso   1.000  O
  O25      1.0000 0.63270  0.79580  0.16800  Biso   1.000  O
  O26      1.0000 0.36730  0.29580  0.33200  Biso   1.000  O
  O27      1.0000 0.36730  0.20420  0.83200  Biso   1.000  O
  O28      1.0000 0.63270  0.70420  0.66800  Biso   1.000  O
  O29      1.0000 0.66670  0.98420  0.16890  Biso   1.000  O
  O30      1.0000 0.33330  0.48420  0.33110  Biso   1.000  O
  O31      1.0000 0.33330  0.01580  0.83110  Biso   1.000  O
  O32      1.0000 0.66670  0.51580  0.66890  Biso   1.000  O
  O33      1.0000 0.62930  0.89800  0.30240  Biso   1.000  O
  O34      1.0000 0.37070  0.39800  0.19760  Biso   1.000  O
  O35      1.0000 0.37070  0.10200  0.69760  Biso   1.000  O
  O36      1.0000 0.62930  0.60200  0.80240  Biso   1.000  O
