data_image0
_cell_length_a       14.9116
_cell_length_b       16.4483
_cell_length_c       16.0002
_cell_angle_alpha    90
_cell_angle_beta     90
_cell_angle_gamma    90

_symmetry_space_group_name_H-M    "P 1"
_symmetry_int_tables_number       1

loop_
  _symmetry_equiv_pos_as_xyz
  'x, y, z'

loop_
  _atom_site_label
  _atom_site_occupancy
  _atom_site_fract_x
  _atom_site_fract_y
  _atom_site_fract_z
  _atom_site_thermal_displace_type
  _atom_site_B_iso_or_equiv
  _atom_site_type_symbol
  Cu1      1.0000 0.00000  0.45113  0.25000  Biso   1.000  Cu
  Cu2      1.0000 0.50000  0.95113  0.25000  Biso   1.000  Cu
  Cu3      1.0000 0.00000  0.54887  0.75000  Biso   1.000  Cu
  Cu4      1.0000 0.50000  0.04887  0.75000  Biso   1.000  Cu
  S1       1.0000 0.30503  0.50732  0.95919  Biso   1.000  S
  S2       1.0000 0.80503  0.00732  0.54081  Biso   1.000  S
  S3       1.0000 0.30503  0.49268  0.45919  Biso   1.000  S
  S4       1.0000 0.19497  0.00732  0.95919  Biso   1.000  S
  S5       1.0000 0.69497  0.49268  0.04081  Biso   1.000  S
  S6       1.0000 0.19497  0.99268  0.45919  Biso   1.000  S
  S7       1.0000 0.69497  0.50732  0.54081  Biso   1.000  S
  S8       1.0000 0.80503  0.99268  0.04081  Biso   1.000  S
  O1       1.0000 0.11380  0.37590  0.00750  Biso   1.000  O
  O2       1.0000 0.61380  0.87590  0.49250  Biso   1.000  O
  O3       1.0000 0.11380  0.62410  0.50750  Biso   1.000  O
  O4       1.0000 0.38620  0.87590  0.00750  Biso   1.000  O
  O5       1.0000 0.88620  0.62410  0.99250  Biso   1.000  O
  O6       1.0000 0.38620  0.12410  0.50750  Biso   1.000  O
  O7       1.0000 0.88620  0.37590  0.49250  Biso   1.000  O
  O8       1.0000 0.61380  0.12410  0.99250  Biso   1.000  O
  O9       1.0000 0.33980  0.56310  0.01950  Biso   1.000  O
  O10      1.0000 0.83980  0.06310  0.48050  Biso   1.000  O
  O11      1.0000 0.33980  0.43690  0.51950  Biso   1.000  O
  O12      1.0000 0.16020  0.06310  0.01950  Biso   1.000  O
  O13      1.0000 0.66020  0.43690  0.98050  Biso   1.000  O
  O14      1.0000 0.16020  0.93690  0.51950  Biso   1.000  O
  O15      1.0000 0.66020  0.56310  0.48050  Biso   1.000  O
  O16      1.0000 0.83980  0.93690  0.98050  Biso   1.000  O
  O17      1.0000 0.31900  0.53060  0.87330  Biso   1.000  O
  O18      1.0000 0.81900  0.03060  0.62670  Biso   1.000  O
  O19      1.0000 0.31900  0.46940  0.37330  Biso   1.000  O
  O20      1.0000 0.18100  0.03060  0.87330  Biso   1.000  O
  O21      1.0000 0.68100  0.46940  0.12670  Biso   1.000  O
  O22      1.0000 0.18100  0.96940  0.37330  Biso   1.000  O
  O23      1.0000 0.68100  0.53060  0.62670  Biso   1.000  O
  O24      1.0000 0.81900  0.96940  0.12670  Biso   1.000  O
  O25      1.0000 0.97410  0.44550  0.09590  Biso   1.000  O
  O26      1.0000 0.47410  0.94550  0.40410  Biso   1.000  O
  O27      1.0000 0.97410  0.55450  0.59590  Biso   1.000  O
  O28      1.0000 0.52590  0.94550  0.09590  Biso   1.000  O
  O29      1.0000 0.02590  0.55450  0.90410  Biso   1.000  O
  O30      1.0000 0.52590  0.05450  0.59590  Biso   1.000  O
  O31      1.0000 0.02590  0.44550  0.40410  Biso   1.000  O
  O32      1.0000 0.47410  0.05450  0.90410  Biso   1.000  O
  N1       1.0000 0.20010  0.48670  0.97740  Biso   1.000  N
  N2       1.0000 0.70010  0.98670  0.52260  Biso   1.000  N
  N3       1.0000 0.20010  0.51330  0.47740  Biso   1.000  N
  N4       1.0000 0.29990  0.98670  0.97740  Biso   1.000  N
  N5       1.0000 0.79990  0.51330  0.02260  Biso   1.000  N
  N6       1.0000 0.29990  0.01330  0.47740  Biso   1.000  N
  N7       1.0000 0.79990  0.48670  0.52260  Biso   1.000  N
  N8       1.0000 0.70010  0.01330  0.02260  Biso   1.000  N
  N9       1.0000 0.09520  0.36460  0.23500  Biso   1.000  N
  N10      1.0000 0.59520  0.86460  0.26500  Biso   1.000  N
  N11      1.0000 0.09520  0.63540  0.73500  Biso   1.000  N
  N12      1.0000 0.40480  0.86460  0.23500  Biso   1.000  N
  N13      1.0000 0.90480  0.63540  0.76500  Biso   1.000  N
  N14      1.0000 0.40480  0.13540  0.73500  Biso   1.000  N
  N15      1.0000 0.90480  0.36460  0.26500  Biso   1.000  N
  N16      1.0000 0.59520  0.13540  0.76500  Biso   1.000  N
  N17      1.0000 0.40720  0.04060  0.24390  Biso   1.000  N
  N18      1.0000 0.90720  0.54060  0.25610  Biso   1.000  N
  N19      1.0000 0.40720  0.95940  0.74390  Biso   1.000  N
  N20      1.0000 0.09280  0.54060  0.24390  Biso   1.000  N
  N21      1.0000 0.59280  0.95940  0.75610  Biso   1.000  N
  N22      1.0000 0.09280  0.45940  0.74390  Biso   1.000  N
  N23      1.0000 0.59280  0.04060  0.25610  Biso   1.000  N
  N24      1.0000 0.90720  0.45940  0.75610  Biso   1.000  N
  C1       1.0000 0.34710  0.40840  0.97640  Biso   1.000  C
  C2       1.0000 0.84710  0.90840  0.52360  Biso   1.000  C
  C3       1.0000 0.34710  0.59160  0.47640  Biso   1.000  C
  C4       1.0000 0.15290  0.90840  0.97640  Biso   1.000  C
  C5       1.0000 0.65290  0.59160  0.02360  Biso   1.000  C
  C6       1.0000 0.15290  0.09160  0.47640  Biso   1.000  C
  C7       1.0000 0.65290  0.40840  0.52360  Biso   1.000  C
  C8       1.0000 0.84710  0.09160  0.02360  Biso   1.000  C
  C9       1.0000 0.43420  0.37830  0.97380  Biso   1.000  C
  C10      1.0000 0.93420  0.87830  0.52620  Biso   1.000  C
  C11      1.0000 0.43420  0.62170  0.47380  Biso   1.000  C
  C12      1.0000 0.06580  0.87830  0.97380  Biso   1.000  C
  C13      1.0000 0.56580  0.62170  0.02620  Biso   1.000  C
  C14      1.0000 0.06580  0.12170  0.47380  Biso   1.000  C
  C15      1.0000 0.56580  0.37830  0.52620  Biso   1.000  C
  C16      1.0000 0.93420  0.12170  0.02620  Biso   1.000  C
  C17      1.0000 0.44550  0.29590  0.98880  Biso   1.000  C
  C18      1.0000 0.94550  0.79590  0.51120  Biso   1.000  C
  C19      1.0000 0.44550  0.70410  0.48880  Biso   1.000  C
  C20      1.0000 0.05450  0.79590  0.98880  Biso   1.000  C
  C21      1.0000 0.55450  0.70410  0.01120  Biso   1.000  C
  C22      1.0000 0.05450  0.20410  0.48880  Biso   1.000  C
  C23      1.0000 0.55450  0.29590  0.51120  Biso   1.000  C
  C24      1.0000 0.94550  0.20410  0.01120  Biso   1.000  C
  C25      1.0000 0.37190  0.24530  0.00320  Biso   1.000  C
  C26      1.0000 0.87190  0.74530  0.49680  Biso   1.000  C
  C27      1.0000 0.37190  0.75470  0.50320  Biso   1.000  C
  C28      1.0000 0.12810  0.74530  0.00320  Biso   1.000  C
  C29      1.0000 0.62810  0.75470  0.99680  Biso   1.000  C
  C30      1.0000 0.12810  0.25470  0.50320  Biso   1.000  C
  C31      1.0000 0.62810  0.24530  0.49680  Biso   1.000  C
  C32      1.0000 0.87190  0.25470  0.99680  Biso   1.000  C
  C33      1.0000 0.28430  0.27540  0.00460  Biso   1.000  C
  C34      1.0000 0.78430  0.77540  0.49540  Biso   1.000  C
  C35      1.0000 0.28430  0.72460  0.50460  Biso   1.000  C
  C36      1.0000 0.21570  0.77540  0.00460  Biso   1.000  C
  C37      1.0000 0.71570  0.72460  0.99540  Biso   1.000  C
  C38      1.0000 0.21570  0.22460  0.50460  Biso   1.000  C
  C39      1.0000 0.71570  0.27540  0.49540  Biso   1.000  C
  C40      1.0000 0.78430  0.22460  0.99540  Biso   1.000  C
  C41      1.0000 0.27360  0.35930  0.99230  Biso   1.000  C
  C42      1.0000 0.77360  0.85930  0.50770  Biso   1.000  C
  C43      1.0000 0.27360  0.64070  0.49230  Biso   1.000  C
  C44      1.0000 0.22640  0.85930  0.99230  Biso   1.000  C
  C45      1.0000 0.72640  0.64070  0.00770  Biso   1.000  C
  C46      1.0000 0.22640  0.14070  0.49230  Biso   1.000  C
  C47      1.0000 0.72640  0.35930  0.50770  Biso   1.000  C
  C48      1.0000 0.77360  0.14070  0.00770  Biso   1.000  C
  C49      1.0000 0.18770  0.40720  0.99340  Biso   1.000  C
  C50      1.0000 0.68770  0.90720  0.50660  Biso   1.000  C
  C51      1.0000 0.18770  0.59280  0.49340  Biso   1.000  C
  C52      1.0000 0.31230  0.90720  0.99340  Biso   1.000  C
  C53      1.0000 0.81230  0.59280  0.00660  Biso   1.000  C
  C54      1.0000 0.31230  0.09280  0.49340  Biso   1.000  C
  C55      1.0000 0.81230  0.40720  0.50660  Biso   1.000  C
  C56      1.0000 0.68770  0.09280  0.00660  Biso   1.000  C
  C57      1.0000 0.17230  0.36970  0.27860  Biso   1.000  C
  C58      1.0000 0.67230  0.86970  0.22140  Biso   1.000  C
  C59      1.0000 0.17230  0.63030  0.77860  Biso   1.000  C
  C60      1.0000 0.32770  0.86970  0.27860  Biso   1.000  C
  C61      1.0000 0.82770  0.63030  0.72140  Biso   1.000  C
  C62      1.0000 0.32770  0.13030  0.77860  Biso   1.000  C
  C63      1.0000 0.82770  0.36970  0.22140  Biso   1.000  C
  C64      1.0000 0.67230  0.13030  0.72140  Biso   1.000  C
  C65      1.0000 0.23590  0.30930  0.27920  Biso   1.000  C
  C66      1.0000 0.73590  0.80930  0.22080  Biso   1.000  C
  C67      1.0000 0.23590  0.69070  0.77920  Biso   1.000  C
  C68      1.0000 0.26410  0.80930  0.27920  Biso   1.000  C
  C69      1.0000 0.76410  0.69070  0.72080  Biso   1.000  C
  C70      1.0000 0.26410  0.19070  0.77920  Biso   1.000  C
  C71      1.0000 0.76410  0.30930  0.22080  Biso   1.000  C
  C72      1.0000 0.73590  0.19070  0.72080  Biso   1.000  C
  C73      1.0000 0.22060  0.23800  0.23310  Biso   1.000  C
  C74      1.0000 0.72060  0.73800  0.26690  Biso   1.000  C
  C75      1.0000 0.22060  0.76200  0.73310  Biso   1.000  C
  C76      1.0000 0.27940  0.73800  0.23310  Biso   1.000  C
  C77      1.0000 0.77940  0.76200  0.76690  Biso   1.000  C
  C78      1.0000 0.27940  0.26200  0.73310  Biso   1.000  C
  C79      1.0000 0.77940  0.23800  0.26690  Biso   1.000  C
  C80      1.0000 0.72060  0.26200  0.76690  Biso   1.000  C
  C81      1.0000 0.14160  0.23340  0.18650  Biso   1.000  C
  C82      1.0000 0.64160  0.73340  0.31350  Biso   1.000  C
  C83      1.0000 0.14160  0.76660  0.68650  Biso   1.000  C
  C84      1.0000 0.35840  0.73340  0.18650  Biso   1.000  C
  C85      1.0000 0.85840  0.76660  0.81350  Biso   1.000  C
  C86      1.0000 0.35840  0.26660  0.68650  Biso   1.000  C
  C87      1.0000 0.85840  0.23340  0.31350  Biso   1.000  C
  C88      1.0000 0.64160  0.26660  0.81350  Biso   1.000  C
  C89      1.0000 0.08140  0.29730  0.18840  Biso   1.000  C
  C90      1.0000 0.58140  0.79730  0.31160  Biso   1.000  C
  C91      1.0000 0.08140  0.70270  0.68840  Biso   1.000  C
  C92      1.0000 0.41860  0.79730  0.18840  Biso   1.000  C
  C93      1.0000 0.91860  0.70270  0.81160  Biso   1.000  C
  C94      1.0000 0.41860  0.20270  0.68840  Biso   1.000  C
  C95      1.0000 0.91860  0.29730  0.31160  Biso   1.000  C
  C96      1.0000 0.58140  0.20270  0.81160  Biso   1.000  C
  C97      1.0000 0.34980  0.04800  0.17950  Biso   1.000  C
  C98      1.0000 0.84980  0.54800  0.32050  Biso   1.000  C
  C99      1.0000 0.34980  0.95200  0.67950  Biso   1.000  C
  C100     1.0000 0.15020  0.54800  0.17950  Biso   1.000  C
  C101     1.0000 0.65020  0.95200  0.82050  Biso   1.000  C
  C102     1.0000 0.15020  0.45200  0.67950  Biso   1.000  C
  C103     1.0000 0.65020  0.04800  0.32050  Biso   1.000  C
  C104     1.0000 0.84980  0.45200  0.82050  Biso   1.000  C
  C105     1.0000 0.28920  0.11080  0.17360  Biso   1.000  C
  C106     1.0000 0.78920  0.61080  0.32640  Biso   1.000  C
  C107     1.0000 0.28920  0.88920  0.67360  Biso   1.000  C
  C108     1.0000 0.21080  0.61080  0.17360  Biso   1.000  C
  C109     1.0000 0.71080  0.88920  0.82640  Biso   1.000  C
  C110     1.0000 0.21080  0.38920  0.67360  Biso   1.000  C
  C111     1.0000 0.71080  0.11080  0.32640  Biso   1.000  C
  C112     1.0000 0.78920  0.38920  0.82640  Biso   1.000  C
  C113     1.0000 0.28590  0.16960  0.23600  Biso   1.000  C
  C114     1.0000 0.78590  0.66960  0.26400  Biso   1.000  C
  C115     1.0000 0.28590  0.83040  0.73600  Biso   1.000  C
  C116     1.0000 0.21410  0.66960  0.23600  Biso   1.000  C
  C117     1.0000 0.71410  0.83040  0.76400  Biso   1.000  C
  C118     1.0000 0.21410  0.33040  0.73600  Biso   1.000  C
  C119     1.0000 0.71410  0.16960  0.26400  Biso   1.000  C
  C120     1.0000 0.78590  0.33040  0.76400  Biso   1.000  C
  C121     1.0000 0.34580  0.16220  0.30220  Biso   1.000  C
  C122     1.0000 0.84580  0.66220  0.19780  Biso   1.000  C
  C123     1.0000 0.34580  0.83780  0.80220  Biso   1.000  C
  C124     1.0000 0.15420  0.66220  0.30220  Biso   1.000  C
  C125     1.0000 0.65420  0.83780  0.69780  Biso   1.000  C
  C126     1.0000 0.15420  0.33780  0.80220  Biso   1.000  C
  C127     1.0000 0.65420  0.16220  0.19780  Biso   1.000  C
  C128     1.0000 0.84580  0.33780  0.69780  Biso   1.000  C
  C129     1.0000 0.40460  0.09740  0.30390  Biso   1.000  C
  C130     1.0000 0.90460  0.59740  0.19610  Biso   1.000  C
  C131     1.0000 0.40460  0.90260  0.80390  Biso   1.000  C
  C132     1.0000 0.09540  0.59740  0.30390  Biso   1.000  C
  C133     1.0000 0.59540  0.90260  0.69610  Biso   1.000  C
  C134     1.0000 0.09540  0.40260  0.80390  Biso   1.000  C
  C135     1.0000 0.59540  0.09740  0.19610  Biso   1.000  C
  C136     1.0000 0.90460  0.40260  0.69610  Biso   1.000  C
  H1       1.0000 0.01500  0.42700  0.06400  Biso   1.000  H
  H2       1.0000 0.51500  0.92700  0.43600  Biso   1.000  H
  H3       1.0000 0.01500  0.57300  0.56400  Biso   1.000  H
  H4       1.0000 0.48500  0.92700  0.06400  Biso   1.000  H
  H5       1.0000 0.98500  0.57300  0.93600  Biso   1.000  H
  H6       1.0000 0.48500  0.07300  0.56400  Biso   1.000  H
  H7       1.0000 0.98500  0.42700  0.43600  Biso   1.000  H
  H8       1.0000 0.51500  0.07300  0.93600  Biso   1.000  H
  H9       1.0000 0.92700  0.45100  0.06700  Biso   1.000  H
  H10      1.0000 0.42700  0.95100  0.43300  Biso   1.000  H
  H11      1.0000 0.92700  0.54900  0.56700  Biso   1.000  H
  H12      1.0000 0.57300  0.95100  0.06700  Biso   1.000  H
  H13      1.0000 0.07300  0.54900  0.93300  Biso   1.000  H
  H14      1.0000 0.57300  0.04900  0.56700  Biso   1.000  H
  H15      1.0000 0.07300  0.45100  0.43300  Biso   1.000  H
  H16      1.0000 0.42700  0.04900  0.93300  Biso   1.000  H
  H17      1.0000 0.48270  0.41210  0.96260  Biso   1.000  H
  H18      1.0000 0.98270  0.91210  0.53740  Biso   1.000  H
  H19      1.0000 0.48270  0.58790  0.46260  Biso   1.000  H
  H20      1.0000 0.01730  0.91210  0.96260  Biso   1.000  H
  H21      1.0000 0.51730  0.58790  0.03740  Biso   1.000  H
  H22      1.0000 0.01730  0.08790  0.46260  Biso   1.000  H
  H23      1.0000 0.51730  0.41210  0.53740  Biso   1.000  H
  H24      1.0000 0.98270  0.08790  0.03740  Biso   1.000  H
  H25      1.0000 0.50300  0.27400  0.98910  Biso   1.000  H
  H26      1.0000 0.00300  0.77400  0.51090  Biso   1.000  H
  H27      1.0000 0.50300  0.72600  0.48910  Biso   1.000  H
  H28      1.0000 0.99700  0.77400  0.98910  Biso   1.000  H
  H29      1.0000 0.49700  0.72600  0.01090  Biso   1.000  H
  H30      1.0000 0.99700  0.22600  0.48910  Biso   1.000  H
  H31      1.0000 0.49700  0.27400  0.51090  Biso   1.000  H
  H32      1.0000 0.00300  0.22600  0.01090  Biso   1.000  H
  H33      1.0000 0.38140  0.19010  0.01210  Biso   1.000  H
  H34      1.0000 0.88140  0.69010  0.48790  Biso   1.000  H
  H35      1.0000 0.38140  0.80990  0.51210  Biso   1.000  H
  H36      1.0000 0.11860  0.69010  0.01210  Biso   1.000  H
  H37      1.0000 0.61860  0.80990  0.98790  Biso   1.000  H
  H38      1.0000 0.11860  0.30990  0.51210  Biso   1.000  H
  H39      1.0000 0.61860  0.19010  0.48790  Biso   1.000  H
  H40      1.0000 0.88140  0.30990  0.98790  Biso   1.000  H
  H41      1.0000 0.23540  0.24140  0.01330  Biso   1.000  H
  H42      1.0000 0.73540  0.74140  0.48670  Biso   1.000  H
  H43      1.0000 0.23540  0.75860  0.51330  Biso   1.000  H
  H44      1.0000 0.26460  0.74140  0.01330  Biso   1.000  H
  H45      1.0000 0.76460  0.75860  0.98670  Biso   1.000  H
  H46      1.0000 0.26460  0.25860  0.51330  Biso   1.000  H
  H47      1.0000 0.76460  0.24140  0.48670  Biso   1.000  H
  H48      1.0000 0.73540  0.25860  0.98670  Biso   1.000  H
  H49      1.0000 0.18290  0.41640  0.30990  Biso   1.000  H
  H50      1.0000 0.68290  0.91640  0.19010  Biso   1.000  H
  H51      1.0000 0.18290  0.58360  0.80990  Biso   1.000  H
  H52      1.0000 0.31710  0.91640  0.30990  Biso   1.000  H
  H53      1.0000 0.81710  0.58360  0.69010  Biso   1.000  H
  H54      1.0000 0.31710  0.08360  0.80990  Biso   1.000  H
  H55      1.0000 0.81710  0.41640  0.19010  Biso   1.000  H
  H56      1.0000 0.68290  0.08360  0.69010  Biso   1.000  H
  H57      1.0000 0.28850  0.31560  0.30970  Biso   1.000  H
  H58      1.0000 0.78850  0.81560  0.19030  Biso   1.000  H
  H59      1.0000 0.28850  0.68440  0.80970  Biso   1.000  H
  H60      1.0000 0.21150  0.81560  0.30970  Biso   1.000  H
  H61      1.0000 0.71150  0.68440  0.69030  Biso   1.000  H
  H62      1.0000 0.21150  0.18440  0.80970  Biso   1.000  H
  H63      1.0000 0.71150  0.31560  0.19030  Biso   1.000  H
  H64      1.0000 0.78850  0.18440  0.69030  Biso   1.000  H
  H65      1.0000 0.12960  0.18750  0.15440  Biso   1.000  H
  H66      1.0000 0.62960  0.68750  0.34560  Biso   1.000  H
  H67      1.0000 0.12960  0.81250  0.65440  Biso   1.000  H
  H68      1.0000 0.37040  0.68750  0.15440  Biso   1.000  H
  H69      1.0000 0.87040  0.81250  0.84560  Biso   1.000  H
  H70      1.0000 0.37040  0.31250  0.65440  Biso   1.000  H
  H71      1.0000 0.87040  0.18750  0.34560  Biso   1.000  H
  H72      1.0000 0.62960  0.31250  0.84560  Biso   1.000  H
  H73      1.0000 0.02940  0.29380  0.15640  Biso   1.000  H
  H74      1.0000 0.52940  0.79380  0.34360  Biso   1.000  H
  H75      1.0000 0.02940  0.70620  0.65640  Biso   1.000  H
  H76      1.0000 0.47060  0.79380  0.15640  Biso   1.000  H
  H77      1.0000 0.97060  0.70620  0.84360  Biso   1.000  H
  H78      1.0000 0.47060  0.20620  0.65640  Biso   1.000  H
  H79      1.0000 0.97060  0.29380  0.34360  Biso   1.000  H
  H80      1.0000 0.52940  0.20620  0.84360  Biso   1.000  H
  H81      1.0000 0.35110  0.00920  0.13740  Biso   1.000  H
  H82      1.0000 0.85110  0.50920  0.36260  Biso   1.000  H
  H83      1.0000 0.35110  0.99080  0.63740  Biso   1.000  H
  H84      1.0000 0.14890  0.50920  0.13740  Biso   1.000  H
  H85      1.0000 0.64890  0.99080  0.86260  Biso   1.000  H
  H86      1.0000 0.14890  0.49080  0.63740  Biso   1.000  H
  H87      1.0000 0.64890  0.00920  0.36260  Biso   1.000  H
  H88      1.0000 0.85110  0.49080  0.86260  Biso   1.000  H
  H89      1.0000 0.25060  0.11390  0.12810  Biso   1.000  H
  H90      1.0000 0.75060  0.61390  0.37190  Biso   1.000  H
  H91      1.0000 0.25060  0.88610  0.62810  Biso   1.000  H
  H92      1.0000 0.24940  0.61390  0.12810  Biso   1.000  H
  H93      1.0000 0.74940  0.88610  0.87190  Biso   1.000  H
  H94      1.0000 0.24940  0.38610  0.62810  Biso   1.000  H
  H95      1.0000 0.74940  0.11390  0.37190  Biso   1.000  H
  H96      1.0000 0.75060  0.38610  0.87190  Biso   1.000  H
  H97      1.0000 0.34630  0.20060  0.34490  Biso   1.000  H
  H98      1.0000 0.84630  0.70060  0.15510  Biso   1.000  H
  H99      1.0000 0.34630  0.79940  0.84490  Biso   1.000  H
  H100     1.0000 0.15370  0.70060  0.34490  Biso   1.000  H
  H101     1.0000 0.65370  0.79940  0.65510  Biso   1.000  H
  H102     1.0000 0.15370  0.29940  0.84490  Biso   1.000  H
  H103     1.0000 0.65370  0.20060  0.15510  Biso   1.000  H
  H104     1.0000 0.84630  0.29940  0.65510  Biso   1.000  H
  H105     1.0000 0.44410  0.09290  0.34860  Biso   1.000  H
  H106     1.0000 0.94410  0.59290  0.15140  Biso   1.000  H
  H107     1.0000 0.44410  0.90710  0.84860  Biso   1.000  H
  H108     1.0000 0.05590  0.59290  0.34860  Biso   1.000  H
  H109     1.0000 0.55590  0.90710  0.65140  Biso   1.000  H
  H110     1.0000 0.05590  0.40710  0.84860  Biso   1.000  H
  H111     1.0000 0.55590  0.09290  0.15140  Biso   1.000  H
  H112     1.0000 0.94410  0.40710  0.65140  Biso   1.000  H
  Cl1      1.0000 0.50000  0.33440  0.25000  Biso   1.000  Cl
  Cl2      1.0000 0.00000  0.83440  0.25000  Biso   1.000  Cl
  Cl3      1.0000 0.50000  0.66560  0.75000  Biso   1.000  Cl
  Cl4      1.0000 0.00000  0.16560  0.75000  Biso   1.000  Cl
  Cl5      1.0000 0.42870  0.48310  0.18480  Biso   1.000  Cl
  Cl6      1.0000 0.92870  0.98310  0.31520  Biso   1.000  Cl
  Cl7      1.0000 0.42870  0.51690  0.68480  Biso   1.000  Cl
  Cl8      1.0000 0.07130  0.98310  0.18480  Biso   1.000  Cl
  Cl9      1.0000 0.57130  0.51690  0.81520  Biso   1.000  Cl
  Cl10     1.0000 0.07130  0.01690  0.68480  Biso   1.000  Cl
  Cl11     1.0000 0.57130  0.48310  0.31520  Biso   1.000  Cl
  Cl12     1.0000 0.92870  0.01690  0.81520  Biso   1.000  Cl
  C137     1.0000 0.50000  0.43940  0.25000  Biso   1.000  C
  C138     1.0000 0.00000  0.93940  0.25000  Biso   1.000  C
  C139     1.0000 0.50000  0.56060  0.75000  Biso   1.000  C
  C140     1.0000 0.00000  0.06060  0.75000  Biso   1.000  C
  H113     1.0000 0.48650  0.45800  0.30620  Biso   1.000  H
  H114     1.0000 0.98650  0.95800  0.19380  Biso   1.000  H
  H115     1.0000 0.48650  0.54200  0.80620  Biso   1.000  H
  H116     1.0000 0.01350  0.95800  0.30620  Biso   1.000  H
  H117     1.0000 0.51350  0.54200  0.69380  Biso   1.000  H
  H118     1.0000 0.01350  0.04200  0.80620  Biso   1.000  H
  H119     1.0000 0.51350  0.45800  0.19380  Biso   1.000  H
  H120     1.0000 0.98650  0.04200  0.69380  Biso   1.000  H
  H121     1.0000 0.56000  0.45800  0.23640  Biso   1.000  H
  H122     1.0000 0.06000  0.95800  0.26360  Biso   1.000  H
  H123     1.0000 0.56000  0.54200  0.73640  Biso   1.000  H
  H124     1.0000 0.94000  0.95800  0.23640  Biso   1.000  H
  H125     1.0000 0.44000  0.54200  0.76360  Biso   1.000  H
  H126     1.0000 0.94000  0.04200  0.73640  Biso   1.000  H
  H127     1.0000 0.44000  0.45800  0.26360  Biso   1.000  H
  H128     1.0000 0.06000  0.04200  0.76360  Biso   1.000  H
