data_image0
_cell_length_a       10.4254
_cell_length_b       11.7087
_cell_length_c       14.512
_cell_angle_alpha    75.823
_cell_angle_beta     70.211
_cell_angle_gamma    69.733

_symmetry_space_group_name_H-M    "P 1"
_symmetry_int_tables_number       1

loop_
  _symmetry_equiv_pos_as_xyz
  'x, y, z'

loop_
  _atom_site_label
  _atom_site_occupancy
  _atom_site_fract_x
  _atom_site_fract_y
  _atom_site_fract_z
  _atom_site_thermal_displace_type
  _atom_site_B_iso_or_equiv
  _atom_site_type_symbol
  Cu1      1.0000 0.25838  0.32025  0.35083  Biso   1.000  Cu
  Cu2      1.0000 0.74162  0.67975  0.64917  Biso   1.000  Cu
  Cu3      1.0000 0.53054  0.37963  0.26262  Biso   1.000  Cu
  Cu4      1.0000 0.46946  0.62037  0.73738  Biso   1.000  Cu
  O1       1.0000 0.34547  0.41955  0.23418  Biso   1.000  O
  O2       1.0000 0.65453  0.58045  0.76582  Biso   1.000  O
  O3       1.0000 0.45282  0.24950  0.34822  Biso   1.000  O
  O4       1.0000 0.54718  0.75050  0.65178  Biso   1.000  O
  N1       1.0000 0.07398  0.42241  0.32673  Biso   1.000  N
  N2       1.0000 0.92602  0.57759  0.67327  Biso   1.000  N
  H1       1.0000 0.02190  0.37330  0.32630  Biso   1.000  H
  H2       1.0000 0.97810  0.62670  0.67370  Biso   1.000  H
  H3       1.0000 0.02220  0.47130  0.37550  Biso   1.000  H
  H4       1.0000 0.97780  0.52870  0.62450  Biso   1.000  H
  N3       1.0000 0.18835  0.21180  0.47224  Biso   1.000  N
  N4       1.0000 0.81165  0.78820  0.52776  Biso   1.000  N
  N5       1.0000 0.66040  0.32830  0.35079  Biso   1.000  N
  N6       1.0000 0.33960  0.67170  0.64921  Biso   1.000  N
  H5       1.0000 0.74840  0.27980  0.32050  Biso   1.000  H
  H6       1.0000 0.25160  0.72020  0.67950  Biso   1.000  H
  H7       1.0000 0.67170  0.39630  0.36460  Biso   1.000  H
  H8       1.0000 0.32830  0.60370  0.63540  Biso   1.000  H
  N7       1.0000 0.40610  0.47745  0.82613  Biso   1.000  N
  N8       1.0000 0.59390  0.52255  0.17387  Biso   1.000  N
  N9       1.0000 0.66140  0.24617  0.14382  Biso   1.000  N
  N10      1.0000 0.33860  0.75383  0.85618  Biso   1.000  N
  C1       1.0000 0.11940  0.18500  0.74731  Biso   1.000  C
  C2       1.0000 0.88060  0.81500  0.25269  Biso   1.000  C
  C3       1.0000 0.21210  0.23580  0.76290  Biso   1.000  C
  C4       1.0000 0.78790  0.76420  0.23710  Biso   1.000  C
  H9       1.0000 0.29220  0.24910  0.71040  Biso   1.000  H
  H10      1.0000 0.70780  0.75090  0.28960  Biso   1.000  H
  C5       1.0000 0.18710  0.26720  0.85573  Biso   1.000  C
  C6       1.0000 0.81290  0.73280  0.14427  Biso   1.000  C
  C7       1.0000 0.06880  0.24700  0.93273  Biso   1.000  C
  C8       1.0000 0.93120  0.75300  0.06727  Biso   1.000  C
  H11      1.0000 0.05170  0.26850  0.99580  Biso   1.000  H
  H12      1.0000 0.94830  0.73150  0.00420  Biso   1.000  H
  C9       1.0000 0.97600  0.19580  0.91803  Biso   1.000  C
  C10      1.0000 0.02400  0.80420  0.08197  Biso   1.000  C
  C11      1.0000 0.00280  0.16510  0.82513  Biso   1.000  C
  C12      1.0000 0.99720  0.83490  0.17487  Biso   1.000  C
  H13      1.0000 0.94040  0.12980  0.81450  Biso   1.000  H
  H14      1.0000 0.05960  0.87020  0.18550  Biso   1.000  H
  C13      1.0000 0.13750  0.15540  0.64891  Biso   1.000  C
  C14      1.0000 0.86250  0.84460  0.35109  Biso   1.000  C
  C15      1.0000 0.17710  0.23310  0.56219  Biso   1.000  C
  C16      1.0000 0.82290  0.76690  0.43781  Biso   1.000  C
  H15      1.0000 0.19730  0.30450  0.56650  Biso   1.000  H
  H16      1.0000 0.80270  0.69550  0.43350  Biso   1.000  H
  C17      1.0000 0.16130  0.11010  0.46593  Biso   1.000  C
  C18      1.0000 0.83870  0.88990  0.53407  Biso   1.000  C
  H17      1.0000 0.17000  0.09420  0.40270  Biso   1.000  H
  H18      1.0000 0.83000  0.90580  0.59730  Biso   1.000  H
  C19      1.0000 0.12150  0.02820  0.54857  Biso   1.000  C
  C20      1.0000 0.87850  0.97180  0.45143  Biso   1.000  C
  H19      1.0000 0.10320  0.95690  0.54210  Biso   1.000  H
  H20      1.0000 0.89680  0.04310  0.45790  Biso   1.000  H
  C21      1.0000 0.10840  0.05110  0.64088  Biso   1.000  C
  C22      1.0000 0.89160  0.94890  0.35912  Biso   1.000  C
  H21      1.0000 0.07970  0.99620  0.69850  Biso   1.000  H
  H22      1.0000 0.92030  0.00380  0.30150  Biso   1.000  H
  C23      1.0000 0.27920  0.32520  0.87610  Biso   1.000  C
  C24      1.0000 0.72080  0.67480  0.12390  Biso   1.000  C
  C25      1.0000 0.33190  0.41590  0.80761  Biso   1.000  C
  C26      1.0000 0.66810  0.58410  0.19239  Biso   1.000  C
  H23      1.0000 0.31470  0.43540  0.74450  Biso   1.000  H
  H24      1.0000 0.68530  0.56460  0.25550  Biso   1.000  H
  C27      1.0000 0.43120  0.44810  0.91545  Biso   1.000  C
  C28      1.0000 0.56880  0.55190  0.08455  Biso   1.000  C
  H25      1.0000 0.48290  0.49140  0.92950  Biso   1.000  H
  H26      1.0000 0.51710  0.50860  0.07050  Biso   1.000  H
  C29      1.0000 0.38540  0.35820  0.98731  Biso   1.000  C
  C30      1.0000 0.61460  0.64180  0.01269  Biso   1.000  C
  H27      1.0000 0.40570  0.33970  0.04930  Biso   1.000  H
  H28      1.0000 0.59430  0.66030  0.95070  Biso   1.000  H
  C31      1.0000 0.30890  0.29540  0.96751  Biso   1.000  C
  C32      1.0000 0.69110  0.70460  0.03249  Biso   1.000  C
  H29      1.0000 0.27700  0.23250  0.01570  Biso   1.000  H
  H30      1.0000 0.72300  0.76750  0.98430  Biso   1.000  H
  C33      1.0000 0.84770  0.17730  0.99939  Biso   1.000  C
  C34      1.0000 0.15230  0.82270  0.00061  Biso   1.000  C
  C35      1.0000 0.77800  0.25650  0.06977  Biso   1.000  C
  C36      1.0000 0.22200  0.74350  0.93023  Biso   1.000  C
  H31      1.0000 0.81500  0.32190  0.06530  Biso   1.000  H
  H32      1.0000 0.18500  0.67810  0.93470  Biso   1.000  H
  C37      1.0000 0.61110  0.15260  0.14958  Biso   1.000  C
  C38      1.0000 0.38890  0.84740  0.85042  Biso   1.000  C
  H33      1.0000 0.52920  0.14330  0.20190  Biso   1.000  H
  H34      1.0000 0.47080  0.85670  0.79810  Biso   1.000  H
  C39      1.0000 0.67330  0.06940  0.08280  Biso   1.000  C
  C40      1.0000 0.32670  0.93060  0.91720  Biso   1.000  C
  H35      1.0000 0.63420  0.00470  0.08910  Biso   1.000  H
  H36      1.0000 0.36580  0.99530  0.91090  Biso   1.000  H
  C41      1.0000 0.79340  0.08160  0.00653  Biso   1.000  C
  C42      1.0000 0.20660  0.91840  0.99347  Biso   1.000  C
  H37      1.0000 0.83790  0.02530  0.95980  Biso   1.000  H
  H38      1.0000 0.16210  0.97470  0.04020  Biso   1.000  H
  C43      1.0000 0.24180  0.53160  0.21517  Biso   1.000  C
  C44      1.0000 0.75820  0.46840  0.78483  Biso   1.000  C
  H39      1.0000 0.27460  0.57240  0.14680  Biso   1.000  H
  H40      1.0000 0.72540  0.42760  0.85320  Biso   1.000  H
  H41      1.0000 0.22440  0.58790  0.26190  Biso   1.000  H
  H42      1.0000 0.77560  0.41210  0.73810  Biso   1.000  H
  C45      1.0000 0.52730  0.17790  0.41761  Biso   1.000  C
  C46      1.0000 0.47270  0.82210  0.58239  Biso   1.000  C
  H43      1.0000 0.60360  0.10730  0.38870  Biso   1.000  H
  H44      1.0000 0.39640  0.89270  0.61130  Biso   1.000  H
  H45      1.0000 0.46160  0.14550  0.47720  Biso   1.000  H
  H46      1.0000 0.53840  0.85450  0.52280  Biso   1.000  H
  C47      1.0000 0.10680  0.49980  0.22860  Biso   1.000  C
  C48      1.0000 0.89320  0.50020  0.77140  Biso   1.000  C
  H47      1.0000 0.02700  0.57590  0.22560  Biso   1.000  H
  H48      1.0000 0.97300  0.42410  0.77440  Biso   1.000  H
  H49      1.0000 0.12030  0.45420  0.17520  Biso   1.000  H
  H50      1.0000 0.87970  0.54580  0.82480  Biso   1.000  H
  C49      1.0000 0.59000  0.25680  0.44480  Biso   1.000  C
  C50      1.0000 0.41000  0.74320  0.55520  Biso   1.000  C
  H51      1.0000 0.66120  0.20520  0.48050  Biso   1.000  H
  H52      1.0000 0.33880  0.79480  0.51950  Biso   1.000  H
  H53      1.0000 0.51460  0.31430  0.48870  Biso   1.000  H
  H54      1.0000 0.48540  0.68570  0.51130  Biso   1.000  H
  F1       1.0000 0.17249  0.67908  0.49622  Biso   1.000  F
  F2       1.0000 0.82751  0.32092  0.50378  Biso   1.000  F
  F3       1.0000 0.37197  0.55482  0.40629  Biso   1.000  F
  F4       1.0000 0.62803  0.44518  0.59371  Biso   1.000  F
  F5       1.0000 0.27742  0.49102  0.56977  Biso   1.000  F
  F6       1.0000 0.72258  0.50898  0.43023  Biso   1.000  F
  F7       1.0000 0.16273  0.50615  0.45815  Biso   1.000  F
  F8       1.0000 0.83727  0.49385  0.54185  Biso   1.000  F
  B1       1.0000 0.24640  0.55980  0.48170  Biso   1.000  B
  B2       1.0000 0.75360  0.44020  0.51830  Biso   1.000  B
  F9       1.0000 0.79821  0.80145  0.78727  Biso   1.000  F
  F10      1.0000 0.20179  0.19855  0.21273  Biso   1.000  F
  F11      1.0000 0.99136  0.68707  0.84240  Biso   1.000  F
  F12      1.0000 0.00864  0.31293  0.15760  Biso   1.000  F
  F13      1.0000 0.91960  0.89478  0.83504  Biso   1.000  F
  F14      1.0000 0.08040  0.10522  0.16496  Biso   1.000  F
  F15      1.0000 0.01975  0.80759  0.69344  Biso   1.000  F
  F16      1.0000 0.98025  0.19241  0.30656  Biso   1.000  F
  B3       1.0000 0.93150  0.79800  0.79069  Biso   1.000  B
  B4       1.0000 0.06850  0.20200  0.20931  Biso   1.000  B
  O5       1.0000 0.57240  0.20720  0.68250  Biso   1.000  O
  O6       1.0000 0.42760  0.79280  0.31750  Biso   1.000  O
  C51      1.0000 0.65930  0.14290  0.74360  Biso   1.000  C
  C52      1.0000 0.34070  0.85710  0.25640  Biso   1.000  C
  O7       1.0000 0.60040  0.04800  0.77180  Biso   1.000  O
  O8       1.0000 0.39960  0.95200  0.22820  Biso   1.000  O
  O9       1.0000 0.77810  0.12310  0.66310  Biso   1.000  O
  O10      1.0000 0.22190  0.87690  0.33690  Biso   1.000  O
