data_image0
_cell_length_a       12.2429
_cell_length_b       10.4943
_cell_length_c       20.598
_cell_angle_alpha    90
_cell_angle_beta     125.02
_cell_angle_gamma    90

_symmetry_space_group_name_H-M    "P 1"
_symmetry_int_tables_number       1

loop_
  _symmetry_equiv_pos_as_xyz
  'x, y, z'

loop_
  _atom_site_label
  _atom_site_occupancy
  _atom_site_fract_x
  _atom_site_fract_y
  _atom_site_fract_z
  _atom_site_thermal_displace_type
  _atom_site_B_iso_or_equiv
  _atom_site_type_symbol
  C1       1.0000 0.21600  0.96060  0.46450  Biso   1.000  C
  C2       1.0000 0.78400  0.46060  0.03550  Biso   1.000  C
  C3       1.0000 0.78400  0.03940  0.53550  Biso   1.000  C
  C4       1.0000 0.21600  0.53940  0.96450  Biso   1.000  C
  H1       1.0000 0.17770  0.90220  0.47980  Biso   1.000  H
  H2       1.0000 0.82230  0.40220  0.02020  Biso   1.000  H
  H3       1.0000 0.82230  0.09780  0.52020  Biso   1.000  H
  H4       1.0000 0.17770  0.59780  0.97980  Biso   1.000  H
  C5       1.0000 0.28080  0.91480  0.43100  Biso   1.000  C
  C6       1.0000 0.71920  0.41480  0.06900  Biso   1.000  C
  C7       1.0000 0.71920  0.08520  0.56900  Biso   1.000  C
  C8       1.0000 0.28080  0.58520  0.93100  Biso   1.000  C
  H5       1.0000 0.28740  0.82770  0.42550  Biso   1.000  H
  H6       1.0000 0.71260  0.32770  0.07450  Biso   1.000  H
  H7       1.0000 0.71260  0.17230  0.57450  Biso   1.000  H
  H8       1.0000 0.28740  0.67230  0.92550  Biso   1.000  H
  C9       1.0000 0.33460  0.00110  0.40630  Biso   1.000  C
  C10      1.0000 0.66540  0.50110  0.09370  Biso   1.000  C
  C11      1.0000 0.66540  0.99890  0.59370  Biso   1.000  C
  C12      1.0000 0.33460  0.49890  0.90630  Biso   1.000  C
  C13      1.0000 0.32570  0.12960  0.41760  Biso   1.000  C
  C14      1.0000 0.67430  0.62960  0.08240  Biso   1.000  C
  C15      1.0000 0.67430  0.87040  0.58240  Biso   1.000  C
  C16      1.0000 0.32570  0.37040  0.91760  Biso   1.000  C
  H9       1.0000 0.36030  0.19060  0.40140  Biso   1.000  H
  H10      1.0000 0.63970  0.69060  0.09860  Biso   1.000  H
  H11      1.0000 0.63970  0.80940  0.59860  Biso   1.000  H
  H12      1.0000 0.36030  0.30940  0.90140  Biso   1.000  H
  C17      1.0000 0.26400  0.16470  0.45380  Biso   1.000  C
  C18      1.0000 0.73600  0.66470  0.04620  Biso   1.000  C
  C19      1.0000 0.73600  0.83530  0.54620  Biso   1.000  C
  C20      1.0000 0.26400  0.33530  0.95380  Biso   1.000  C
  H13      1.0000 0.26250  0.25090  0.46370  Biso   1.000  H
  H14      1.0000 0.73750  0.75090  0.03630  Biso   1.000  H
  H15      1.0000 0.73750  0.74910  0.53630  Biso   1.000  H
  H16      1.0000 0.26250  0.24910  0.96370  Biso   1.000  H
  C21      1.0000 0.37020  0.15000  0.25190  Biso   1.000  C
  C22      1.0000 0.62980  0.65000  0.24810  Biso   1.000  C
  C23      1.0000 0.62980  0.85000  0.74810  Biso   1.000  C
  C24      1.0000 0.37020  0.35000  0.75190  Biso   1.000  C
  C25      1.0000 0.23580  0.13320  0.21460  Biso   1.000  C
  C26      1.0000 0.76420  0.63320  0.28540  Biso   1.000  C
  C27      1.0000 0.76420  0.86680  0.78540  Biso   1.000  C
  C28      1.0000 0.23580  0.36680  0.71460  Biso   1.000  C
  H17      1.0000 0.20360  0.08260  0.23720  Biso   1.000  H
  H18      1.0000 0.79640  0.58260  0.26280  Biso   1.000  H
  H19      1.0000 0.79640  0.91740  0.76280  Biso   1.000  H
  H20      1.0000 0.20360  0.41740  0.73720  Biso   1.000  H
  C29      1.0000 0.14910  0.19300  0.14260  Biso   1.000  C
  C30      1.0000 0.85090  0.69300  0.35740  Biso   1.000  C
  C31      1.0000 0.85090  0.80700  0.85740  Biso   1.000  C
  C32      1.0000 0.14910  0.30700  0.64260  Biso   1.000  C
  H21      1.0000 0.05810  0.18000  0.11710  Biso   1.000  H
  H22      1.0000 0.94190  0.68000  0.38290  Biso   1.000  H
  H23      1.0000 0.94190  0.82000  0.88290  Biso   1.000  H
  H24      1.0000 0.05810  0.32000  0.61710  Biso   1.000  H
  C33      1.0000 0.32010  0.28200  0.14600  Biso   1.000  C
  C34      1.0000 0.67990  0.78200  0.35400  Biso   1.000  C
  C35      1.0000 0.67990  0.71800  0.85400  Biso   1.000  C
  C36      1.0000 0.32010  0.21800  0.64600  Biso   1.000  C
  H25      1.0000 0.35080  0.33430  0.12330  Biso   1.000  H
  H26      1.0000 0.64920  0.83430  0.37670  Biso   1.000  H
  H27      1.0000 0.64920  0.66570  0.87670  Biso   1.000  H
  H28      1.0000 0.35080  0.16570  0.62330  Biso   1.000  H
  C37      1.0000 0.41150  0.22500  0.21580  Biso   1.000  C
  C38      1.0000 0.58850  0.72500  0.28420  Biso   1.000  C
  C39      1.0000 0.58850  0.77500  0.78420  Biso   1.000  C
  C40      1.0000 0.41150  0.27500  0.71580  Biso   1.000  C
  H29      1.0000 0.50200  0.23680  0.23900  Biso   1.000  H
  H30      1.0000 0.49800  0.73680  0.26100  Biso   1.000  H
  H31      1.0000 0.49800  0.76320  0.76100  Biso   1.000  H
  H32      1.0000 0.50200  0.26320  0.73900  Biso   1.000  H
  C41      1.0000 0.91530  0.27280  0.35730  Biso   1.000  C
  C42      1.0000 0.08470  0.77280  0.14270  Biso   1.000  C
  C43      1.0000 0.08470  0.72720  0.64270  Biso   1.000  C
  C44      1.0000 0.91530  0.22720  0.85730  Biso   1.000  C
  H33      1.0000 0.97930  0.24670  0.34650  Biso   1.000  H
  H34      1.0000 0.02070  0.74670  0.15350  Biso   1.000  H
  H35      1.0000 0.02070  0.75330  0.65350  Biso   1.000  H
  H36      1.0000 0.97930  0.25330  0.84650  Biso   1.000  H
  H37      1.0000 0.87830  0.35430  0.33160  Biso   1.000  H
  H38      1.0000 0.12170  0.85430  0.16840  Biso   1.000  H
  H39      1.0000 0.12170  0.64570  0.66840  Biso   1.000  H
  H40      1.0000 0.87830  0.14570  0.83160  Biso   1.000  H
  C45      1.0000 0.80720  0.17740  0.32450  Biso   1.000  C
  C46      1.0000 0.19280  0.67740  0.17550  Biso   1.000  C
  C47      1.0000 0.19280  0.82260  0.67550  Biso   1.000  C
  C48      1.0000 0.80720  0.32260  0.82450  Biso   1.000  C
  H41      1.0000 0.75560  0.18140  0.26720  Biso   1.000  H
  H42      1.0000 0.24440  0.68140  0.23280  Biso   1.000  H
  H43      1.0000 0.24440  0.81860  0.73280  Biso   1.000  H
  H44      1.0000 0.75560  0.31860  0.76720  Biso   1.000  H
  H45      1.0000 0.74840  0.20130  0.33980  Biso   1.000  H
  H46      1.0000 0.25160  0.70130  0.16020  Biso   1.000  H
  H47      1.0000 0.25160  0.79870  0.66020  Biso   1.000  H
  H48      1.0000 0.74840  0.29870  0.83980  Biso   1.000  H
  C49      1.0000 0.85020  0.04190  0.34950  Biso   1.000  C
  C50      1.0000 0.14980  0.54190  0.15050  Biso   1.000  C
  C51      1.0000 0.14980  0.95810  0.65050  Biso   1.000  C
  C52      1.0000 0.85020  0.45810  0.84950  Biso   1.000  C
  H49      1.0000 0.77230  0.98720  0.32140  Biso   1.000  H
  H50      1.0000 0.22770  0.48720  0.17860  Biso   1.000  H
  H51      1.0000 0.22770  0.01280  0.67860  Biso   1.000  H
  H52      1.0000 0.77230  0.51280  0.82140  Biso   1.000  H
  H53      1.0000 0.90890  0.01690  0.33430  Biso   1.000  H
  H54      1.0000 0.09110  0.51690  0.16570  Biso   1.000  H
  H55      1.0000 0.09110  0.98310  0.66570  Biso   1.000  H
  H56      1.0000 0.90890  0.48310  0.83430  Biso   1.000  H
  Cu1      1.0000 0.05936  0.13173  0.51014  Biso   1.000  Cu
  Cu2      1.0000 0.94064  0.63173  0.98986  Biso   1.000  Cu
  Cu3      1.0000 0.94064  0.86827  0.48986  Biso   1.000  Cu
  Cu4      1.0000 0.05936  0.36827  0.01014  Biso   1.000  Cu
  N1       1.0000 0.20680  0.08460  0.47530  Biso   1.000  N
  N2       1.0000 0.79320  0.58460  0.02470  Biso   1.000  N
  N3       1.0000 0.79320  0.91540  0.52470  Biso   1.000  N
  N4       1.0000 0.20680  0.41540  0.97530  Biso   1.000  N
  N5       1.0000 0.18850  0.26790  0.10780  Biso   1.000  N
  N6       1.0000 0.81150  0.76790  0.39220  Biso   1.000  N
  N7       1.0000 0.81150  0.73210  0.89220  Biso   1.000  N
  N8       1.0000 0.18850  0.23210  0.60780  Biso   1.000  N
  N9       1.0000 0.98260  0.28670  0.44270  Biso   1.000  N
  N10      1.0000 0.01740  0.78670  0.05730  Biso   1.000  N
  N11      1.0000 0.01740  0.71330  0.55730  Biso   1.000  N
  N12      1.0000 0.98260  0.21330  0.94270  Biso   1.000  N
  H57      1.0000 0.92410  0.32100  0.45090  Biso   1.000  H
  H58      1.0000 0.07590  0.82100  0.04910  Biso   1.000  H
  H59      1.0000 0.07590  0.67900  0.54910  Biso   1.000  H
  H60      1.0000 0.92410  0.17900  0.95090  Biso   1.000  H
  H61      1.0000 0.04910  0.34340  0.46030  Biso   1.000  H
  H62      1.0000 0.95090  0.84340  0.03970  Biso   1.000  H
  H63      1.0000 0.95090  0.65660  0.53970  Biso   1.000  H
  H64      1.0000 0.04910  0.15660  0.96030  Biso   1.000  H
  O1       1.0000 0.91590  0.02320  0.43070  Biso   1.000  O
  O2       1.0000 0.08410  0.52320  0.06930  Biso   1.000  O
  O3       1.0000 0.08410  0.97680  0.56930  Biso   1.000  O
  O4       1.0000 0.91590  0.47680  0.93070  Biso   1.000  O
  S1       1.0000 0.40730  0.93620  0.36040  Biso   1.000  S
  S2       1.0000 0.59270  0.43620  0.13960  Biso   1.000  S
  S3       1.0000 0.59270  0.06380  0.63960  Biso   1.000  S
  S4       1.0000 0.40730  0.56380  0.86040  Biso   1.000  S
  S5       1.0000 0.49610  0.08450  0.34496  Biso   1.000  S
  S6       1.0000 0.50390  0.58450  0.15504  Biso   1.000  S
  S7       1.0000 0.50390  0.91550  0.65504  Biso   1.000  S
  S8       1.0000 0.49610  0.41550  0.84496  Biso   1.000  S
  B1       1.0000 0.26880  0.92720  0.03460  Biso   1.000  B
  B2       1.0000 0.73120  0.42720  0.46540  Biso   1.000  B
  B3       1.0000 0.73120  0.07280  0.96540  Biso   1.000  B
  B4       1.0000 0.26880  0.57280  0.53460  Biso   1.000  B
  F1       1.0000 0.18870  0.83200  0.98370  Biso   1.000  F
  F2       1.0000 0.81130  0.33200  0.51630  Biso   1.000  F
  F3       1.0000 0.81130  0.16800  0.01630  Biso   1.000  F
  F4       1.0000 0.18870  0.66800  0.48370  Biso   1.000  F
  F5       1.0000 0.18100  0.00440  0.03900  Biso   1.000  F
  F6       1.0000 0.81900  0.50440  0.46100  Biso   1.000  F
  F7       1.0000 0.81900  0.99560  0.96100  Biso   1.000  F
  F8       1.0000 0.18100  0.49560  0.53900  Biso   1.000  F
  F9       1.0000 0.32200  0.00000  0.00390  Biso   1.000  F
  F10      1.0000 0.67800  0.50000  0.49610  Biso   1.000  F
  F11      1.0000 0.67800  0.00000  0.99610  Biso   1.000  F
  F12      1.0000 0.32200  0.50000  0.50390  Biso   1.000  F
  F13      1.0000 0.36600  0.88600  0.10780  Biso   1.000  F
  F14      1.0000 0.63400  0.38600  0.39220  Biso   1.000  F
  F15      1.0000 0.63400  0.11400  0.89220  Biso   1.000  F
  F16      1.0000 0.36600  0.61400  0.60780  Biso   1.000  F
  F17      1.0000 0.22500  0.04420  0.00420  Biso   1.000  F
  F18      1.0000 0.77500  0.54420  0.49580  Biso   1.000  F
  F19      1.0000 0.77500  0.95580  0.99580  Biso   1.000  F
  F20      1.0000 0.22500  0.45580  0.50420  Biso   1.000  F
  F21      1.0000 0.28400  0.91600  0.10610  Biso   1.000  F
  F22      1.0000 0.71600  0.41600  0.39390  Biso   1.000  F
  F23      1.0000 0.71600  0.08400  0.89390  Biso   1.000  F
  F24      1.0000 0.28400  0.58400  0.60610  Biso   1.000  F
  F25      1.0000 0.39270  0.90500  0.04960  Biso   1.000  F
  F26      1.0000 0.60730  0.40500  0.45040  Biso   1.000  F
  F27      1.0000 0.60730  0.09500  0.95040  Biso   1.000  F
  F28      1.0000 0.39270  0.59500  0.54960  Biso   1.000  F
  F29      1.0000 0.24200  0.83500  0.04100  Biso   1.000  F
  F30      1.0000 0.75800  0.33500  0.45900  Biso   1.000  F
  F31      1.0000 0.75800  0.16500  0.95900  Biso   1.000  F
  F32      1.0000 0.24200  0.66500  0.54100  Biso   1.000  F
  F33      1.0000 0.32700  0.03300  0.06200  Biso   1.000  F
  F34      1.0000 0.67300  0.53300  0.43800  Biso   1.000  F
  F35      1.0000 0.67300  0.96700  0.93800  Biso   1.000  F
  F36      1.0000 0.32700  0.46700  0.56200  Biso   1.000  F
  F37      1.0000 0.15100  0.97900  0.94170  Biso   1.000  F
  F38      1.0000 0.84900  0.47900  0.55830  Biso   1.000  F
  F39      1.0000 0.84900  0.02100  0.05830  Biso   1.000  F
  F40      1.0000 0.15100  0.52100  0.44170  Biso   1.000  F
  F41      1.0000 0.35000  0.89400  0.98900  Biso   1.000  F
  F42      1.0000 0.65000  0.39400  0.51100  Biso   1.000  F
  F43      1.0000 0.65000  0.10600  0.01100  Biso   1.000  F
  F44      1.0000 0.35000  0.60600  0.48900  Biso   1.000  F
  B5       1.0000 0.26700  0.93500  0.00860  Biso   1.000  B
  B6       1.0000 0.73300  0.43500  0.49140  Biso   1.000  B
  B7       1.0000 0.73300  0.06500  0.99140  Biso   1.000  B
  B8       1.0000 0.26700  0.56500  0.50860  Biso   1.000  B
