data_image0
_cell_length_a       10.4113
_cell_length_b       11.0951
_cell_length_c       14.105
_cell_angle_alpha    76.808
_cell_angle_beta     71.915
_cell_angle_gamma    72.846

_symmetry_space_group_name_H-M    "P 1"
_symmetry_int_tables_number       1

loop_
  _symmetry_equiv_pos_as_xyz
  'x, y, z'

loop_
  _atom_site_label
  _atom_site_occupancy
  _atom_site_fract_x
  _atom_site_fract_y
  _atom_site_fract_z
  _atom_site_thermal_displace_type
  _atom_site_B_iso_or_equiv
  _atom_site_type_symbol
  Cu1      1.0000 0.74097  0.19374  0.65226  Biso   1.000  Cu
  Cu2      1.0000 0.25903  0.80626  0.34774  Biso   1.000  Cu
  Cu3      1.0000 0.46763  0.13107  0.73524  Biso   1.000  Cu
  Cu4      1.0000 0.53237  0.86893  0.26476  Biso   1.000  Cu
  O1       1.0000 0.64900  0.08740  0.76889  Biso   1.000  O
  O2       1.0000 0.35100  0.91260  0.23111  Biso   1.000  O
  O3       1.0000 0.54900  0.26860  0.65298  Biso   1.000  O
  O4       1.0000 0.45100  0.73140  0.34702  Biso   1.000  O
  O5       1.0000 0.93040  0.34420  0.83431  Biso   1.000  O
  O6       1.0000 0.06960  0.65580  0.16569  Biso   1.000  O
  O7       1.0000 0.01730  0.24770  0.70211  Biso   1.000  O
  O8       1.0000 0.98270  0.75230  0.29789  Biso   1.000  O
  O9       1.0000 0.79210  0.29720  0.76819  Biso   1.000  O
  O10      1.0000 0.20790  0.70280  0.23181  Biso   1.000  O
  N1       1.0000 0.91200  0.05470  0.65300  Biso   1.000  N
  N2       1.0000 0.08800  0.94530  0.34700  Biso   1.000  N
  H1       1.0000 0.92510  0.00140  0.60780  Biso   1.000  H
  H2       1.0000 0.07490  0.99860  0.39220  Biso   1.000  H
  H3       1.0000 0.98890  0.08740  0.63670  Biso   1.000  H
  H4       1.0000 0.01110  0.91260  0.36330  Biso   1.000  H
  N3       1.0000 0.81210  0.31190  0.53190  Biso   1.000  N
  N4       1.0000 0.18790  0.68810  0.46810  Biso   1.000  N
  N5       1.0000 0.35340  0.17140  0.63440  Biso   1.000  N
  N6       1.0000 0.64660  0.82860  0.36560  Biso   1.000  N
  H5       1.0000 0.34580  0.09750  0.61970  Biso   1.000  H
  H6       1.0000 0.65420  0.90250  0.38030  Biso   1.000  H
  H7       1.0000 0.26540  0.21960  0.65940  Biso   1.000  H
  H8       1.0000 0.73460  0.78040  0.34060  Biso   1.000  H
  N7       1.0000 0.60480  0.01490  0.17240  Biso   1.000  N
  N8       1.0000 0.39520  0.98510  0.82760  Biso   1.000  N
  N9       1.0000 0.91430  0.29620  0.76820  Biso   1.000  N
  N10      1.0000 0.08570  0.70380  0.23180  Biso   1.000  N
  N11      1.0000 0.34880  0.26950  0.85490  Biso   1.000  N
  N12      1.0000 0.65120  0.73050  0.14510  Biso   1.000  N
  C1       1.0000 0.89460  0.33400  0.25110  Biso   1.000  C
  C2       1.0000 0.10540  0.66600  0.74890  Biso   1.000  C
  C3       1.0000 0.80550  0.27330  0.23360  Biso   1.000  C
  C4       1.0000 0.19450  0.72670  0.76640  Biso   1.000  C
  H9       1.0000 0.72650  0.25710  0.28580  Biso   1.000  H
  H10      1.0000 0.27350  0.74290  0.71420  Biso   1.000  H
  C5       1.0000 0.83260  0.23670  0.13990  Biso   1.000  C
  C6       1.0000 0.16740  0.76330  0.86010  Biso   1.000  C
  C7       1.0000 0.94880  0.26090  0.06430  Biso   1.000  C
  C8       1.0000 0.05120  0.73910  0.93570  Biso   1.000  C
  H11      1.0000 0.96700  0.23640  0.00020  Biso   1.000  H
  H12      1.0000 0.03300  0.76360  0.99980  Biso   1.000  H
  C9       1.0000 0.03950  0.32050  0.08050  Biso   1.000  C
  C10      1.0000 0.96050  0.67950  0.91950  Biso   1.000  C
  C11      1.0000 0.00980  0.35730  0.17450  Biso   1.000  C
  C12      1.0000 0.99020  0.64270  0.82550  Biso   1.000  C
  H13      1.0000 0.06970  0.39910  0.18640  Biso   1.000  H
  H14      1.0000 0.93030  0.60090  0.81360  Biso   1.000  H
  C13      1.0000 0.87020  0.36860  0.35200  Biso   1.000  C
  C14      1.0000 0.12980  0.63140  0.64800  Biso   1.000  C
  C15      1.0000 0.88950  0.48450  0.36180  Biso   1.000  C
  C16      1.0000 0.11050  0.51550  0.63820  Biso   1.000  C
  H15      1.0000 0.91810  0.54310  0.30370  Biso   1.000  H
  H16      1.0000 0.08190  0.45690  0.69630  Biso   1.000  H
  C17      1.0000 0.86640  0.51240  0.45690  Biso   1.000  C
  C18      1.0000 0.13360  0.48760  0.54310  Biso   1.000  C
  H17      1.0000 0.87700  0.59130  0.46500  Biso   1.000  H
  H18      1.0000 0.12300  0.40870  0.53500  Biso   1.000  H
  C19      1.0000 0.82790  0.42510  0.54030  Biso   1.000  C
  C20      1.0000 0.17210  0.57490  0.45970  Biso   1.000  C
  H19      1.0000 0.81210  0.44510  0.60560  Biso   1.000  H
  H20      1.0000 0.18790  0.55490  0.39440  Biso   1.000  H
  C21      1.0000 0.83250  0.28580  0.43880  Biso   1.000  C
  C22      1.0000 0.16750  0.71420  0.56120  Biso   1.000  C
  H21      1.0000 0.82040  0.20650  0.43280  Biso   1.000  H
  H22      1.0000 0.17960  0.79350  0.56720  Biso   1.000  H
  C23      1.0000 0.74010  0.17260  0.11870  Biso   1.000  C
  C24      1.0000 0.25990  0.82740  0.88130  Biso   1.000  C
  C25      1.0000 0.68320  0.08010  0.19040  Biso   1.000  C
  C26      1.0000 0.31680  0.91990  0.80960  Biso   1.000  C
  H23      1.0000 0.70050  0.06210  0.25510  Biso   1.000  H
  H24      1.0000 0.29950  0.93790  0.74490  Biso   1.000  H
  C27      1.0000 0.58070  0.04130  0.08140  Biso   1.000  C
  C28      1.0000 0.41930  0.95870  0.91860  Biso   1.000  C
  H25      1.0000 0.52530  0.99560  0.06840  Biso   1.000  H
  H26      1.0000 0.47470  0.00440  0.93160  Biso   1.000  H
  C29      1.0000 0.63210  0.13160  0.00490  Biso   1.000  C
  C30      1.0000 0.36790  0.86840  0.99510  Biso   1.000  C
  H27      1.0000 0.61250  0.14750  0.94110  Biso   1.000  H
  H28      1.0000 0.38750  0.85250  0.05890  Biso   1.000  H
  C31      1.0000 0.71330  0.19840  0.02400  Biso   1.000  C
  C32      1.0000 0.28670  0.80160  0.97600  Biso   1.000  C
  H29      1.0000 0.75010  0.26090  0.97320  Biso   1.000  H
  H30      1.0000 0.24990  0.73910  0.02680  Biso   1.000  H
  C33      1.0000 0.16880  0.33920  0.00100  Biso   1.000  C
  C34      1.0000 0.83120  0.66080  0.99900  Biso   1.000  C
  C35      1.0000 0.23080  0.26100  0.92700  Biso   1.000  C
  C36      1.0000 0.76920  0.73900  0.07300  Biso   1.000  C
  H31      1.0000 0.18670  0.19710  0.92730  Biso   1.000  H
  H32      1.0000 0.81330  0.80290  0.07270  Biso   1.000  H
  C37      1.0000 0.40910  0.36170  0.85430  Biso   1.000  C
  C38      1.0000 0.59090  0.63830  0.14570  Biso   1.000  C
  H33      1.0000 0.49250  0.36990  0.80390  Biso   1.000  H
  H34      1.0000 0.50750  0.63010  0.19610  Biso   1.000  H
  C39      1.0000 0.35370  0.44490  0.92470  Biso   1.000  C
  C40      1.0000 0.64630  0.55510  0.07530  Biso   1.000  C
  H35      1.0000 0.39870  0.50910  0.92200  Biso   1.000  H
  H36      1.0000 0.60130  0.49090  0.07800  Biso   1.000  H
  C41      1.0000 0.23280  0.43400  0.99880  Biso   1.000  C
  C42      1.0000 0.76720  0.56600  0.00120  Biso   1.000  C
  H37      1.0000 0.19390  0.49040  0.04760  Biso   1.000  H
  H38      1.0000 0.80610  0.50960  0.95240  Biso   1.000  H
  C43      1.0000 0.88770  0.98570  0.75720  Biso   1.000  C
  C44      1.0000 0.11230  0.01430  0.24280  Biso   1.000  C
  H39      1.0000 0.89790  0.03580  0.80310  Biso   1.000  H
  H40      1.0000 0.10210  0.96420  0.19690  Biso   1.000  H
  H41      1.0000 0.95600  0.90210  0.76030  Biso   1.000  H
  H42      1.0000 0.04400  0.09790  0.23970  Biso   1.000  H
  C45      1.0000 0.74080  0.96690  0.78840  Biso   1.000  C
  C46      1.0000 0.25920  0.03310  0.21160  Biso   1.000  C
  H43      1.0000 0.73470  0.90600  0.74940  Biso   1.000  H
  H44      1.0000 0.26530  0.09400  0.25060  Biso   1.000  H
  H45      1.0000 0.71530  0.93220  0.86100  Biso   1.000  H
  H46      1.0000 0.28470  0.06780  0.13900  Biso   1.000  H
  C47      1.0000 0.42970  0.24410  0.54260  Biso   1.000  C
  C48      1.0000 0.57030  0.75590  0.45740  Biso   1.000  C
  H47      1.0000 0.36660  0.29170  0.49930  Biso   1.000  H
  H48      1.0000 0.63340  0.70830  0.50070  Biso   1.000  H
  H49      1.0000 0.50860  0.18490  0.50330  Biso   1.000  H
  H50      1.0000 0.49140  0.81510  0.49670  Biso   1.000  H
  C49      1.0000 0.48230  0.33530  0.57630  Biso   1.000  C
  C50      1.0000 0.51770  0.66470  0.42370  Biso   1.000  C
  H51      1.0000 0.54890  0.37270  0.51860  Biso   1.000  H
  H52      1.0000 0.45110  0.62730  0.48140  Biso   1.000  H
  H53      1.0000 0.40370  0.40560  0.60230  Biso   1.000  H
  H54      1.0000 0.59630  0.59440  0.39770  Biso   1.000  H
  O11      1.0000 0.77270  0.64490  0.67930  Biso   1.000  O
  O12      1.0000 0.22730  0.35510  0.32070  Biso   1.000  O
  H55      1.0000 0.77140  0.71940  0.65070  Biso   1.000  H
  H56      1.0000 0.22860  0.28060  0.34930  Biso   1.000  H
  C51      1.0000 0.63970  0.64940  0.74690  Biso   1.000  C
  C52      1.0000 0.36030  0.35060  0.25310  Biso   1.000  C
  H57      1.0000 0.62400  0.70500  0.79640  Biso   1.000  H
  H58      1.0000 0.37600  0.29500  0.20360  Biso   1.000  H
  H59      1.0000 0.63420  0.56320  0.78200  Biso   1.000  H
  H60      1.0000 0.36580  0.43680  0.21800  Biso   1.000  H
  H61      1.0000 0.56840  0.68310  0.70940  Biso   1.000  H
  H62      1.0000 0.43160  0.31690  0.29060  Biso   1.000  H
  O13      1.0000 0.85140  0.87180  0.54360  Biso   1.000  O
  O14      1.0000 0.14860  0.12820  0.45640  Biso   1.000  O
  O15      1.0000 0.74520  0.01690  0.44260  Biso   1.000  O
  O16      1.0000 0.25480  0.98310  0.55740  Biso   1.000  O
  O17      1.0000 0.62700  0.93800  0.58810  Biso   1.000  O
  O18      1.0000 0.37300  0.06200  0.41190  Biso   1.000  O
  N13      1.0000 0.74040  0.94230  0.52490  Biso   1.000  N
  N14      1.0000 0.25960  0.05770  0.47510  Biso   1.000  N
