data_image0
_cell_length_a       6.688
_cell_length_b       10.591
_cell_length_c       12.1
_cell_angle_alpha    113.01
_cell_angle_beta     105.08
_cell_angle_gamma    93.93

_symmetry_space_group_name_H-M    "P 1"
_symmetry_int_tables_number       1

loop_
  _symmetry_equiv_pos_as_xyz
  'x, y, z'

loop_
  _atom_site_label
  _atom_site_occupancy
  _atom_site_fract_x
  _atom_site_fract_y
  _atom_site_fract_z
  _atom_site_thermal_displace_type
  _atom_site_B_iso_or_equiv
  _atom_site_type_symbol
  Cu1      1.0000 0.59909  0.37559  0.40734  Biso   1.000  Cu
  Cu2      1.0000 0.40091  0.62441  0.59266  Biso   1.000  Cu
  Cu3      1.0000 0.59417  0.13287  0.14596  Biso   1.000  Cu
  Cu4      1.0000 0.40583  0.86713  0.85404  Biso   1.000  Cu
  O1       1.0000 0.51190  0.17750  0.29820  Biso   1.000  O
  O2       1.0000 0.48810  0.82250  0.70180  Biso   1.000  O
  O3       1.0000 0.45800  0.43460  0.27680  Biso   1.000  O
  O4       1.0000 0.54200  0.56540  0.72320  Biso   1.000  O
  O5       1.0000 0.41060  0.24860  0.09220  Biso   1.000  O
  O6       1.0000 0.58940  0.75140  0.90780  Biso   1.000  O
  N1       1.0000 0.70740  0.31810  0.55210  Biso   1.000  N
  N2       1.0000 0.29260  0.68190  0.44790  Biso   1.000  N
  H1       1.0000 0.66200  0.36660  0.62640  Biso   1.000  H
  H2       1.0000 0.33800  0.63340  0.37360  Biso   1.000  H
  H3       1.0000 0.85400  0.31070  0.58860  Biso   1.000  H
  H4       1.0000 0.14600  0.68930  0.41140  Biso   1.000  H
  N3       1.0000 0.77420  0.01160  0.20920  Biso   1.000  N
  N4       1.0000 0.22580  0.98840  0.79080  Biso   1.000  N
  H5       1.0000 0.69830  0.92260  0.16680  Biso   1.000  H
  H6       1.0000 0.30170  0.07740  0.83320  Biso   1.000  H
  N5       1.0000 0.69150  0.09180  0.99660  Biso   1.000  N
  N6       1.0000 0.30850  0.90820  0.00340  Biso   1.000  N
  N7       1.0000 0.69340  0.17020  0.94920  Biso   1.000  N
  N8       1.0000 0.30660  0.82980  0.05080  Biso   1.000  N
  N9       1.0000 0.69250  0.23900  0.89360  Biso   1.000  N
  N10      1.0000 0.30750  0.76100  0.10640  Biso   1.000  N
  N11      1.0000 0.72840  0.57780  0.51840  Biso   1.000  N
  N12      1.0000 0.27160  0.42220  0.48160  Biso   1.000  N
  N13      1.0000 0.89130  0.60820  0.60370  Biso   1.000  N
  N14      1.0000 0.10870  0.39180  0.39630  Biso   1.000  N
  N15      1.0000 0.04590  0.63990  0.68410  Biso   1.000  N
  N16      1.0000 0.95410  0.36010  0.31590  Biso   1.000  N
  C1       1.0000 0.58740  0.16720  0.49710  Biso   1.000  C
  C2       1.0000 0.41260  0.83280  0.50290  Biso   1.000  C
  H7       1.0000 0.65780  0.11900  0.54500  Biso   1.000  H
  H8       1.0000 0.34220  0.88100  0.45500  Biso   1.000  H
  H9       1.0000 0.44510  0.16720  0.50240  Biso   1.000  H
  H10      1.0000 0.55490  0.83280  0.49760  Biso   1.000  H
  C3       1.0000 0.58000  0.09330  0.36120  Biso   1.000  C
  C4       1.0000 0.42000  0.90670  0.63880  Biso   1.000  C
  H11      1.0000 0.47530  0.00630  0.32180  Biso   1.000  H
  H12      1.0000 0.52470  0.99370  0.67820  Biso   1.000  H
  C5       1.0000 0.78870  0.05650  0.34210  Biso   1.000  C
  C6       1.0000 0.21130  0.94350  0.65790  Biso   1.000  C
  H13      1.0000 0.90130  0.13750  0.39430  Biso   1.000  H
  H14      1.0000 0.09870  0.86250  0.60570  Biso   1.000  H
  H15      1.0000 0.82140  0.98220  0.36760  Biso   1.000  H
  H16      1.0000 0.17860  0.01780  0.63240  Biso   1.000  H
  C7       1.0000 0.98060  0.00490  0.18770  Biso   1.000  C
  C8       1.0000 0.01940  0.99510  0.81230  Biso   1.000  C
  H17      1.0000 0.96180  0.97460  0.09920  Biso   1.000  H
  H18      1.0000 0.03820  0.02540  0.90080  Biso   1.000  H
  H19      1.0000 0.04510  0.93990  0.21570  Biso   1.000  H
  H20      1.0000 0.95490  0.06010  0.78430  Biso   1.000  H
  H21      1.0000 0.06960  0.09580  0.23420  Biso   1.000  H
  H22      1.0000 0.93040  0.90420  0.76580  Biso   1.000  H
  C9       1.0000 0.36890  0.36360  0.15800  Biso   1.000  C
  C10      1.0000 0.63110  0.63640  0.84200  Biso   1.000  C
  C11      1.0000 0.21100  0.42230  0.09350  Biso   1.000  C
  C12      1.0000 0.78900  0.57770  0.90650  Biso   1.000  C
  H23      1.0000 0.18130  0.50250  0.15500  Biso   1.000  H
  H24      1.0000 0.81870  0.49750  0.84500  Biso   1.000  H
  H25      1.0000 0.08380  0.35320  0.04510  Biso   1.000  H
  H26      1.0000 0.91620  0.64680  0.95490  Biso   1.000  H
  H27      1.0000 0.26440  0.44940  0.03810  Biso   1.000  H
  H28      1.0000 0.73560  0.55060  0.96190  Biso   1.000  H
  O7       1.0000 0.15010  0.29860  0.63630  Biso   1.000  O
  O8       1.0000 0.84990  0.70140  0.36370  Biso   1.000  O
  H29      1.0000 0.00500  0.30400  0.60700  Biso   1.000  H
  H30      1.0000 0.99500  0.69600  0.39300  Biso   1.000  H
  C13      1.0000 0.20310  0.34720  0.76890  Biso   1.000  C
  C14      1.0000 0.79690  0.65280  0.23110  Biso   1.000  C
  H31      1.0000 0.14200  0.27710  0.78850  Biso   1.000  H
  H32      1.0000 0.85800  0.72290  0.21150  Biso   1.000  H
  H33      1.0000 0.14960  0.43110  0.80290  Biso   1.000  H
  H34      1.0000 0.85040  0.56890  0.19710  Biso   1.000  H
  H35      1.0000 0.35370  0.36640  0.80540  Biso   1.000  H
  H36      1.0000 0.64630  0.63360  0.19460  Biso   1.000  H
