data_image0
_cell_length_a       7.1089
_cell_length_b       13.125
_cell_length_c       13.376
_cell_angle_alpha    93.524
_cell_angle_beta     93.563
_cell_angle_gamma    99.823

_symmetry_space_group_name_H-M    "P 1"
_symmetry_int_tables_number       1

loop_
  _symmetry_equiv_pos_as_xyz
  'x, y, z'

loop_
  _atom_site_label
  _atom_site_occupancy
  _atom_site_fract_x
  _atom_site_fract_y
  _atom_site_fract_z
  _atom_site_thermal_displace_type
  _atom_site_B_iso_or_equiv
  _atom_site_type_symbol
  Cu1      1.0000 0.40100  0.76203  0.20599  Biso   1.000  Cu
  Cu2      1.0000 0.59900  0.23797  0.79401  Biso   1.000  Cu
  O1       1.0000 0.21150  0.62823  0.19005  Biso   1.000  O
  O2       1.0000 0.78850  0.37177  0.80995  Biso   1.000  O
  O3       1.0000 0.58880  0.89690  0.21424  Biso   1.000  O
  O4       1.0000 0.41120  0.10310  0.78576  Biso   1.000  O
  H1       1.0000 0.66200  0.90740  0.26390  Biso   1.000  H
  H2       1.0000 0.33800  0.09260  0.73610  Biso   1.000  H
  H3       1.0000 0.65500  0.90110  0.16720  Biso   1.000  H
  H4       1.0000 0.34500  0.09890  0.83280  Biso   1.000  H
  O5       1.0000 0.13010  0.83787  0.19547  Biso   1.000  O
  O6       1.0000 0.86990  0.16213  0.80453  Biso   1.000  O
  H5       1.0000 0.06100  0.79710  0.22440  Biso   1.000  H
  H6       1.0000 0.93900  0.20290  0.77560  Biso   1.000  H
  H7       1.0000 0.13800  0.89720  0.21700  Biso   1.000  H
  H8       1.0000 0.86200  0.10280  0.78300  Biso   1.000  H
  O7       1.0000 0.37990  0.50584  0.23262  Biso   1.000  O
  O8       1.0000 0.62010  0.49416  0.76738  Biso   1.000  O
  O9       1.0000 0.15070  0.43001  0.58186  Biso   1.000  O
  O10      1.0000 0.84930  0.56999  0.41814  Biso   1.000  O
  O11      1.0000 0.68310  0.66780  0.21098  Biso   1.000  O
  O12      1.0000 0.31690  0.33220  0.78902  Biso   1.000  O
  H9       1.0000 0.76000  0.68400  0.25810  Biso   1.000  H
  H10      1.0000 0.24000  0.31600  0.74190  Biso   1.000  H
  H11      1.0000 0.63000  0.60920  0.21800  Biso   1.000  H
  H12      1.0000 0.37000  0.39080  0.78200  Biso   1.000  H
  O13      1.0000 0.11670  0.26153  0.60369  Biso   1.000  O
  O14      1.0000 0.88330  0.73847  0.39631  Biso   1.000  O
  O15      1.0000 0.14960  0.03002  0.28692  Biso   1.000  O
  O16      1.0000 0.85040  0.96998  0.71308  Biso   1.000  O
  O17      1.0000 0.12780  0.09869  0.13961  Biso   1.000  O
  O18      1.0000 0.87220  0.90131  0.86039  Biso   1.000  O
  N1       1.0000 0.39710  0.77072  0.35630  Biso   1.000  N
  N2       1.0000 0.60290  0.22928  0.64370  Biso   1.000  N
  N3       1.0000 0.40270  0.75675  0.05636  Biso   1.000  N
  N4       1.0000 0.59730  0.24325  0.94364  Biso   1.000  N
  N5       1.0000 0.06370  0.37737  0.27667  Biso   1.000  N
  N6       1.0000 0.93630  0.62263  0.72333  Biso   1.000  N
  C1       1.0000 0.36940  0.85901  0.40493  Biso   1.000  C
  C2       1.0000 0.63060  0.14099  0.59507  Biso   1.000  C
  H13      1.0000 0.35500  0.91510  0.36770  Biso   1.000  H
  H14      1.0000 0.64500  0.08490  0.63230  Biso   1.000  H
  C3       1.0000 0.36150  0.87010  0.50760  Biso   1.000  C
  C4       1.0000 0.63850  0.12990  0.49240  Biso   1.000  C
  H15      1.0000 0.34240  0.93270  0.53840  Biso   1.000  H
  H16      1.0000 0.65760  0.06730  0.46160  Biso   1.000  H
  C5       1.0000 0.38200  0.78760  0.56481  Biso   1.000  C
  C6       1.0000 0.61800  0.21240  0.43519  Biso   1.000  C
  C7       1.0000 0.40660  0.69534  0.51378  Biso   1.000  C
  C8       1.0000 0.59340  0.30466  0.48622  Biso   1.000  C
  H17      1.0000 0.41730  0.63750  0.54910  Biso   1.000  H
  H18      1.0000 0.58270  0.36250  0.45090  Biso   1.000  H
  C9       1.0000 0.41500  0.69019  0.41118  Biso   1.000  C
  C10      1.0000 0.58500  0.30981  0.58882  Biso   1.000  C
  H19      1.0000 0.43390  0.62850  0.37850  Biso   1.000  H
  H20      1.0000 0.56610  0.37150  0.62150  Biso   1.000  H
  C11      1.0000 0.37890  0.80208  0.67454  Biso   1.000  C
  C12      1.0000 0.62110  0.19792  0.32546  Biso   1.000  C
  H21      1.0000 0.35820  0.86580  0.70170  Biso   1.000  H
  H22      1.0000 0.64180  0.13420  0.29830  Biso   1.000  H
  C13      1.0000 0.40370  0.73027  0.73738  Biso   1.000  C
  C14      1.0000 0.59630  0.26973  0.26262  Biso   1.000  C
  H23      1.0000 0.42310  0.66650  0.70970  Biso   1.000  H
  H24      1.0000 0.57690  0.33350  0.29030  Biso   1.000  H
  C15      1.0000 0.40320  0.74351  0.84763  Biso   1.000  C
  C16      1.0000 0.59680  0.25649  0.15237  Biso   1.000  C
  C17      1.0000 0.36750  0.83186  0.90002  Biso   1.000  C
  C18      1.0000 0.63250  0.16814  0.09998  Biso   1.000  C
  H25      1.0000 0.34330  0.88830  0.86560  Biso   1.000  H
  H26      1.0000 0.65670  0.11170  0.13440  Biso   1.000  H
  C19      1.0000 0.36800  0.83590  0.00399  Biso   1.000  C
  C20      1.0000 0.63200  0.16410  0.99601  Biso   1.000  C
  H27      1.0000 0.34340  0.89550  0.03820  Biso   1.000  H
  H28      1.0000 0.65660  0.10450  0.96180  Biso   1.000  H
  C21      1.0000 0.43640  0.67126  0.00568  Biso   1.000  C
  C22      1.0000 0.56360  0.32874  0.99432  Biso   1.000  C
  H29      1.0000 0.46000  0.61580  0.04180  Biso   1.000  H
  H30      1.0000 0.54000  0.38420  0.95820  Biso   1.000  H
  C23      1.0000 0.43760  0.66165  0.90257  Biso   1.000  C
  C24      1.0000 0.56240  0.33835  0.09743  Biso   1.000  C
  H31      1.0000 0.46120  0.60080  0.87020  Biso   1.000  H
  H32      1.0000 0.53880  0.39920  0.12980  Biso   1.000  H
  C25      1.0000 0.23000  0.53862  0.21324  Biso   1.000  C
  C26      1.0000 0.77000  0.46138  0.78676  Biso   1.000  C
  C27      1.0000 0.03840  0.46605  0.21738  Biso   1.000  C
  C28      1.0000 0.96160  0.53395  0.78262  Biso   1.000  C
  H33      1.0000 0.94780  0.50370  0.24770  Biso   1.000  H
  H34      1.0000 0.05220  0.49630  0.75230  Biso   1.000  H
  H35      1.0000 0.98720  0.44090  0.14980  Biso   1.000  H
  H36      1.0000 0.01280  0.55910  0.85020  Biso   1.000  H
  C29      1.0000 0.07490  0.39240  0.37757  Biso   1.000  C
  C30      1.0000 0.92510  0.60760  0.62243  Biso   1.000  C
  H37      1.0000 0.06140  0.45640  0.40730  Biso   1.000  H
  H38      1.0000 0.93860  0.54360  0.59270  Biso   1.000  H
  C31      1.0000 0.10630  0.31399  0.43748  Biso   1.000  C
  C32      1.0000 0.89370  0.68601  0.56252  Biso   1.000  C
  C33      1.0000 0.12360  0.21893  0.39075  Biso   1.000  C
  C34      1.0000 0.87640  0.78107  0.60925  Biso   1.000  C
  H39      1.0000 0.14060  0.16420  0.42940  Biso   1.000  H
  H40      1.0000 0.85940  0.83580  0.57060  Biso   1.000  H
  C35      1.0000 0.11570  0.20507  0.28641  Biso   1.000  C
  C36      1.0000 0.88430  0.79493  0.71359  Biso   1.000  C
  C37      1.0000 0.08690  0.28699  0.23014  Biso   1.000  C
  C38      1.0000 0.91310  0.71301  0.76986  Biso   1.000  C
  H41      1.0000 0.08360  0.27950  0.16040  Biso   1.000  H
  H42      1.0000 0.91640  0.72050  0.83960  Biso   1.000  H
  C39      1.0000 0.12470  0.33744  0.55132  Biso   1.000  C
  C40      1.0000 0.87530  0.66256  0.44868  Biso   1.000  C
  C41      1.0000 0.13440  0.10246  0.23222  Biso   1.000  C
  C42      1.0000 0.86560  0.89754  0.76778  Biso   1.000  C
  O19      1.0000 0.08540  0.35800  0.97862  Biso   1.000  O
  O20      1.0000 0.91460  0.64200  0.02138  Biso   1.000  O
  H43      1.0000 0.98490  0.36240  0.94240  Biso   1.000  H
  H44      1.0000 0.01510  0.63760  0.05760  Biso   1.000  H
  H45      1.0000 0.17490  0.35500  0.93990  Biso   1.000  H
  H46      1.0000 0.82510  0.64500  0.06010  Biso   1.000  H
  O21      1.0000 0.81970  0.92820  0.06433  Biso   1.000  O
  O22      1.0000 0.18030  0.07180  0.93567  Biso   1.000  O
  H47      1.0000 0.76680  0.94220  0.00930  Biso   1.000  H
  H48      1.0000 0.23320  0.05780  0.99070  Biso   1.000  H
  H49      1.0000 0.90700  0.89390  0.05030  Biso   1.000  H
  H50      1.0000 0.09300  0.10610  0.94970  Biso   1.000  H
  O23      1.0000 0.83030  0.93540  0.38048  Biso   1.000  O
  O24      1.0000 0.16970  0.06460  0.61952  Biso   1.000  O
  H51      1.0000 0.87060  0.88470  0.40600  Biso   1.000  H
  H52      1.0000 0.12940  0.11530  0.59400  Biso   1.000  H
  H53      1.0000 0.92650  0.98290  0.37630  Biso   1.000  H
  H54      1.0000 0.07350  0.01710  0.62370  Biso   1.000  H
