data_image0
_cell_length_a       8.4378
_cell_length_b       10.0396
_cell_length_c       17.6799
_cell_angle_alpha    90
_cell_angle_beta     90
_cell_angle_gamma    90

_symmetry_space_group_name_H-M    "P 1"
_symmetry_int_tables_number       1

loop_
  _symmetry_equiv_pos_as_xyz
  'x, y, z'

loop_
  _atom_site_label
  _atom_site_occupancy
  _atom_site_fract_x
  _atom_site_fract_y
  _atom_site_fract_z
  _atom_site_thermal_displace_type
  _atom_site_B_iso_or_equiv
  _atom_site_type_symbol
  Cu1      1.0000 0.69717  0.79420  0.25335  Biso   1.000  Cu
  Cu2      1.0000 0.80283  0.70580  0.75335  Biso   1.000  Cu
  Cu3      1.0000 0.30283  0.79420  0.24665  Biso   1.000  Cu
  Cu4      1.0000 0.19717  0.70580  0.74665  Biso   1.000  Cu
  Cu5      1.0000 0.30283  0.20580  0.74665  Biso   1.000  Cu
  Cu6      1.0000 0.19717  0.29420  0.24665  Biso   1.000  Cu
  Cu7      1.0000 0.69717  0.20580  0.75335  Biso   1.000  Cu
  Cu8      1.0000 0.80283  0.29420  0.25335  Biso   1.000  Cu
  Cu9      1.0000 0.00000  0.50000  0.50000  Biso   1.000  Cu
  Cu10     1.0000 0.50000  0.00000  0.00000  Biso   1.000  Cu
  Cu11     1.0000 0.00000  0.50000  0.00000  Biso   1.000  Cu
  Cu12     1.0000 0.50000  0.00000  0.50000  Biso   1.000  Cu
  C1       1.0000 0.50650  0.64580  0.35810  Biso   1.000  C
  C2       1.0000 0.99350  0.85420  0.85810  Biso   1.000  C
  C3       1.0000 0.49350  0.64580  0.14190  Biso   1.000  C
  C4       1.0000 0.00650  0.85420  0.64190  Biso   1.000  C
  C5       1.0000 0.49350  0.35420  0.64190  Biso   1.000  C
  C6       1.0000 0.00650  0.14580  0.14190  Biso   1.000  C
  C7       1.0000 0.50650  0.35420  0.85810  Biso   1.000  C
  C8       1.0000 0.99350  0.14580  0.35810  Biso   1.000  C
  C9       1.0000 0.49920  0.56870  0.43110  Biso   1.000  C
  C10      1.0000 0.00080  0.93130  0.93110  Biso   1.000  C
  C11      1.0000 0.50080  0.56870  0.06890  Biso   1.000  C
  C12      1.0000 0.99920  0.93130  0.56890  Biso   1.000  C
  C13      1.0000 0.50080  0.43130  0.56890  Biso   1.000  C
  C14      1.0000 0.99920  0.06870  0.06890  Biso   1.000  C
  C15      1.0000 0.49920  0.43130  0.93110  Biso   1.000  C
  C16      1.0000 0.00080  0.06870  0.43110  Biso   1.000  C
  C17      1.0000 0.37770  0.59060  0.48310  Biso   1.000  C
  C18      1.0000 0.12230  0.90940  0.98310  Biso   1.000  C
  C19      1.0000 0.62230  0.59060  0.01690  Biso   1.000  C
  C20      1.0000 0.87770  0.90940  0.51690  Biso   1.000  C
  C21      1.0000 0.62230  0.40940  0.51690  Biso   1.000  C
  C22      1.0000 0.87770  0.09060  0.01690  Biso   1.000  C
  C23      1.0000 0.37770  0.40940  0.98310  Biso   1.000  C
  C24      1.0000 0.12230  0.09060  0.48310  Biso   1.000  C
  C25      1.0000 0.25010  0.69150  0.46490  Biso   1.000  C
  C26      1.0000 0.24990  0.80850  0.96490  Biso   1.000  C
  C27      1.0000 0.74990  0.69150  0.03510  Biso   1.000  C
  C28      1.0000 0.75010  0.80850  0.53510  Biso   1.000  C
  C29      1.0000 0.74990  0.30850  0.53510  Biso   1.000  C
  C30      1.0000 0.75010  0.19150  0.03510  Biso   1.000  C
  C31      1.0000 0.25010  0.30850  0.96490  Biso   1.000  C
  C32      1.0000 0.24990  0.19150  0.46490  Biso   1.000  C
  C33      1.0000 0.62120  0.47860  0.44770  Biso   1.000  C
  C34      1.0000 0.87880  0.02140  0.94770  Biso   1.000  C
  C35      1.0000 0.37880  0.47860  0.05230  Biso   1.000  C
  C36      1.0000 0.12120  0.02140  0.55230  Biso   1.000  C
  C37      1.0000 0.37880  0.52140  0.55230  Biso   1.000  C
  C38      1.0000 0.12120  0.97860  0.05230  Biso   1.000  C
  C39      1.0000 0.62120  0.52140  0.94770  Biso   1.000  C
  C40      1.0000 0.87880  0.97860  0.44770  Biso   1.000  C
  C41      1.0000 0.74480  0.44840  0.38910  Biso   1.000  C
  C42      1.0000 0.75520  0.05160  0.88910  Biso   1.000  C
  C43      1.0000 0.25520  0.44840  0.11090  Biso   1.000  C
  C44      1.0000 0.24480  0.05160  0.61090  Biso   1.000  C
  C45      1.0000 0.25520  0.55160  0.61090  Biso   1.000  C
  C46      1.0000 0.24480  0.94840  0.11090  Biso   1.000  C
  C47      1.0000 0.74480  0.55160  0.88910  Biso   1.000  C
  C48      1.0000 0.75520  0.94840  0.38910  Biso   1.000  C
  O1       1.0000 0.63830  0.68650  0.33830  Biso   1.000  O
  O2       1.0000 0.86170  0.81350  0.83830  Biso   1.000  O
  O3       1.0000 0.36170  0.68650  0.16170  Biso   1.000  O
  O4       1.0000 0.13830  0.81350  0.66170  Biso   1.000  O
  O5       1.0000 0.36170  0.31350  0.66170  Biso   1.000  O
  O6       1.0000 0.13830  0.18650  0.16170  Biso   1.000  O
  O7       1.0000 0.63830  0.31350  0.83830  Biso   1.000  O
  O8       1.0000 0.86170  0.18650  0.33830  Biso   1.000  O
  O9       1.0000 0.37670  0.66380  0.32290  Biso   1.000  O
  O10      1.0000 0.12330  0.83620  0.82290  Biso   1.000  O
  O11      1.0000 0.62330  0.66380  0.17710  Biso   1.000  O
  O12      1.0000 0.87670  0.83620  0.67710  Biso   1.000  O
  O13      1.0000 0.62330  0.33620  0.67710  Biso   1.000  O
  O14      1.0000 0.87670  0.16380  0.17710  Biso   1.000  O
  O15      1.0000 0.37670  0.33620  0.82290  Biso   1.000  O
  O16      1.0000 0.12330  0.16380  0.32290  Biso   1.000  O
  O17      1.0000 0.28850  0.80940  0.45850  Biso   1.000  O
  O18      1.0000 0.21150  0.69060  0.95850  Biso   1.000  O
  O19      1.0000 0.71150  0.80940  0.04150  Biso   1.000  O
  O20      1.0000 0.78850  0.69060  0.54150  Biso   1.000  O
  O21      1.0000 0.71150  0.19060  0.54150  Biso   1.000  O
  O22      1.0000 0.78850  0.30940  0.04150  Biso   1.000  O
  O23      1.0000 0.28850  0.19060  0.95850  Biso   1.000  O
  O24      1.0000 0.21150  0.30940  0.45850  Biso   1.000  O
  O25      1.0000 0.10930  0.64800  0.45320  Biso   1.000  O
  O26      1.0000 0.39070  0.85200  0.95320  Biso   1.000  O
  O27      1.0000 0.89070  0.64800  0.04680  Biso   1.000  O
  O28      1.0000 0.60930  0.85200  0.54680  Biso   1.000  O
  O29      1.0000 0.89070  0.35200  0.54680  Biso   1.000  O
  O30      1.0000 0.60930  0.14800  0.04680  Biso   1.000  O
  O31      1.0000 0.10930  0.35200  0.95320  Biso   1.000  O
  O32      1.0000 0.39070  0.14800  0.45320  Biso   1.000  O
  O33      1.0000 0.88980  0.46310  0.40290  Biso   1.000  O
  O34      1.0000 0.61020  0.03690  0.90290  Biso   1.000  O
  O35      1.0000 0.11020  0.46310  0.09710  Biso   1.000  O
  O36      1.0000 0.38980  0.03690  0.59710  Biso   1.000  O
  O37      1.0000 0.11020  0.53690  0.59710  Biso   1.000  O
  O38      1.0000 0.38980  0.96310  0.09710  Biso   1.000  O
  O39      1.0000 0.88980  0.53690  0.90290  Biso   1.000  O
  O40      1.0000 0.61020  0.96310  0.40290  Biso   1.000  O
  O41      1.0000 0.69050  0.40510  0.32670  Biso   1.000  O
  O42      1.0000 0.80950  0.09490  0.82670  Biso   1.000  O
  O43      1.0000 0.30950  0.40510  0.17330  Biso   1.000  O
  O44      1.0000 0.19050  0.09490  0.67330  Biso   1.000  O
  O45      1.0000 0.30950  0.59490  0.67330  Biso   1.000  O
  O46      1.0000 0.19050  0.90510  0.17330  Biso   1.000  O
  O47      1.0000 0.69050  0.59490  0.82670  Biso   1.000  O
  O48      1.0000 0.80950  0.90510  0.32670  Biso   1.000  O
  O49      1.0000 0.85400  0.85500  0.17610  Biso   1.000  O
  O50      1.0000 0.64600  0.64500  0.67610  Biso   1.000  O
  O51      1.0000 0.14600  0.85500  0.32390  Biso   1.000  O
  O52      1.0000 0.35400  0.64500  0.82390  Biso   1.000  O
  O53      1.0000 0.14600  0.14500  0.82390  Biso   1.000  O
  O54      1.0000 0.35400  0.35500  0.32390  Biso   1.000  O
  O55      1.0000 0.85400  0.14500  0.67610  Biso   1.000  O
  O56      1.0000 0.64600  0.35500  0.17610  Biso   1.000  O
  O57      1.0000 0.50000  0.94610  0.25000  Biso   1.000  O
  O58      1.0000 0.00000  0.55390  0.75000  Biso   1.000  O
  O59      1.0000 0.50000  0.05390  0.75000  Biso   1.000  O
  O60      1.0000 0.00000  0.44610  0.25000  Biso   1.000  O
  O61      1.0000 0.50000  0.80000  0.75000  Biso   1.000  O
  O62      1.0000 0.00000  0.70000  0.25000  Biso   1.000  O
  O63      1.0000 0.50000  0.20000  0.25000  Biso   1.000  O
  O64      1.0000 0.00000  0.30000  0.75000  Biso   1.000  O
  O65      1.0000 0.24000  0.58740  0.82040  Biso   1.000  O
  O66      1.0000 0.26000  0.91260  0.32040  Biso   1.000  O
  O67      1.0000 0.76000  0.58740  0.67960  Biso   1.000  O
  O68      1.0000 0.74000  0.91260  0.17960  Biso   1.000  O
  O69      1.0000 0.76000  0.41260  0.17960  Biso   1.000  O
  O70      1.0000 0.74000  0.08740  0.67960  Biso   1.000  O
  O71      1.0000 0.24000  0.41260  0.32040  Biso   1.000  O
  O72      1.0000 0.26000  0.08740  0.82040  Biso   1.000  O
  O73      1.0000 0.10200  0.53000  0.79900  Biso   1.000  O
  O74      1.0000 0.39800  0.97000  0.29900  Biso   1.000  O
  O75      1.0000 0.89800  0.53000  0.70100  Biso   1.000  O
  O76      1.0000 0.60200  0.97000  0.20100  Biso   1.000  O
  O77      1.0000 0.89800  0.47000  0.20100  Biso   1.000  O
  O78      1.0000 0.60200  0.03000  0.70100  Biso   1.000  O
  O79      1.0000 0.10200  0.47000  0.29900  Biso   1.000  O
  O80      1.0000 0.39800  0.03000  0.79900  Biso   1.000  O
  O81      1.0000 0.44800  0.80790  0.78700  Biso   1.000  O
  O82      1.0000 0.05200  0.69210  0.28700  Biso   1.000  O
  O83      1.0000 0.55200  0.80790  0.71300  Biso   1.000  O
  O84      1.0000 0.94800  0.69210  0.21300  Biso   1.000  O
  O85      1.0000 0.55200  0.19210  0.21300  Biso   1.000  O
  O86      1.0000 0.94800  0.30790  0.71300  Biso   1.000  O
  O87      1.0000 0.44800  0.19210  0.28700  Biso   1.000  O
  O88      1.0000 0.05200  0.30790  0.78700  Biso   1.000  O
