data_image0
_cell_length_a       13.5393
_cell_length_b       17.7722
_cell_length_c       13.5854
_cell_angle_alpha    90
_cell_angle_beta     107.828
_cell_angle_gamma    90

_symmetry_space_group_name_H-M    "P 1"
_symmetry_int_tables_number       1

loop_
  _symmetry_equiv_pos_as_xyz
  'x, y, z'

loop_
  _atom_site_label
  _atom_site_occupancy
  _atom_site_fract_x
  _atom_site_fract_y
  _atom_site_fract_z
  _atom_site_thermal_displace_type
  _atom_site_B_iso_or_equiv
  _atom_site_type_symbol
  Cu1      1.0000 0.02127  0.23973  0.23530  Biso   1.000  Cu
  Cu2      1.0000 0.47873  0.73973  0.26470  Biso   1.000  Cu
  Cu3      1.0000 0.97873  0.76027  0.76470  Biso   1.000  Cu
  Cu4      1.0000 0.52127  0.26027  0.73530  Biso   1.000  Cu
  O1       1.0000 0.97910  0.05854  0.69327  Biso   1.000  O
  O2       1.0000 0.52090  0.55854  0.80673  Biso   1.000  O
  O3       1.0000 0.02090  0.94146  0.30673  Biso   1.000  O
  O4       1.0000 0.47910  0.44146  0.19327  Biso   1.000  O
  O5       1.0000 0.58266  0.98656  0.27643  Biso   1.000  O
  O6       1.0000 0.91734  0.48656  0.22357  Biso   1.000  O
  O7       1.0000 0.41734  0.01344  0.72357  Biso   1.000  O
  O8       1.0000 0.08266  0.51344  0.77643  Biso   1.000  O
  O9       1.0000 0.08827  0.14937  0.12430  Biso   1.000  O
  O10      1.0000 0.41173  0.64937  0.37570  Biso   1.000  O
  O11      1.0000 0.91173  0.85063  0.87570  Biso   1.000  O
  O12      1.0000 0.58827  0.35063  0.62430  Biso   1.000  O
  O13      1.0000 0.21830  0.09171  0.22520  Biso   1.000  O
  O14      1.0000 0.28170  0.59171  0.27480  Biso   1.000  O
  O15      1.0000 0.78170  0.90829  0.77480  Biso   1.000  O
  O16      1.0000 0.71830  0.40829  0.72520  Biso   1.000  O
  O17      1.0000 0.18200  0.07680  0.06170  Biso   1.000  O
  O18      1.0000 0.31800  0.57680  0.43830  Biso   1.000  O
  O19      1.0000 0.81800  0.92320  0.93830  Biso   1.000  O
  O20      1.0000 0.68200  0.42320  0.56170  Biso   1.000  O
  O21      1.0000 0.93050  0.34117  0.30060  Biso   1.000  O
  O22      1.0000 0.56950  0.84117  0.19940  Biso   1.000  O
  O23      1.0000 0.06950  0.65883  0.69940  Biso   1.000  O
  O24      1.0000 0.43050  0.15883  0.80060  Biso   1.000  O
  H1       1.0000 0.91300  0.34550  0.35540  Biso   1.000  H
  H2       1.0000 0.58700  0.84550  0.14460  Biso   1.000  H
  H3       1.0000 0.08700  0.65450  0.64460  Biso   1.000  H
  H4       1.0000 0.41300  0.15450  0.85540  Biso   1.000  H
  H5       1.0000 0.92920  0.38500  0.27750  Biso   1.000  H
  H6       1.0000 0.57080  0.88500  0.22250  Biso   1.000  H
  H7       1.0000 0.07080  0.61500  0.72250  Biso   1.000  H
  H8       1.0000 0.42920  0.11500  0.77750  Biso   1.000  H
  N1       1.0000 0.16260  0.10628  0.13610  Biso   1.000  N
  N2       1.0000 0.33740  0.60628  0.36390  Biso   1.000  N
  N3       1.0000 0.83740  0.89372  0.86390  Biso   1.000  N
  N4       1.0000 0.66260  0.39372  0.63610  Biso   1.000  N
  N5       1.0000 0.06130  0.18631  0.37293  Biso   1.000  N
  N6       1.0000 0.43870  0.68631  0.12707  Biso   1.000  N
  N7       1.0000 0.93870  0.81369  0.62707  Biso   1.000  N
  N8       1.0000 0.56130  0.31369  0.87293  Biso   1.000  N
  N9       1.0000 0.14090  0.10544  0.75150  Biso   1.000  N
  N10      1.0000 0.35910  0.60544  0.74850  Biso   1.000  N
  N11      1.0000 0.85910  0.89456  0.24850  Biso   1.000  N
  N12      1.0000 0.64090  0.39456  0.25150  Biso   1.000  N
  H9       1.0000 0.18500  0.13510  0.79560  Biso   1.000  H
  H10      1.0000 0.31500  0.63510  0.70440  Biso   1.000  H
  H11      1.0000 0.81500  0.86490  0.20440  Biso   1.000  H
  H12      1.0000 0.68500  0.36490  0.29560  Biso   1.000  H
  N13      1.0000 0.03170  0.11200  0.85160  Biso   1.000  N
  N14      1.0000 0.46830  0.61200  0.64840  Biso   1.000  N
  N15      1.0000 0.96830  0.88800  0.14840  Biso   1.000  N
  N16      1.0000 0.53170  0.38800  0.35160  Biso   1.000  N
  H13      1.0000 0.07380  0.14420  0.89310  Biso   1.000  H
  H14      1.0000 0.42620  0.64420  0.60690  Biso   1.000  H
  H15      1.0000 0.92620  0.85580  0.10690  Biso   1.000  H
  H16      1.0000 0.57380  0.35580  0.39310  Biso   1.000  H
  N17      1.0000 0.65784  0.20454  0.78090  Biso   1.000  N
  N18      1.0000 0.84216  0.70454  0.71910  Biso   1.000  N
  N19      1.0000 0.34216  0.79546  0.21910  Biso   1.000  N
  N20      1.0000 0.15784  0.29546  0.28090  Biso   1.000  N
  N21      1.0000 0.88720  0.18011  0.19270  Biso   1.000  N
  N22      1.0000 0.61280  0.68011  0.30730  Biso   1.000  N
  N23      1.0000 0.11280  0.81989  0.80730  Biso   1.000  N
  N24      1.0000 0.38720  0.31989  0.69270  Biso   1.000  N
  N25      1.0000 0.52900  0.06567  0.13970  Biso   1.000  N
  N26      1.0000 0.97100  0.56567  0.36030  Biso   1.000  N
  N27      1.0000 0.47100  0.93433  0.86030  Biso   1.000  N
  N28      1.0000 0.02900  0.43433  0.63970  Biso   1.000  N
  H17      1.0000 0.48180  0.09840  0.10640  Biso   1.000  H
  H18      1.0000 0.01820  0.59840  0.39360  Biso   1.000  H
  H19      1.0000 0.51820  0.90160  0.89360  Biso   1.000  H
  H20      1.0000 0.98180  0.40160  0.60640  Biso   1.000  H
  N29      1.0000 0.44580  0.06334  0.26230  Biso   1.000  N
  N30      1.0000 0.05420  0.56334  0.23770  Biso   1.000  N
  N31      1.0000 0.55420  0.93666  0.73770  Biso   1.000  N
  N32      1.0000 0.94580  0.43666  0.76230  Biso   1.000  N
  H21      1.0000 0.40420  0.09800  0.22540  Biso   1.000  H
  H22      1.0000 0.09580  0.59800  0.27460  Biso   1.000  H
  H23      1.0000 0.59580  0.90200  0.77460  Biso   1.000  H
  H24      1.0000 0.90420  0.40200  0.72540  Biso   1.000  H
  N33      1.0000 0.48344  0.20271  0.59900  Biso   1.000  N
  N34      1.0000 0.01656  0.70271  0.90100  Biso   1.000  N
  N35      1.0000 0.51656  0.79729  0.40100  Biso   1.000  N
  N36      1.0000 0.98344  0.29729  0.09900  Biso   1.000  N
  C1       1.0000 0.08200  0.22440  0.46190  Biso   1.000  C
  C2       1.0000 0.41800  0.72440  0.03810  Biso   1.000  C
  C3       1.0000 0.91800  0.77560  0.53810  Biso   1.000  C
  C4       1.0000 0.58200  0.27560  0.96190  Biso   1.000  C
  H25      1.0000 0.07550  0.27770  0.45920  Biso   1.000  H
  H26      1.0000 0.42450  0.77770  0.04080  Biso   1.000  H
  H27      1.0000 0.92450  0.72230  0.54080  Biso   1.000  H
  H28      1.0000 0.57550  0.22230  0.95920  Biso   1.000  H
  C5       1.0000 0.11240  0.18990  0.55690  Biso   1.000  C
  C6       1.0000 0.38760  0.68990  0.94310  Biso   1.000  C
  C7       1.0000 0.88760  0.81010  0.44310  Biso   1.000  C
  C8       1.0000 0.61240  0.31010  0.05690  Biso   1.000  C
  H29      1.0000 0.12510  0.21900  0.61810  Biso   1.000  H
  H30      1.0000 0.37490  0.71900  0.88190  Biso   1.000  H
  H31      1.0000 0.87490  0.78100  0.38190  Biso   1.000  H
  H32      1.0000 0.62510  0.28100  0.11810  Biso   1.000  H
  C9       1.0000 0.12420  0.11283  0.56300  Biso   1.000  C
  C10      1.0000 0.37580  0.61283  0.93700  Biso   1.000  C
  C11      1.0000 0.87580  0.88717  0.43700  Biso   1.000  C
  C12      1.0000 0.62420  0.38717  0.06300  Biso   1.000  C
  C13      1.0000 0.10210  0.07400  0.47140  Biso   1.000  C
  C14      1.0000 0.39790  0.57400  0.02860  Biso   1.000  C
  C15      1.0000 0.89790  0.92600  0.52860  Biso   1.000  C
  C16      1.0000 0.60210  0.42600  0.97140  Biso   1.000  C
  H33      1.0000 0.10890  0.02080  0.47200  Biso   1.000  H
  H34      1.0000 0.39110  0.52080  0.02800  Biso   1.000  H
  H35      1.0000 0.89110  0.97920  0.52800  Biso   1.000  H
  H36      1.0000 0.60890  0.47920  0.97200  Biso   1.000  H
  C17      1.0000 0.07010  0.11193  0.37920  Biso   1.000  C
  C18      1.0000 0.42990  0.61193  0.12080  Biso   1.000  C
  C19      1.0000 0.92990  0.88807  0.62080  Biso   1.000  C
  C20      1.0000 0.57010  0.38807  0.87920  Biso   1.000  C
  H37      1.0000 0.05350  0.08370  0.31690  Biso   1.000  H
  H38      1.0000 0.44650  0.58370  0.18310  Biso   1.000  H
  H39      1.0000 0.94650  0.91630  0.68310  Biso   1.000  H
  H40      1.0000 0.55350  0.41630  0.81690  Biso   1.000  H
  C21      1.0000 0.16670  0.07130  0.66540  Biso   1.000  C
  C22      1.0000 0.33330  0.57130  0.83460  Biso   1.000  C
  C23      1.0000 0.83330  0.92870  0.33460  Biso   1.000  C
  C24      1.0000 0.66670  0.42870  0.16540  Biso   1.000  C
  H41      1.0000 0.13960  0.01920  0.65650  Biso   1.000  H
  H42      1.0000 0.36040  0.51920  0.84350  Biso   1.000  H
  H43      1.0000 0.86040  0.98080  0.34350  Biso   1.000  H
  H44      1.0000 0.63960  0.48080  0.15650  Biso   1.000  H
  H45      1.0000 0.24310  0.06850  0.68300  Biso   1.000  H
  H46      1.0000 0.25690  0.56850  0.81700  Biso   1.000  H
  H47      1.0000 0.75690  0.93150  0.31700  Biso   1.000  H
  H48      1.0000 0.74310  0.43150  0.18300  Biso   1.000  H
  C25      1.0000 0.04640  0.08986  0.76140  Biso   1.000  C
  C26      1.0000 0.45360  0.58986  0.73860  Biso   1.000  C
  C27      1.0000 0.95360  0.91014  0.23860  Biso   1.000  C
  C28      1.0000 0.54640  0.41014  0.26140  Biso   1.000  C
  C29      1.0000 0.94390  0.08030  0.87620  Biso   1.000  C
  C30      1.0000 0.55610  0.58030  0.62380  Biso   1.000  C
  C31      1.0000 0.05610  0.91970  0.12380  Biso   1.000  C
  C32      1.0000 0.44390  0.41970  0.37620  Biso   1.000  C
  H49      1.0000 0.96260  0.07450  0.95220  Biso   1.000  H
  H50      1.0000 0.53740  0.57450  0.54780  Biso   1.000  H
  H51      1.0000 0.03740  0.92550  0.04780  Biso   1.000  H
  H52      1.0000 0.46260  0.42550  0.45220  Biso   1.000  H
  H53      1.0000 0.93060  0.02930  0.84550  Biso   1.000  H
  H54      1.0000 0.56940  0.52930  0.65450  Biso   1.000  H
  H55      1.0000 0.06940  0.97070  0.15450  Biso   1.000  H
  H56      1.0000 0.43060  0.47070  0.34550  Biso   1.000  H
  C33      1.0000 0.84460  0.12501  0.83970  Biso   1.000  C
  C34      1.0000 0.65540  0.62501  0.66030  Biso   1.000  C
  C35      1.0000 0.15540  0.87499  0.16030  Biso   1.000  C
  C36      1.0000 0.34460  0.37499  0.33970  Biso   1.000  C
  C37      1.0000 0.84260  0.20199  0.83090  Biso   1.000  C
  C38      1.0000 0.65740  0.70199  0.66910  Biso   1.000  C
  C39      1.0000 0.15740  0.79801  0.16910  Biso   1.000  C
  C40      1.0000 0.34260  0.29801  0.33090  Biso   1.000  C
  H57      1.0000 0.90570  0.22930  0.84440  Biso   1.000  H
  H58      1.0000 0.59430  0.72930  0.65560  Biso   1.000  H
  H59      1.0000 0.09430  0.77070  0.15560  Biso   1.000  H
  H60      1.0000 0.40570  0.27070  0.34440  Biso   1.000  H
  C41      1.0000 0.74870  0.23971  0.80240  Biso   1.000  C
  C42      1.0000 0.75130  0.73971  0.69760  Biso   1.000  C
  C43      1.0000 0.25130  0.76029  0.19760  Biso   1.000  C
  C44      1.0000 0.24870  0.26029  0.30240  Biso   1.000  C
  H61      1.0000 0.74910  0.29300  0.79790  Biso   1.000  H
  H62      1.0000 0.75090  0.79300  0.70210  Biso   1.000  H
  H63      1.0000 0.25090  0.70700  0.20210  Biso   1.000  H
  H64      1.0000 0.24910  0.20700  0.29790  Biso   1.000  H
  C45      1.0000 0.66060  0.12966  0.78860  Biso   1.000  C
  C46      1.0000 0.83940  0.62966  0.71140  Biso   1.000  C
  C47      1.0000 0.33940  0.87034  0.21140  Biso   1.000  C
  C48      1.0000 0.16060  0.37034  0.28860  Biso   1.000  C
  H65      1.0000 0.59670  0.10320  0.77340  Biso   1.000  H
  H66      1.0000 0.90330  0.60320  0.72660  Biso   1.000  H
  H67      1.0000 0.40330  0.89680  0.22660  Biso   1.000  H
  H68      1.0000 0.09670  0.39680  0.27340  Biso   1.000  H
  C49      1.0000 0.75100  0.08914  0.81730  Biso   1.000  C
  C50      1.0000 0.74900  0.58914  0.68270  Biso   1.000  C
  C51      1.0000 0.24900  0.91086  0.18270  Biso   1.000  C
  C52      1.0000 0.25100  0.41086  0.31730  Biso   1.000  C
  H69      1.0000 0.74870  0.03590  0.82170  Biso   1.000  H
  H70      1.0000 0.75130  0.53590  0.67830  Biso   1.000  H
  H71      1.0000 0.25130  0.96410  0.17830  Biso   1.000  H
  H72      1.0000 0.24870  0.46410  0.32170  Biso   1.000  H
  C53      1.0000 0.86470  0.13440  0.11100  Biso   1.000  C
  C54      1.0000 0.63530  0.63440  0.38900  Biso   1.000  C
  C55      1.0000 0.13530  0.86560  0.88900  Biso   1.000  C
  C56      1.0000 0.36470  0.36560  0.61100  Biso   1.000  C
  H73      1.0000 0.91120  0.13280  0.07090  Biso   1.000  H
  H74      1.0000 0.58880  0.63280  0.42910  Biso   1.000  H
  H75      1.0000 0.08880  0.86720  0.92910  Biso   1.000  H
  H76      1.0000 0.41120  0.36720  0.57090  Biso   1.000  H
  C57      1.0000 0.77850  0.08960  0.08170  Biso   1.000  C
  C58      1.0000 0.72150  0.58960  0.41830  Biso   1.000  C
  C59      1.0000 0.22150  0.91040  0.91830  Biso   1.000  C
  C60      1.0000 0.27850  0.41040  0.58170  Biso   1.000  C
  H77      1.0000 0.76810  0.05650  0.02460  Biso   1.000  H
  H78      1.0000 0.73190  0.55650  0.47540  Biso   1.000  H
  H79      1.0000 0.23190  0.94350  0.97540  Biso   1.000  H
  H80      1.0000 0.26810  0.44350  0.52460  Biso   1.000  H
  C61      1.0000 0.70730  0.09235  0.13400  Biso   1.000  C
  C62      1.0000 0.79270  0.59235  0.36600  Biso   1.000  C
  C63      1.0000 0.29270  0.90765  0.86600  Biso   1.000  C
  C64      1.0000 0.20730  0.40765  0.63400  Biso   1.000  C
  C65      1.0000 0.72920  0.13910  0.21770  Biso   1.000  C
  C66      1.0000 0.77080  0.63910  0.28230  Biso   1.000  C
  C67      1.0000 0.27080  0.86090  0.78230  Biso   1.000  C
  C68      1.0000 0.22920  0.36090  0.71770  Biso   1.000  C
  H81      1.0000 0.68240  0.14260  0.25720  Biso   1.000  H
  H82      1.0000 0.81760  0.64260  0.24280  Biso   1.000  H
  H83      1.0000 0.31760  0.85740  0.74280  Biso   1.000  H
  H84      1.0000 0.18240  0.35740  0.75720  Biso   1.000  H
  C69      1.0000 0.81920  0.18110  0.24490  Biso   1.000  C
  C70      1.0000 0.68080  0.68110  0.25510  Biso   1.000  C
  C71      1.0000 0.18080  0.81890  0.75510  Biso   1.000  C
  C72      1.0000 0.31920  0.31890  0.74490  Biso   1.000  C
  H85      1.0000 0.83310  0.21250  0.30430  Biso   1.000  H
  H86      1.0000 0.66690  0.71250  0.19570  Biso   1.000  H
  H87      1.0000 0.16690  0.78750  0.69570  Biso   1.000  H
  H88      1.0000 0.33310  0.28750  0.80430  Biso   1.000  H
  C73      1.0000 0.61010  0.04570  0.09750  Biso   1.000  C
  C74      1.0000 0.88990  0.54570  0.40250  Biso   1.000  C
  C75      1.0000 0.38990  0.95430  0.90250  Biso   1.000  C
  C76      1.0000 0.11010  0.45430  0.59750  Biso   1.000  C
  H89      1.0000 0.58280  0.04970  0.02120  Biso   1.000  H
  H90      1.0000 0.91720  0.54970  0.47880  Biso   1.000  H
  H91      1.0000 0.41720  0.95030  0.97880  Biso   1.000  H
  H92      1.0000 0.08280  0.45030  0.52120  Biso   1.000  H
  H93      1.0000 0.62880  0.99240  0.11460  Biso   1.000  H
  H94      1.0000 0.87120  0.49240  0.38540  Biso   1.000  H
  H95      1.0000 0.37120  0.00760  0.88540  Biso   1.000  H
  H96      1.0000 0.12880  0.50760  0.61460  Biso   1.000  H
  C77      1.0000 0.52230  0.03607  0.22850  Biso   1.000  C
  C78      1.0000 0.97770  0.53607  0.27150  Biso   1.000  C
  C79      1.0000 0.47770  0.96393  0.77150  Biso   1.000  C
  C80      1.0000 0.02230  0.46393  0.72850  Biso   1.000  C
  C81      1.0000 0.42940  0.03793  0.35680  Biso   1.000  C
  C82      1.0000 0.07060  0.53793  0.14320  Biso   1.000  C
  C83      1.0000 0.57060  0.96207  0.64320  Biso   1.000  C
  C84      1.0000 0.92940  0.46207  0.85680  Biso   1.000  C
  H97      1.0000 0.47730  0.99570  0.38530  Biso   1.000  H
  H98      1.0000 0.02270  0.49570  0.11470  Biso   1.000  H
  H99      1.0000 0.52270  0.00430  0.61470  Biso   1.000  H
  H100     1.0000 0.97730  0.50430  0.88530  Biso   1.000  H
  H101     1.0000 0.35760  0.01880  0.34110  Biso   1.000  H
  H102     1.0000 0.14240  0.51880  0.15890  Biso   1.000  H
  H103     1.0000 0.64240  0.98120  0.65890  Biso   1.000  H
  H104     1.0000 0.85760  0.48120  0.84110  Biso   1.000  H
  C85      1.0000 0.44640  0.09880  0.43740  Biso   1.000  C
  C86      1.0000 0.05360  0.59880  0.06260  Biso   1.000  C
  C87      1.0000 0.55360  0.90120  0.56260  Biso   1.000  C
  C88      1.0000 0.94640  0.40120  0.93740  Biso   1.000  C
  C89      1.0000 0.53720  0.14016  0.46820  Biso   1.000  C
  C90      1.0000 0.96280  0.64016  0.03180  Biso   1.000  C
  C91      1.0000 0.46280  0.85984  0.53180  Biso   1.000  C
  C92      1.0000 0.03720  0.35984  0.96820  Biso   1.000  C
  H105     1.0000 0.58820  0.13380  0.43400  Biso   1.000  H
  H106     1.0000 0.91180  0.63380  0.06600  Biso   1.000  H
  H107     1.0000 0.41180  0.86620  0.56600  Biso   1.000  H
  H108     1.0000 0.08820  0.36620  0.93400  Biso   1.000  H
  C93      1.0000 0.55330  0.19034  0.54810  Biso   1.000  C
  C94      1.0000 0.94670  0.69034  0.95190  Biso   1.000  C
  C95      1.0000 0.44670  0.80966  0.45190  Biso   1.000  C
  C96      1.0000 0.05330  0.30966  0.04810  Biso   1.000  C
  H109     1.0000 0.61660  0.21770  0.56870  Biso   1.000  H
  H110     1.0000 0.88340  0.71770  0.93130  Biso   1.000  H
  H111     1.0000 0.38340  0.78230  0.43130  Biso   1.000  H
  H112     1.0000 0.11660  0.28230  0.06870  Biso   1.000  H
  C97      1.0000 0.39450  0.16504  0.56630  Biso   1.000  C
  C98      1.0000 0.10550  0.66504  0.93370  Biso   1.000  C
  C99      1.0000 0.60550  0.83496  0.43370  Biso   1.000  C
  C100     1.0000 0.89450  0.33496  0.06630  Biso   1.000  C
  H113     1.0000 0.34290  0.17440  0.59890  Biso   1.000  H
  H114     1.0000 0.15710  0.67440  0.90110  Biso   1.000  H
  H115     1.0000 0.65710  0.82560  0.40110  Biso   1.000  H
  H116     1.0000 0.84290  0.32560  0.09890  Biso   1.000  H
  C101     1.0000 0.37380  0.11272  0.48680  Biso   1.000  C
  C102     1.0000 0.12620  0.61272  0.01320  Biso   1.000  C
  C103     1.0000 0.62620  0.88728  0.51320  Biso   1.000  C
  C104     1.0000 0.87380  0.38728  0.98680  Biso   1.000  C
  H117     1.0000 0.30950  0.08660  0.46660  Biso   1.000  H
  H118     1.0000 0.19050  0.58660  0.03340  Biso   1.000  H
  H119     1.0000 0.69050  0.91340  0.53340  Biso   1.000  H
  H120     1.0000 0.80950  0.41340  0.96660  Biso   1.000  H
  N37      1.0000 0.32260  0.19166  0.00320  Biso   1.000  N
  N38      1.0000 0.17740  0.69166  0.49680  Biso   1.000  N
  N39      1.0000 0.67740  0.80834  0.99680  Biso   1.000  N
  N40      1.0000 0.82260  0.30834  0.50320  Biso   1.000  N
  O25      1.0000 0.24490  0.21550  0.93780  Biso   1.000  O
  O26      1.0000 0.25510  0.71550  0.56220  Biso   1.000  O
  O27      1.0000 0.75510  0.78450  0.06220  Biso   1.000  O
  O28      1.0000 0.74490  0.28450  0.43780  Biso   1.000  O
  O29      1.0000 0.33220  0.20900  0.09150  Biso   1.000  O
  O30      1.0000 0.16780  0.70900  0.40850  Biso   1.000  O
  O31      1.0000 0.66780  0.79100  0.90850  Biso   1.000  O
  O32      1.0000 0.83220  0.29100  0.59150  Biso   1.000  O
  O33      1.0000 0.38510  0.15000  0.98110  Biso   1.000  O
  O34      1.0000 0.11490  0.65000  0.51890  Biso   1.000  O
  O35      1.0000 0.61490  0.85000  0.01890  Biso   1.000  O
  O36      1.0000 0.88510  0.35000  0.48110  Biso   1.000  O
  O37      1.0000 0.80200  0.11340  0.53300  Biso   1.000  O
  O38      1.0000 0.69800  0.61340  0.96700  Biso   1.000  O
  O39      1.0000 0.19800  0.88660  0.46700  Biso   1.000  O
  O40      1.0000 0.30200  0.38660  0.03300  Biso   1.000  O
  H121     1.0000 0.84780  0.10530  0.58900  Biso   1.000  H
  H122     1.0000 0.65220  0.60530  0.91100  Biso   1.000  H
  H123     1.0000 0.15220  0.89470  0.41100  Biso   1.000  H
  H124     1.0000 0.34780  0.39470  0.08900  Biso   1.000  H
  H125     1.0000 0.80380  0.15990  0.52100  Biso   1.000  H
  H126     1.0000 0.69620  0.65990  0.97900  Biso   1.000  H
  H127     1.0000 0.19620  0.84010  0.47900  Biso   1.000  H
  H128     1.0000 0.30380  0.34010  0.02100  Biso   1.000  H
  O41      1.0000 0.36210  0.20080  0.09750  Biso   1.000  O
  O42      1.0000 0.13790  0.70080  0.40250  Biso   1.000  O
  O43      1.0000 0.63790  0.79920  0.90250  Biso   1.000  O
  O44      1.0000 0.86210  0.29920  0.59750  Biso   1.000  O
  O45      1.0000 0.25640  0.23400  0.94990  Biso   1.000  O
  O46      1.0000 0.24360  0.73400  0.55010  Biso   1.000  O
  O47      1.0000 0.74360  0.76600  0.05010  Biso   1.000  O
  O48      1.0000 0.75640  0.26600  0.44990  Biso   1.000  O
  O49      1.0000 0.35330  0.13880  0.95920  Biso   1.000  O
  O50      1.0000 0.14670  0.63880  0.54080  Biso   1.000  O
  O51      1.0000 0.64670  0.86120  0.04080  Biso   1.000  O
  O52      1.0000 0.85330  0.36120  0.45920  Biso   1.000  O
  O53      1.0000 0.77700  0.11200  0.56600  Biso   1.000  O
  O54      1.0000 0.72300  0.61200  0.93400  Biso   1.000  O
  O55      1.0000 0.22300  0.88800  0.43400  Biso   1.000  O
  O56      1.0000 0.27700  0.38800  0.06600  Biso   1.000  O
  H129     1.0000 0.82950  0.09060  0.60670  Biso   1.000  H
  H130     1.0000 0.67050  0.59060  0.89330  Biso   1.000  H
  H131     1.0000 0.17050  0.90940  0.39330  Biso   1.000  H
  H132     1.0000 0.32950  0.40940  0.10670  Biso   1.000  H
  H133     1.0000 0.72930  0.08050  0.55570  Biso   1.000  H
  H134     1.0000 0.77070  0.58050  0.94430  Biso   1.000  H
  H135     1.0000 0.27070  0.91950  0.44430  Biso   1.000  H
  H136     1.0000 0.22930  0.41950  0.05570  Biso   1.000  H
  O57      1.0000 0.83600  0.11600  0.49500  Biso   1.000  O
  O58      1.0000 0.66400  0.61600  0.00500  Biso   1.000  O
  O59      1.0000 0.16400  0.88400  0.50500  Biso   1.000  O
  O60      1.0000 0.33600  0.38400  0.99500  Biso   1.000  O
  H137     1.0000 0.87200  0.10960  0.45290  Biso   1.000  H
  H138     1.0000 0.62800  0.60960  0.04710  Biso   1.000  H
  H139     1.0000 0.12800  0.89040  0.54710  Biso   1.000  H
  H140     1.0000 0.37200  0.39040  0.95290  Biso   1.000  H
  H141     1.0000 0.87560  0.10440  0.55380  Biso   1.000  H
  H142     1.0000 0.62440  0.60440  0.94620  Biso   1.000  H
  H143     1.0000 0.12440  0.89560  0.44620  Biso   1.000  H
  H144     1.0000 0.37560  0.39560  0.05380  Biso   1.000  H
