data_image0
_cell_length_a       9.1171
_cell_length_b       21.558
_cell_length_c       9.122
_cell_angle_alpha    90
_cell_angle_beta     96.27
_cell_angle_gamma    90

_symmetry_space_group_name_H-M    "P 1"
_symmetry_int_tables_number       1

loop_
  _symmetry_equiv_pos_as_xyz
  'x, y, z'

loop_
  _atom_site_label
  _atom_site_occupancy
  _atom_site_fract_x
  _atom_site_fract_y
  _atom_site_fract_z
  _atom_site_thermal_displace_type
  _atom_site_B_iso_or_equiv
  _atom_site_type_symbol
  Cu1      1.0000 0.00000  0.50000  0.00000  Biso   1.000  Cu
  Cu2      1.0000 0.00000  0.00000  0.50000  Biso   1.000  Cu
  O1       1.0000 0.19630  0.76788  0.82500  Biso   1.000  O
  O2       1.0000 0.19630  0.73212  0.32500  Biso   1.000  O
  O3       1.0000 0.80370  0.23212  0.17500  Biso   1.000  O
  O4       1.0000 0.80370  0.26788  0.67500  Biso   1.000  O
  N1       1.0000 0.19010  0.53493  0.94200  Biso   1.000  N
  N2       1.0000 0.19010  0.96507  0.44200  Biso   1.000  N
  N3       1.0000 0.80990  0.46507  0.05800  Biso   1.000  N
  N4       1.0000 0.80990  0.03493  0.55800  Biso   1.000  N
  N5       1.0000 0.28720  0.72232  0.04070  Biso   1.000  N
  N6       1.0000 0.28720  0.77768  0.54070  Biso   1.000  N
  N7       1.0000 0.71280  0.27768  0.95930  Biso   1.000  N
  N8       1.0000 0.71280  0.22232  0.45930  Biso   1.000  N
  H1       1.0000 0.27500  0.71970  0.12100  Biso   1.000  H
  H2       1.0000 0.27500  0.78030  0.62100  Biso   1.000  H
  H3       1.0000 0.72500  0.28030  0.87900  Biso   1.000  H
  H4       1.0000 0.72500  0.21970  0.37900  Biso   1.000  H
  N9       1.0000 0.10490  0.79537  0.03610  Biso   1.000  N
  N10      1.0000 0.10490  0.70463  0.53610  Biso   1.000  N
  N11      1.0000 0.89510  0.20463  0.96390  Biso   1.000  N
  N12      1.0000 0.89510  0.29537  0.46390  Biso   1.000  N
  H5       1.0000 0.11270  0.79370  0.13080  Biso   1.000  H
  H6       1.0000 0.11270  0.70630  0.63080  Biso   1.000  H
  H7       1.0000 0.88730  0.20630  0.86920  Biso   1.000  H
  H8       1.0000 0.88730  0.29370  0.36920  Biso   1.000  H
  N13      1.0000 0.06020  0.97068  0.71390  Biso   1.000  N
  N14      1.0000 0.06020  0.52932  0.21390  Biso   1.000  N
  N15      1.0000 0.93980  0.02932  0.28610  Biso   1.000  N
  N16      1.0000 0.93980  0.47068  0.78610  Biso   1.000  N
  C1       1.0000 0.22700  0.59435  0.97210  Biso   1.000  C
  C2       1.0000 0.22700  0.90565  0.47210  Biso   1.000  C
  C3       1.0000 0.77300  0.40565  0.02790  Biso   1.000  C
  C4       1.0000 0.77300  0.09435  0.52790  Biso   1.000  C
  H9       1.0000 0.15400  0.61910  0.02100  Biso   1.000  H
  H10      1.0000 0.15400  0.88090  0.52100  Biso   1.000  H
  H11      1.0000 0.84600  0.38090  0.97900  Biso   1.000  H
  H12      1.0000 0.84600  0.11910  0.47900  Biso   1.000  H
  C5       1.0000 0.35810  0.62077  0.93970  Biso   1.000  C
  C6       1.0000 0.35810  0.87923  0.43970  Biso   1.000  C
  C7       1.0000 0.64190  0.37923  0.06030  Biso   1.000  C
  C8       1.0000 0.64190  0.12077  0.56030  Biso   1.000  C
  C9       1.0000 0.45440  0.58337  0.87200  Biso   1.000  C
  C10      1.0000 0.45440  0.91663  0.37200  Biso   1.000  C
  C11      1.0000 0.54560  0.41663  0.12800  Biso   1.000  C
  C12      1.0000 0.54560  0.08337  0.62800  Biso   1.000  C
  H13      1.0000 0.53800  0.59660  0.85400  Biso   1.000  H
  H14      1.0000 0.53800  0.90340  0.35400  Biso   1.000  H
  H15      1.0000 0.46200  0.40340  0.14600  Biso   1.000  H
  H16      1.0000 0.46200  0.09660  0.64600  Biso   1.000  H
  C13      1.0000 0.41670  0.52298  0.83830  Biso   1.000  C
  C14      1.0000 0.41670  0.97702  0.33830  Biso   1.000  C
  C15      1.0000 0.58330  0.47702  0.16170  Biso   1.000  C
  C16      1.0000 0.58330  0.02298  0.66170  Biso   1.000  C
  H17      1.0000 0.47100  0.49890  0.78900  Biso   1.000  H
  H18      1.0000 0.47100  0.00110  0.28900  Biso   1.000  H
  H19      1.0000 0.52900  0.50110  0.21100  Biso   1.000  H
  H20      1.0000 0.52900  0.99890  0.71100  Biso   1.000  H
  C17      1.0000 0.28380  0.50003  0.87360  Biso   1.000  C
  C18      1.0000 0.28380  0.99997  0.37360  Biso   1.000  C
  C19      1.0000 0.71620  0.49997  0.12640  Biso   1.000  C
  C20      1.0000 0.71620  0.00003  0.62640  Biso   1.000  C
  H21      1.0000 0.25700  0.45800  0.85200  Biso   1.000  H
  H22      1.0000 0.25700  0.04200  0.35200  Biso   1.000  H
  H23      1.0000 0.74300  0.54200  0.14800  Biso   1.000  H
  H24      1.0000 0.74300  0.95800  0.64800  Biso   1.000  H
  C21      1.0000 0.39770  0.68736  0.97680  Biso   1.000  C
  C22      1.0000 0.39770  0.81264  0.47680  Biso   1.000  C
  C23      1.0000 0.60230  0.31264  0.02320  Biso   1.000  C
  C24      1.0000 0.60230  0.18736  0.52320  Biso   1.000  C
  H25      1.0000 0.48400  0.68520  0.03600  Biso   1.000  H
  H26      1.0000 0.48400  0.81480  0.53600  Biso   1.000  H
  H27      1.0000 0.51600  0.31480  0.96400  Biso   1.000  H
  H28      1.0000 0.51600  0.18520  0.46400  Biso   1.000  H
  H29      1.0000 0.42100  0.70590  0.89500  Biso   1.000  H
  H30      1.0000 0.42100  0.79410  0.39500  Biso   1.000  H
  H31      1.0000 0.57900  0.29410  0.10500  Biso   1.000  H
  H32      1.0000 0.57900  0.20590  0.60500  Biso   1.000  H
  C25      1.0000 0.19620  0.76160  0.96030  Biso   1.000  C
  C26      1.0000 0.19620  0.73840  0.46030  Biso   1.000  C
  C27      1.0000 0.80380  0.23840  0.03970  Biso   1.000  C
  C28      1.0000 0.80380  0.26160  0.53970  Biso   1.000  C
  C29      1.0000 0.99390  0.83453  0.95650  Biso   1.000  C
  C30      1.0000 0.99390  0.66547  0.45650  Biso   1.000  C
  C31      1.0000 0.00610  0.16547  0.04350  Biso   1.000  C
  C32      1.0000 0.00610  0.33453  0.54350  Biso   1.000  C
  H33      1.0000 0.91700  0.83980  0.01100  Biso   1.000  H
  H34      1.0000 0.91700  0.66020  0.51100  Biso   1.000  H
  H35      1.0000 0.08300  0.16020  0.98900  Biso   1.000  H
  H36      1.0000 0.08300  0.33980  0.48900  Biso   1.000  H
  H37      1.0000 0.95100  0.81320  0.87100  Biso   1.000  H
  H38      1.0000 0.95100  0.68680  0.37100  Biso   1.000  H
  H39      1.0000 0.04900  0.18680  0.12900  Biso   1.000  H
  H40      1.0000 0.04900  0.31320  0.62900  Biso   1.000  H
  C33      1.0000 0.05380  0.89557  0.90820  Biso   1.000  C
  C34      1.0000 0.05380  0.60443  0.40820  Biso   1.000  C
  C35      1.0000 0.94620  0.10443  0.09180  Biso   1.000  C
  C36      1.0000 0.94620  0.39557  0.59180  Biso   1.000  C
  C37      1.0000 0.14360  0.93336  0.00270  Biso   1.000  C
  C38      1.0000 0.14360  0.56664  0.50270  Biso   1.000  C
  C39      1.0000 0.85640  0.06664  0.99730  Biso   1.000  C
  C40      1.0000 0.85640  0.43336  0.49730  Biso   1.000  C
  H41      1.0000 0.16500  0.92160  0.09600  Biso   1.000  H
  H42      1.0000 0.16500  0.57840  0.59600  Biso   1.000  H
  H43      1.0000 0.83500  0.07840  0.90400  Biso   1.000  H
  H44      1.0000 0.83500  0.42160  0.40400  Biso   1.000  H
  C41      1.0000 0.19140  0.98946  0.95140  Biso   1.000  C
  C42      1.0000 0.19140  0.51054  0.45140  Biso   1.000  C
  C43      1.0000 0.80860  0.01054  0.04860  Biso   1.000  C
  C44      1.0000 0.80860  0.48946  0.54860  Biso   1.000  C
  H45      1.0000 0.24700  0.01750  0.01500  Biso   1.000  H
  H46      1.0000 0.24700  0.48250  0.51500  Biso   1.000  H
  H47      1.0000 0.75300  0.98250  0.98500  Biso   1.000  H
  H48      1.0000 0.75300  0.51750  0.48500  Biso   1.000  H
  C45      1.0000 0.14770  0.00654  0.80720  Biso   1.000  C
  C46      1.0000 0.14770  0.49346  0.30720  Biso   1.000  C
  C47      1.0000 0.85230  0.99346  0.19280  Biso   1.000  C
  C48      1.0000 0.85230  0.50654  0.69280  Biso   1.000  C
  H49      1.0000 0.18300  0.04380  0.77200  Biso   1.000  H
  H50      1.0000 0.18300  0.45620  0.27200  Biso   1.000  H
  H51      1.0000 0.81700  0.95620  0.22800  Biso   1.000  H
  H52      1.0000 0.81700  0.54380  0.72800  Biso   1.000  H
  C49      1.0000 0.01610  0.91638  0.76570  Biso   1.000  C
  C50      1.0000 0.01610  0.58362  0.26570  Biso   1.000  C
  C51      1.0000 0.98390  0.08362  0.23430  Biso   1.000  C
  C52      1.0000 0.98390  0.41638  0.73430  Biso   1.000  C
  H53      1.0000 0.96200  0.89190  0.70400  Biso   1.000  H
  H54      1.0000 0.96200  0.60810  0.20400  Biso   1.000  H
  H55      1.0000 0.03800  0.10810  0.29600  Biso   1.000  H
  H56      1.0000 0.03800  0.39190  0.79600  Biso   1.000  H
  N17      1.0000 0.13140  0.34980  0.12070  Biso   1.000  N
  N18      1.0000 0.13140  0.15020  0.62070  Biso   1.000  N
  N19      1.0000 0.86860  0.65020  0.87930  Biso   1.000  N
  N20      1.0000 0.86860  0.84980  0.37930  Biso   1.000  N
  O5       1.0000 0.20760  0.30377  0.10460  Biso   1.000  O
  O6       1.0000 0.20760  0.19623  0.60460  Biso   1.000  O
  O7       1.0000 0.79240  0.69623  0.89540  Biso   1.000  O
  O8       1.0000 0.79240  0.80377  0.39540  Biso   1.000  O
  O9       1.0000 0.04560  0.34919  0.21990  Biso   1.000  O
  O10      1.0000 0.04560  0.15081  0.71990  Biso   1.000  O
  O11      1.0000 0.95440  0.65081  0.78010  Biso   1.000  O
  O12      1.0000 0.95440  0.84919  0.28010  Biso   1.000  O
  O13      1.0000 0.14010  0.39706  0.04490  Biso   1.000  O
  O14      1.0000 0.14010  0.10294  0.54490  Biso   1.000  O
  O15      1.0000 0.85990  0.60294  0.95510  Biso   1.000  O
  O16      1.0000 0.85990  0.89706  0.45510  Biso   1.000  O
  O17      1.0000 0.72660  0.71131  0.18350  Biso   1.000  O
  O18      1.0000 0.72660  0.78869  0.68350  Biso   1.000  O
  O19      1.0000 0.27340  0.28869  0.81650  Biso   1.000  O
  O20      1.0000 0.27340  0.21131  0.31650  Biso   1.000  O
  H57      1.0000 0.75040  0.74570  0.22550  Biso   1.000  H
  H58      1.0000 0.75040  0.75430  0.72550  Biso   1.000  H
  H59      1.0000 0.24960  0.25430  0.77450  Biso   1.000  H
  H60      1.0000 0.24960  0.24570  0.27450  Biso   1.000  H
  H61      1.0000 0.76790  0.71090  0.10640  Biso   1.000  H
  H62      1.0000 0.76790  0.78910  0.60640  Biso   1.000  H
  H63      1.0000 0.23210  0.28910  0.89360  Biso   1.000  H
  H64      1.0000 0.23210  0.21090  0.39360  Biso   1.000  H
  O21      1.0000 0.36670  0.38972  0.67910  Biso   1.000  O
  O22      1.0000 0.36670  0.11028  0.17910  Biso   1.000  O
  O23      1.0000 0.63330  0.61028  0.32090  Biso   1.000  O
  O24      1.0000 0.63330  0.88972  0.82090  Biso   1.000  O
  H65      1.0000 0.33710  0.36120  0.72740  Biso   1.000  H
  H66      1.0000 0.33710  0.13880  0.22740  Biso   1.000  H
  H67      1.0000 0.66290  0.63880  0.27260  Biso   1.000  H
  H68      1.0000 0.66290  0.86120  0.77260  Biso   1.000  H
  C53      1.0000 0.49510  0.37070  0.61670  Biso   1.000  C
  C54      1.0000 0.49510  0.12930  0.11670  Biso   1.000  C
  C55      1.0000 0.50490  0.62930  0.38330  Biso   1.000  C
  C56      1.0000 0.50490  0.87070  0.88330  Biso   1.000  C
  H69      1.0000 0.53950  0.33560  0.67140  Biso   1.000  H
  H70      1.0000 0.53950  0.16440  0.17140  Biso   1.000  H
  H71      1.0000 0.46050  0.66440  0.32860  Biso   1.000  H
  H72      1.0000 0.46050  0.83560  0.82860  Biso   1.000  H
  H73      1.0000 0.56630  0.40430  0.62320  Biso   1.000  H
  H74      1.0000 0.56630  0.09570  0.12320  Biso   1.000  H
  H75      1.0000 0.43370  0.59570  0.37680  Biso   1.000  H
  H76      1.0000 0.43370  0.90430  0.87680  Biso   1.000  H
  C57      1.0000 0.45650  0.35290  0.45970  Biso   1.000  C
  C58      1.0000 0.45650  0.14710  0.95970  Biso   1.000  C
  C59      1.0000 0.54350  0.64710  0.54030  Biso   1.000  C
  C60      1.0000 0.54350  0.85290  0.04030  Biso   1.000  C
  H77      1.0000 0.54410  0.34020  0.41830  Biso   1.000  H
  H78      1.0000 0.54410  0.15980  0.91830  Biso   1.000  H
  H79      1.0000 0.45590  0.65980  0.58170  Biso   1.000  H
  H80      1.0000 0.45590  0.84020  0.08170  Biso   1.000  H
  H81      1.0000 0.41340  0.38780  0.40570  Biso   1.000  H
  H82      1.0000 0.41340  0.11220  0.90570  Biso   1.000  H
  H83      1.0000 0.58660  0.61220  0.59430  Biso   1.000  H
  H84      1.0000 0.58660  0.88780  0.09430  Biso   1.000  H
  H85      1.0000 0.38710  0.31930  0.45380  Biso   1.000  H
  H86      1.0000 0.38710  0.18070  0.95380  Biso   1.000  H
  H87      1.0000 0.61290  0.68070  0.54620  Biso   1.000  H
  H88      1.0000 0.61290  0.81930  0.04620  Biso   1.000  H
