data_image0
_cell_length_a       13.002
_cell_length_b       6.8016
_cell_length_c       18.261
_cell_angle_alpha    90
_cell_angle_beta     105.299
_cell_angle_gamma    90

_symmetry_space_group_name_H-M    "P 1"
_symmetry_int_tables_number       1

loop_
  _symmetry_equiv_pos_as_xyz
  'x, y, z'

loop_
  _atom_site_label
  _atom_site_occupancy
  _atom_site_fract_x
  _atom_site_fract_y
  _atom_site_fract_z
  _atom_site_thermal_displace_type
  _atom_site_B_iso_or_equiv
  _atom_site_type_symbol
  C1       1.0000 0.99816  0.30930  0.18725  Biso   1.000  C
  C2       1.0000 0.49816  0.80930  0.18725  Biso   1.000  C
  C3       1.0000 0.00184  0.30930  0.31275  Biso   1.000  C
  C4       1.0000 0.50184  0.80930  0.31275  Biso   1.000  C
  C5       1.0000 0.00184  0.69070  0.81275  Biso   1.000  C
  C6       1.0000 0.50184  0.19070  0.81275  Biso   1.000  C
  C7       1.0000 0.99816  0.69070  0.68725  Biso   1.000  C
  C8       1.0000 0.49816  0.19070  0.68725  Biso   1.000  C
  H1       1.0000 0.99670  0.24200  0.14270  Biso   1.000  H
  H2       1.0000 0.49670  0.74200  0.14270  Biso   1.000  H
  H3       1.0000 0.00330  0.24200  0.35730  Biso   1.000  H
  H4       1.0000 0.50330  0.74200  0.35730  Biso   1.000  H
  H5       1.0000 0.00330  0.75800  0.85730  Biso   1.000  H
  H6       1.0000 0.50330  0.25800  0.85730  Biso   1.000  H
  H7       1.0000 0.99670  0.75800  0.64270  Biso   1.000  H
  H8       1.0000 0.49670  0.25800  0.64270  Biso   1.000  H
  C9       1.0000 0.99844  0.51310  0.18738  Biso   1.000  C
  C10      1.0000 0.49844  0.01310  0.18738  Biso   1.000  C
  C11      1.0000 0.00156  0.51310  0.31262  Biso   1.000  C
  C12      1.0000 0.50156  0.01310  0.31262  Biso   1.000  C
  C13      1.0000 0.00156  0.48690  0.81262  Biso   1.000  C
  C14      1.0000 0.50156  0.98690  0.81262  Biso   1.000  C
  C15      1.0000 0.99844  0.48690  0.68738  Biso   1.000  C
  C16      1.0000 0.49844  0.98690  0.68738  Biso   1.000  C
  H9       1.0000 0.99750  0.58040  0.14290  Biso   1.000  H
  H10      1.0000 0.49750  0.08040  0.14290  Biso   1.000  H
  H11      1.0000 0.00250  0.58040  0.35710  Biso   1.000  H
  H12      1.0000 0.50250  0.08040  0.35710  Biso   1.000  H
  H13      1.0000 0.00250  0.41960  0.85710  Biso   1.000  H
  H14      1.0000 0.50250  0.91960  0.85710  Biso   1.000  H
  H15      1.0000 0.99750  0.41960  0.64290  Biso   1.000  H
  H16      1.0000 0.49750  0.91960  0.64290  Biso   1.000  H
  C17      1.0000 0.17100  0.99890  0.04150  Biso   1.000  C
  C18      1.0000 0.67100  0.49890  0.04150  Biso   1.000  C
  C19      1.0000 0.82900  0.99890  0.45850  Biso   1.000  C
  C20      1.0000 0.32900  0.49890  0.45850  Biso   1.000  C
  C21      1.0000 0.82900  0.00110  0.95850  Biso   1.000  C
  C22      1.0000 0.32900  0.50110  0.95850  Biso   1.000  C
  C23      1.0000 0.17100  0.00110  0.54150  Biso   1.000  C
  C24      1.0000 0.67100  0.50110  0.54150  Biso   1.000  C
  Cu1      1.0000 0.00000  0.91146  0.25000  Biso   1.000  Cu
  Cu2      1.0000 0.50000  0.41146  0.25000  Biso   1.000  Cu
  Cu3      1.0000 0.00000  0.08854  0.75000  Biso   1.000  Cu
  Cu4      1.0000 0.50000  0.58854  0.75000  Biso   1.000  Cu
  F1       1.0000 0.26550  0.02050  0.02818  Biso   1.000  F
  F2       1.0000 0.76550  0.52050  0.02818  Biso   1.000  F
  F3       1.0000 0.73450  0.02050  0.47182  Biso   1.000  F
  F4       1.0000 0.23450  0.52050  0.47182  Biso   1.000  F
  F5       1.0000 0.73450  0.97950  0.97182  Biso   1.000  F
  F6       1.0000 0.23450  0.47950  0.97182  Biso   1.000  F
  F7       1.0000 0.26550  0.97950  0.52818  Biso   1.000  F
  F8       1.0000 0.76550  0.47950  0.52818  Biso   1.000  F
  F9       1.0000 0.11550  0.87160  0.99349  Biso   1.000  F
  F10      1.0000 0.61550  0.37160  0.99349  Biso   1.000  F
  F11      1.0000 0.88450  0.87160  0.50651  Biso   1.000  F
  F12      1.0000 0.38450  0.37160  0.50651  Biso   1.000  F
  F13      1.0000 0.88450  0.12840  0.00651  Biso   1.000  F
  F14      1.0000 0.38450  0.62840  0.00651  Biso   1.000  F
  F15      1.0000 0.11550  0.12840  0.49349  Biso   1.000  F
  F16      1.0000 0.61550  0.62840  0.49349  Biso   1.000  F
  F17      1.0000 0.12080  0.16860  0.02958  Biso   1.000  F
  F18      1.0000 0.62080  0.66860  0.02958  Biso   1.000  F
  F19      1.0000 0.87920  0.16860  0.47042  Biso   1.000  F
  F20      1.0000 0.37920  0.66860  0.47042  Biso   1.000  F
  F21      1.0000 0.87920  0.83140  0.97042  Biso   1.000  F
  F22      1.0000 0.37920  0.33140  0.97042  Biso   1.000  F
  F23      1.0000 0.12080  0.83140  0.52958  Biso   1.000  F
  F24      1.0000 0.62080  0.33140  0.52958  Biso   1.000  F
  N1       1.0000 0.00000  0.20900  0.25000  Biso   1.000  N
  N2       1.0000 0.50000  0.70900  0.25000  Biso   1.000  N
  N3       1.0000 0.00000  0.79100  0.75000  Biso   1.000  N
  N4       1.0000 0.50000  0.29100  0.75000  Biso   1.000  N
  N5       1.0000 0.00000  0.61390  0.25000  Biso   1.000  N
  N6       1.0000 0.50000  0.11390  0.25000  Biso   1.000  N
  N7       1.0000 0.00000  0.38610  0.75000  Biso   1.000  N
  N8       1.0000 0.50000  0.88610  0.75000  Biso   1.000  N
  O1       1.0000 0.85961  0.90800  0.17573  Biso   1.000  O
  O2       1.0000 0.35961  0.40800  0.17573  Biso   1.000  O
  O3       1.0000 0.14039  0.90800  0.32427  Biso   1.000  O
  O4       1.0000 0.64039  0.40800  0.32427  Biso   1.000  O
  O5       1.0000 0.14039  0.09200  0.82427  Biso   1.000  O
  O6       1.0000 0.64039  0.59200  0.82427  Biso   1.000  O
  O7       1.0000 0.85961  0.09200  0.67573  Biso   1.000  O
  O8       1.0000 0.35961  0.59200  0.67573  Biso   1.000  O
  H17      1.0000 0.82590  0.80440  0.18060  Biso   1.000  H
  H18      1.0000 0.32590  0.30440  0.18060  Biso   1.000  H
  H19      1.0000 0.17410  0.80440  0.31940  Biso   1.000  H
  H20      1.0000 0.67410  0.30440  0.31940  Biso   1.000  H
  H21      1.0000 0.17410  0.19560  0.81940  Biso   1.000  H
  H22      1.0000 0.67410  0.69560  0.81940  Biso   1.000  H
  H23      1.0000 0.82590  0.19560  0.68060  Biso   1.000  H
  H24      1.0000 0.32590  0.69560  0.68060  Biso   1.000  H
  H25      1.0000 0.82140  0.01090  0.16880  Biso   1.000  H
  H26      1.0000 0.32140  0.51090  0.16880  Biso   1.000  H
  H27      1.0000 0.17860  0.01090  0.33120  Biso   1.000  H
  H28      1.0000 0.67860  0.51090  0.33120  Biso   1.000  H
  H29      1.0000 0.17860  0.98910  0.83120  Biso   1.000  H
  H30      1.0000 0.67860  0.48910  0.83120  Biso   1.000  H
  H31      1.0000 0.82140  0.98910  0.66880  Biso   1.000  H
  H32      1.0000 0.32140  0.48910  0.66880  Biso   1.000  H
  O9       1.0000 0.07983  0.90670  0.14545  Biso   1.000  O
  O10      1.0000 0.57983  0.40670  0.14545  Biso   1.000  O
  O11      1.0000 0.92017  0.90670  0.35455  Biso   1.000  O
  O12      1.0000 0.42017  0.40670  0.35455  Biso   1.000  O
  O13      1.0000 0.92017  0.09330  0.85455  Biso   1.000  O
  O14      1.0000 0.42017  0.59330  0.85455  Biso   1.000  O
  O15      1.0000 0.07983  0.09330  0.64545  Biso   1.000  O
  O16      1.0000 0.57983  0.59330  0.64545  Biso   1.000  O
  O17      1.0000 0.24060  0.73580  0.14243  Biso   1.000  O
  O18      1.0000 0.74060  0.23580  0.14243  Biso   1.000  O
  O19      1.0000 0.75940  0.73580  0.35757  Biso   1.000  O
  O20      1.0000 0.25940  0.23580  0.35757  Biso   1.000  O
  O21      1.0000 0.75940  0.26420  0.85757  Biso   1.000  O
  O22      1.0000 0.25940  0.76420  0.85757  Biso   1.000  O
  O23      1.0000 0.24060  0.26420  0.64243  Biso   1.000  O
  O24      1.0000 0.74060  0.76420  0.64243  Biso   1.000  O
  O25      1.0000 0.24800  0.07320  0.18329  Biso   1.000  O
  O26      1.0000 0.74800  0.57320  0.18329  Biso   1.000  O
  O27      1.0000 0.75200  0.07320  0.31671  Biso   1.000  O
  O28      1.0000 0.25200  0.57320  0.31671  Biso   1.000  O
  O29      1.0000 0.75200  0.92680  0.81671  Biso   1.000  O
  O30      1.0000 0.25200  0.42680  0.81671  Biso   1.000  O
  O31      1.0000 0.24800  0.92680  0.68329  Biso   1.000  O
  O32      1.0000 0.74800  0.42680  0.68329  Biso   1.000  O
  S1       1.0000 0.18729  0.91993  0.13921  Biso   1.000  S
  S2       1.0000 0.68729  0.41993  0.13921  Biso   1.000  S
  S3       1.0000 0.81271  0.91993  0.36079  Biso   1.000  S
  S4       1.0000 0.31271  0.41993  0.36079  Biso   1.000  S
  S5       1.0000 0.81271  0.08007  0.86079  Biso   1.000  S
  S6       1.0000 0.31271  0.58007  0.86079  Biso   1.000  S
  S7       1.0000 0.18729  0.08007  0.63921  Biso   1.000  S
  S8       1.0000 0.68729  0.58007  0.63921  Biso   1.000  S
