data_image0
_cell_length_a       14.728
_cell_length_b       14.876
_cell_length_c       7.4484
_cell_angle_alpha    90
_cell_angle_beta     90
_cell_angle_gamma    90

_symmetry_space_group_name_H-M    "P 1"
_symmetry_int_tables_number       1

loop_
  _symmetry_equiv_pos_as_xyz
  'x, y, z'

loop_
  _atom_site_label
  _atom_site_occupancy
  _atom_site_fract_x
  _atom_site_fract_y
  _atom_site_fract_z
  _atom_site_thermal_displace_type
  _atom_site_B_iso_or_equiv
  _atom_site_type_symbol
  Cu1      1.0000 0.43861  0.09057  0.74359  Biso   1.000  Cu
  Cu2      1.0000 0.56139  0.90943  0.24359  Biso   1.000  Cu
  Cu3      1.0000 0.06139  0.59057  0.24359  Biso   1.000  Cu
  Cu4      1.0000 0.93861  0.40943  0.74359  Biso   1.000  Cu
  O1       1.0000 0.54660  0.51817  0.37890  Biso   1.000  O
  O2       1.0000 0.45340  0.48183  0.87890  Biso   1.000  O
  O3       1.0000 0.95340  0.01817  0.87890  Biso   1.000  O
  O4       1.0000 0.04660  0.98183  0.37890  Biso   1.000  O
  O5       1.0000 0.65535  0.47980  0.18560  Biso   1.000  O
  O6       1.0000 0.34465  0.52020  0.68560  Biso   1.000  O
  O7       1.0000 0.84465  0.97980  0.68560  Biso   1.000  O
  O8       1.0000 0.15535  0.02020  0.18560  Biso   1.000  O
  H1       1.0000 0.66350  0.53700  0.17100  Biso   1.000  H
  H2       1.0000 0.33650  0.46300  0.67100  Biso   1.000  H
  H3       1.0000 0.83650  0.03700  0.67100  Biso   1.000  H
  H4       1.0000 0.16350  0.96300  0.17100  Biso   1.000  H
  O9       1.0000 0.48682  0.04492  0.52240  Biso   1.000  O
  O10      1.0000 0.51318  0.95508  0.02240  Biso   1.000  O
  O11      1.0000 0.01318  0.54492  0.02240  Biso   1.000  O
  O12      1.0000 0.98682  0.45508  0.52240  Biso   1.000  O
  O13      1.0000 0.58750  0.03354  0.30740  Biso   1.000  O
  O14      1.0000 0.41250  0.96646  0.80740  Biso   1.000  O
  O15      1.0000 0.91250  0.53354  0.80740  Biso   1.000  O
  O16      1.0000 0.08750  0.46646  0.30740  Biso   1.000  O
  O17      1.0000 0.28440  0.10507  0.66550  Biso   1.000  O
  O18      1.0000 0.71560  0.89493  0.16550  Biso   1.000  O
  O19      1.0000 0.21560  0.60507  0.16550  Biso   1.000  O
  O20      1.0000 0.78440  0.39493  0.66550  Biso   1.000  O
  H5       1.0000 0.26900  0.15500  0.69900  Biso   1.000  H
  H6       1.0000 0.73100  0.84500  0.19900  Biso   1.000  H
  H7       1.0000 0.23100  0.65500  0.19900  Biso   1.000  H
  H8       1.0000 0.76900  0.34500  0.69900  Biso   1.000  H
  N1       1.0000 0.40351  0.14729  0.97480  Biso   1.000  N
  N2       1.0000 0.59649  0.85271  0.47480  Biso   1.000  N
  N3       1.0000 0.09649  0.64729  0.47480  Biso   1.000  N
  N4       1.0000 0.90351  0.35271  0.97480  Biso   1.000  N
  N5       1.0000 0.47861  0.21558  0.68340  Biso   1.000  N
  N6       1.0000 0.52139  0.78442  0.18340  Biso   1.000  N
  N7       1.0000 0.02139  0.71558  0.18340  Biso   1.000  N
  N8       1.0000 0.97861  0.28442  0.68340  Biso   1.000  N
  C1       1.0000 0.36244  0.11103  0.11580  Biso   1.000  C
  C2       1.0000 0.63756  0.88897  0.61580  Biso   1.000  C
  C3       1.0000 0.13756  0.61103  0.61580  Biso   1.000  C
  C4       1.0000 0.86244  0.38897  0.11580  Biso   1.000  C
  H9       1.0000 0.35410  0.04910  0.11920  Biso   1.000  H
  H10      1.0000 0.64590  0.95090  0.61920  Biso   1.000  H
  H11      1.0000 0.14590  0.54910  0.61920  Biso   1.000  H
  H12      1.0000 0.85410  0.45090  0.11920  Biso   1.000  H
  C5       1.0000 0.33206  0.16191  0.25620  Biso   1.000  C
  C6       1.0000 0.66794  0.83809  0.75620  Biso   1.000  C
  C7       1.0000 0.16794  0.66191  0.75620  Biso   1.000  C
  C8       1.0000 0.83206  0.33809  0.25620  Biso   1.000  C
  H13      1.0000 0.30430  0.13450  0.35420  Biso   1.000  H
  H14      1.0000 0.69570  0.86550  0.85420  Biso   1.000  H
  H15      1.0000 0.19570  0.63450  0.85420  Biso   1.000  H
  H16      1.0000 0.80430  0.36550  0.35420  Biso   1.000  H
  C9       1.0000 0.34269  0.25394  0.25230  Biso   1.000  C
  C10      1.0000 0.65731  0.74606  0.75230  Biso   1.000  C
  C11      1.0000 0.15731  0.75394  0.75230  Biso   1.000  C
  C12      1.0000 0.84269  0.24606  0.25230  Biso   1.000  C
  H17      1.0000 0.32120  0.28940  0.34590  Biso   1.000  H
  H18      1.0000 0.67880  0.71060  0.84590  Biso   1.000  H
  H19      1.0000 0.17880  0.78940  0.84590  Biso   1.000  H
  H20      1.0000 0.82120  0.21060  0.34590  Biso   1.000  H
  C13      1.0000 0.38586  0.29262  0.10670  Biso   1.000  C
  C14      1.0000 0.61414  0.70738  0.60670  Biso   1.000  C
  C15      1.0000 0.11414  0.79262  0.60670  Biso   1.000  C
  C16      1.0000 0.88586  0.20738  0.10670  Biso   1.000  C
  H21      1.0000 0.39460  0.35440  0.10020  Biso   1.000  H
  H22      1.0000 0.60540  0.64560  0.60020  Biso   1.000  H
  H23      1.0000 0.10540  0.85440  0.60020  Biso   1.000  H
  H24      1.0000 0.89460  0.14560  0.10020  Biso   1.000  H
  C17      1.0000 0.41552  0.23642  0.97120  Biso   1.000  C
  C18      1.0000 0.58448  0.76358  0.47120  Biso   1.000  C
  C19      1.0000 0.08448  0.73642  0.47120  Biso   1.000  C
  C20      1.0000 0.91552  0.26358  0.97120  Biso   1.000  C
  C21      1.0000 0.46193  0.26989  0.81060  Biso   1.000  C
  C22      1.0000 0.53807  0.73011  0.31060  Biso   1.000  C
  C23      1.0000 0.03807  0.76989  0.31060  Biso   1.000  C
  C24      1.0000 0.96193  0.23011  0.81060  Biso   1.000  C
  H25      1.0000 0.47890  0.33000  0.80190  Biso   1.000  H
  H26      1.0000 0.52110  0.67000  0.30190  Biso   1.000  H
  H27      1.0000 0.02110  0.83000  0.30190  Biso   1.000  H
  H28      1.0000 0.97890  0.17000  0.80190  Biso   1.000  H
  C25      1.0000 0.52233  0.24381  0.52310  Biso   1.000  C
  C26      1.0000 0.47767  0.75619  0.02310  Biso   1.000  C
  C27      1.0000 0.97767  0.74381  0.02310  Biso   1.000  C
  C28      1.0000 0.02233  0.25619  0.52310  Biso   1.000  C
  C29      1.0000 0.53279  0.33542  0.48350  Biso   1.000  C
  C30      1.0000 0.46721  0.66458  0.98350  Biso   1.000  C
  C31      1.0000 0.96721  0.83542  0.98350  Biso   1.000  C
  C32      1.0000 0.03279  0.16458  0.48350  Biso   1.000  C
  H29      1.0000 0.50840  0.37810  0.56100  Biso   1.000  H
  H30      1.0000 0.49160  0.62190  0.06100  Biso   1.000  H
  H31      1.0000 0.99160  0.87810  0.06100  Biso   1.000  H
  H32      1.0000 0.00840  0.12190  0.56100  Biso   1.000  H
  C33      1.0000 0.57836  0.36329  0.33230  Biso   1.000  C
  C34      1.0000 0.42164  0.63671  0.83230  Biso   1.000  C
  C35      1.0000 0.92164  0.86329  0.83230  Biso   1.000  C
  C36      1.0000 0.07836  0.13671  0.33230  Biso   1.000  C
  C37      1.0000 0.61204  0.30019  0.21100  Biso   1.000  C
  C38      1.0000 0.38796  0.69981  0.71100  Biso   1.000  C
  C39      1.0000 0.88796  0.80019  0.71100  Biso   1.000  C
  C40      1.0000 0.11204  0.19981  0.21100  Biso   1.000  C
  H33      1.0000 0.64270  0.31870  0.10820  Biso   1.000  H
  H34      1.0000 0.35730  0.68130  0.60820  Biso   1.000  H
  H35      1.0000 0.85730  0.81870  0.60820  Biso   1.000  H
  H36      1.0000 0.14270  0.18130  0.10820  Biso   1.000  H
  C41      1.0000 0.59941  0.21023  0.24520  Biso   1.000  C
  C42      1.0000 0.40059  0.78977  0.74520  Biso   1.000  C
  C43      1.0000 0.90059  0.71023  0.74520  Biso   1.000  C
  C44      1.0000 0.09941  0.28977  0.24520  Biso   1.000  C
  H37      1.0000 0.62090  0.16830  0.16280  Biso   1.000  H
  H38      1.0000 0.37910  0.83170  0.66280  Biso   1.000  H
  H39      1.0000 0.87910  0.66830  0.66280  Biso   1.000  H
  H40      1.0000 0.12090  0.33170  0.16280  Biso   1.000  H
  C45      1.0000 0.55519  0.17979  0.40040  Biso   1.000  C
  C46      1.0000 0.44481  0.82021  0.90040  Biso   1.000  C
  C47      1.0000 0.94481  0.67979  0.90040  Biso   1.000  C
  C48      1.0000 0.05519  0.32021  0.40040  Biso   1.000  C
  C49      1.0000 0.59055  0.46204  0.30170  Biso   1.000  C
  C50      1.0000 0.40945  0.53796  0.80170  Biso   1.000  C
  C51      1.0000 0.90945  0.96204  0.80170  Biso   1.000  C
  C52      1.0000 0.09055  0.03796  0.30170  Biso   1.000  C
  C53      1.0000 0.54172  0.07990  0.41600  Biso   1.000  C
  C54      1.0000 0.45828  0.92010  0.91600  Biso   1.000  C
  C55      1.0000 0.95828  0.57990  0.91600  Biso   1.000  C
  C56      1.0000 0.04172  0.42010  0.41600  Biso   1.000  C
  C57      1.0000 0.22280  0.03620  0.71510  Biso   1.000  C
  C58      1.0000 0.77720  0.96380  0.21510  Biso   1.000  C
  C59      1.0000 0.27720  0.53620  0.21510  Biso   1.000  C
  C60      1.0000 0.72280  0.46380  0.71510  Biso   1.000  C
  H41      1.0000 0.22200  0.03030  0.84340  Biso   1.000  H
  H42      1.0000 0.77800  0.96970  0.34340  Biso   1.000  H
  H43      1.0000 0.27800  0.53030  0.34340  Biso   1.000  H
  H44      1.0000 0.72200  0.46970  0.84340  Biso   1.000  H
  H45      1.0000 0.24170  0.98030  0.66230  Biso   1.000  H
  H46      1.0000 0.75830  0.01970  0.16230  Biso   1.000  H
  H47      1.0000 0.25830  0.48030  0.16230  Biso   1.000  H
  H48      1.0000 0.74170  0.51970  0.66230  Biso   1.000  H
  H49      1.0000 0.16310  0.05120  0.67320  Biso   1.000  H
  H50      1.0000 0.83690  0.94880  0.17320  Biso   1.000  H
  H51      1.0000 0.33690  0.55120  0.17320  Biso   1.000  H
  H52      1.0000 0.66310  0.44880  0.67320  Biso   1.000  H
  O21      1.0000 0.16939  0.39723  0.78480  Biso   1.000  O
  O22      1.0000 0.83061  0.60277  0.28480  Biso   1.000  O
  O23      1.0000 0.33061  0.89723  0.28480  Biso   1.000  O
  O24      1.0000 0.66939  0.10277  0.78480  Biso   1.000  O
  O25      1.0000 0.19658  0.25740  0.79240  Biso   1.000  O
  O26      1.0000 0.80342  0.74260  0.29240  Biso   1.000  O
  O27      1.0000 0.30342  0.75740  0.29240  Biso   1.000  O
  O28      1.0000 0.69658  0.24260  0.79240  Biso   1.000  O
  O29      1.0000 0.29389  0.34786  0.67220  Biso   1.000  O
  O30      1.0000 0.70611  0.65214  0.17220  Biso   1.000  O
  O31      1.0000 0.20611  0.84786  0.17220  Biso   1.000  O
  O32      1.0000 0.79389  0.15214  0.67220  Biso   1.000  O
  N9       1.0000 0.21956  0.33448  0.75250  Biso   1.000  N
  N10      1.0000 0.78044  0.66552  0.25250  Biso   1.000  N
  N11      1.0000 0.28044  0.83448  0.25250  Biso   1.000  N
  N12      1.0000 0.71956  0.16552  0.75250  Biso   1.000  N
