data_image0
_cell_length_a       23.44
_cell_length_b       11.6384
_cell_length_c       9.6917
_cell_angle_alpha    90
_cell_angle_beta     90
_cell_angle_gamma    90

_symmetry_space_group_name_H-M    "P 1"
_symmetry_int_tables_number       1

loop_
  _symmetry_equiv_pos_as_xyz
  'x, y, z'

loop_
  _atom_site_label
  _atom_site_occupancy
  _atom_site_fract_x
  _atom_site_fract_y
  _atom_site_fract_z
  _atom_site_thermal_displace_type
  _atom_site_B_iso_or_equiv
  _atom_site_type_symbol
  Cu1      1.0000 0.19940  0.48601  0.92730  Biso   1.000  Cu
  Cu2      1.0000 0.80060  0.51399  0.42730  Biso   1.000  Cu
  Cu3      1.0000 0.69940  0.01399  0.92730  Biso   1.000  Cu
  Cu4      1.0000 0.30060  0.98601  0.42730  Biso   1.000  Cu
  Cu5      1.0000 0.07059  0.30562  0.43000  Biso   1.000  Cu
  Cu6      1.0000 0.92941  0.69438  0.93000  Biso   1.000  Cu
  Cu7      1.0000 0.57059  0.19438  0.43000  Biso   1.000  Cu
  Cu8      1.0000 0.42941  0.80562  0.93000  Biso   1.000  Cu
  Cl1      1.0000 0.93680  0.26830  0.06320  Biso   1.000  Cl
  Cl2      1.0000 0.06320  0.73170  0.56320  Biso   1.000  Cl
  Cl3      1.0000 0.43680  0.23170  0.06320  Biso   1.000  Cl
  Cl4      1.0000 0.56320  0.76830  0.56320  Biso   1.000  Cl
  Cl5      1.0000 0.82970  0.98410  0.55260  Biso   1.000  Cl
  Cl6      1.0000 0.17030  0.01590  0.05260  Biso   1.000  Cl
  Cl7      1.0000 0.32970  0.51590  0.55260  Biso   1.000  Cl
  Cl8      1.0000 0.67030  0.48410  0.05260  Biso   1.000  Cl
  C1       1.0000 0.32070  0.47710  0.00700  Biso   1.000  C
  C2       1.0000 0.67930  0.52290  0.50700  Biso   1.000  C
  C3       1.0000 0.82070  0.02290  0.00700  Biso   1.000  C
  C4       1.0000 0.17930  0.97710  0.50700  Biso   1.000  C
  H1       1.0000 0.35100  0.43170  0.04800  Biso   1.000  H
  H2       1.0000 0.64900  0.56830  0.54800  Biso   1.000  H
  H3       1.0000 0.85100  0.06830  0.04800  Biso   1.000  H
  H4       1.0000 0.14900  0.93170  0.54800  Biso   1.000  H
  H5       1.0000 0.33830  0.53080  0.94320  Biso   1.000  H
  H6       1.0000 0.66170  0.46920  0.44320  Biso   1.000  H
  H7       1.0000 0.83830  0.96920  0.94320  Biso   1.000  H
  H8       1.0000 0.16170  0.03080  0.44320  Biso   1.000  H
  C5       1.0000 0.29300  0.53990  0.11220  Biso   1.000  C
  C6       1.0000 0.70700  0.46010  0.61220  Biso   1.000  C
  C7       1.0000 0.79300  0.96010  0.11220  Biso   1.000  C
  C8       1.0000 0.20700  0.03990  0.61220  Biso   1.000  C
  H9       1.0000 0.31900  0.59590  0.15160  Biso   1.000  H
  H10      1.0000 0.68100  0.40410  0.65160  Biso   1.000  H
  H11      1.0000 0.81900  0.90410  0.15160  Biso   1.000  H
  H12      1.0000 0.18100  0.09590  0.65160  Biso   1.000  H
  H13      1.0000 0.28070  0.48840  0.18500  Biso   1.000  H
  H14      1.0000 0.71930  0.51160  0.68500  Biso   1.000  H
  H15      1.0000 0.78070  0.01160  0.18500  Biso   1.000  H
  H16      1.0000 0.21930  0.98840  0.68500  Biso   1.000  H
  C9       1.0000 0.21460  0.72440  0.86150  Biso   1.000  C
  C10      1.0000 0.78540  0.27560  0.36150  Biso   1.000  C
  C11      1.0000 0.71460  0.77560  0.86150  Biso   1.000  C
  C12      1.0000 0.28540  0.22440  0.36150  Biso   1.000  C
  H17      1.0000 0.17900  0.74990  0.90200  Biso   1.000  H
  H18      1.0000 0.82100  0.25010  0.40200  Biso   1.000  H
  H19      1.0000 0.67900  0.75010  0.90200  Biso   1.000  H
  H20      1.0000 0.32100  0.24990  0.40200  Biso   1.000  H
  H21      1.0000 0.22810  0.78340  0.79870  Biso   1.000  H
  H22      1.0000 0.77190  0.21660  0.29870  Biso   1.000  H
  H23      1.0000 0.72810  0.71660  0.79870  Biso   1.000  H
  H24      1.0000 0.27190  0.28340  0.29870  Biso   1.000  H
  C13      1.0000 0.25850  0.70280  0.97320  Biso   1.000  C
  C14      1.0000 0.74150  0.29720  0.47320  Biso   1.000  C
  C15      1.0000 0.75850  0.79720  0.97320  Biso   1.000  C
  C16      1.0000 0.24150  0.20280  0.47320  Biso   1.000  C
  H25      1.0000 0.29590  0.69230  0.93220  Biso   1.000  H
  H26      1.0000 0.70410  0.30770  0.43220  Biso   1.000  H
  H27      1.0000 0.79590  0.80770  0.93220  Biso   1.000  H
  H28      1.0000 0.20410  0.19230  0.43220  Biso   1.000  H
  H29      1.0000 0.26020  0.76810  0.03520  Biso   1.000  H
  H30      1.0000 0.73980  0.23190  0.53520  Biso   1.000  H
  H31      1.0000 0.76020  0.73190  0.03520  Biso   1.000  H
  H32      1.0000 0.23980  0.26810  0.53520  Biso   1.000  H
  C17      1.0000 0.20250  0.63180  0.16410  Biso   1.000  C
  C18      1.0000 0.79750  0.36820  0.66410  Biso   1.000  C
  C19      1.0000 0.70250  0.86820  0.16410  Biso   1.000  C
  C20      1.0000 0.29750  0.13180  0.66410  Biso   1.000  C
  H33      1.0000 0.22390  0.66280  0.24130  Biso   1.000  H
  H34      1.0000 0.77610  0.33720  0.74130  Biso   1.000  H
  H35      1.0000 0.72390  0.83720  0.24130  Biso   1.000  H
  H36      1.0000 0.27610  0.16280  0.74130  Biso   1.000  H
  H37      1.0000 0.17570  0.68970  0.13300  Biso   1.000  H
  H38      1.0000 0.82430  0.31030  0.63300  Biso   1.000  H
  H39      1.0000 0.67570  0.81030  0.13300  Biso   1.000  H
  H40      1.0000 0.32430  0.18970  0.63300  Biso   1.000  H
  C21      1.0000 0.17180  0.52690  0.20670  Biso   1.000  C
  C22      1.0000 0.82820  0.47310  0.70670  Biso   1.000  C
  C23      1.0000 0.67180  0.97310  0.20670  Biso   1.000  C
  C24      1.0000 0.32820  0.02690  0.70670  Biso   1.000  C
  C25      1.0000 0.14530  0.49300  0.32210  Biso   1.000  C
  C26      1.0000 0.85470  0.50700  0.82210  Biso   1.000  C
  C27      1.0000 0.64530  0.00700  0.32210  Biso   1.000  C
  C28      1.0000 0.35470  0.99300  0.82210  Biso   1.000  C
  H41      1.0000 0.14220  0.53640  0.40230  Biso   1.000  H
  H42      1.0000 0.85780  0.46360  0.90230  Biso   1.000  H
  H43      1.0000 0.64220  0.96360  0.40230  Biso   1.000  H
  H44      1.0000 0.35780  0.03640  0.90230  Biso   1.000  H
  C29      1.0000 0.13620  0.35840  0.17600  Biso   1.000  C
  C30      1.0000 0.86380  0.64160  0.67600  Biso   1.000  C
  C31      1.0000 0.63620  0.14160  0.17600  Biso   1.000  C
  C32      1.0000 0.36380  0.85840  0.67600  Biso   1.000  C
  H45      1.0000 0.12630  0.28900  0.13500  Biso   1.000  H
  H46      1.0000 0.87370  0.71100  0.63500  Biso   1.000  H
  H47      1.0000 0.62630  0.21100  0.13500  Biso   1.000  H
  H48      1.0000 0.37370  0.78900  0.63500  Biso   1.000  H
  C33      1.0000 0.15180  0.39670  0.66650  Biso   1.000  C
  C34      1.0000 0.84820  0.60330  0.16650  Biso   1.000  C
  C35      1.0000 0.65180  0.10330  0.66650  Biso   1.000  C
  C36      1.0000 0.34820  0.89670  0.16650  Biso   1.000  C
  H49      1.0000 0.17580  0.44390  0.61550  Biso   1.000  H
  H50      1.0000 0.82420  0.55610  0.11550  Biso   1.000  H
  H51      1.0000 0.67580  0.05610  0.61550  Biso   1.000  H
  H52      1.0000 0.32420  0.94390  0.11550  Biso   1.000  H
  C37      1.0000 0.11140  0.31680  0.83190  Biso   1.000  C
  C38      1.0000 0.88860  0.68320  0.33190  Biso   1.000  C
  C39      1.0000 0.61140  0.18320  0.83190  Biso   1.000  C
  C40      1.0000 0.38860  0.81680  0.33190  Biso   1.000  C
  H53      1.0000 0.10050  0.29570  0.92060  Biso   1.000  H
  H54      1.0000 0.89950  0.70430  0.42060  Biso   1.000  H
  H55      1.0000 0.60050  0.20430  0.92060  Biso   1.000  H
  H56      1.0000 0.39950  0.79570  0.42060  Biso   1.000  H
  C41      1.0000 0.08770  0.27640  0.71950  Biso   1.000  C
  C42      1.0000 0.91230  0.72360  0.21950  Biso   1.000  C
  C43      1.0000 0.58770  0.22360  0.71950  Biso   1.000  C
  C44      1.0000 0.41230  0.77640  0.21950  Biso   1.000  C
  C45      1.0000 0.04210  0.19150  0.68580  Biso   1.000  C
  C46      1.0000 0.95790  0.80850  0.18580  Biso   1.000  C
  C47      1.0000 0.54210  0.30850  0.68580  Biso   1.000  C
  C48      1.0000 0.45790  0.69150  0.18580  Biso   1.000  C
  H57      1.0000 0.01570  0.18490  0.76250  Biso   1.000  H
  H58      1.0000 0.98430  0.81510  0.26250  Biso   1.000  H
  H59      1.0000 0.51570  0.31510  0.76250  Biso   1.000  H
  H60      1.0000 0.48430  0.68490  0.26250  Biso   1.000  H
  H61      1.0000 0.05880  0.11660  0.66910  Biso   1.000  H
  H62      1.0000 0.94120  0.88340  0.16910  Biso   1.000  H
  H63      1.0000 0.55880  0.38340  0.66910  Biso   1.000  H
  H64      1.0000 0.44120  0.61660  0.16910  Biso   1.000  H
  C49      1.0000 0.96940  0.32430  0.59590  Biso   1.000  C
  C50      1.0000 0.03060  0.67570  0.09590  Biso   1.000  C
  C51      1.0000 0.46940  0.17570  0.59590  Biso   1.000  C
  C52      1.0000 0.53060  0.82430  0.09590  Biso   1.000  C
  H65      1.0000 0.93580  0.28910  0.63630  Biso   1.000  H
  H66      1.0000 0.06420  0.71090  0.13630  Biso   1.000  H
  H67      1.0000 0.43580  0.21090  0.63630  Biso   1.000  H
  H68      1.0000 0.56420  0.78910  0.13630  Biso   1.000  H
  H69      1.0000 0.98650  0.37340  0.66540  Biso   1.000  H
  H70      1.0000 0.01350  0.62660  0.16540  Biso   1.000  H
  H71      1.0000 0.48650  0.12660  0.66540  Biso   1.000  H
  H72      1.0000 0.51350  0.87340  0.16540  Biso   1.000  H
  C53      1.0000 0.95200  0.39470  0.47930  Biso   1.000  C
  C54      1.0000 0.04800  0.60530  0.97930  Biso   1.000  C
  C55      1.0000 0.45200  0.10530  0.47930  Biso   1.000  C
  C56      1.0000 0.54800  0.89470  0.97930  Biso   1.000  C
  H73      1.0000 0.93130  0.46180  0.51140  Biso   1.000  H
  H74      1.0000 0.06870  0.53820  0.01140  Biso   1.000  H
  H75      1.0000 0.43130  0.03820  0.51140  Biso   1.000  H
  H76      1.0000 0.56870  0.96180  0.01140  Biso   1.000  H
  H77      1.0000 0.92710  0.35110  0.41880  Biso   1.000  H
  H78      1.0000 0.07290  0.64890  0.91880  Biso   1.000  H
  H79      1.0000 0.42710  0.14890  0.41880  Biso   1.000  H
  H80      1.0000 0.57290  0.85110  0.91880  Biso   1.000  H
  C57      1.0000 0.98330  0.13420  0.48840  Biso   1.000  C
  C58      1.0000 0.01670  0.86580  0.98840  Biso   1.000  C
  C59      1.0000 0.48330  0.36580  0.48840  Biso   1.000  C
  C60      1.0000 0.51670  0.63420  0.98840  Biso   1.000  C
  H81      1.0000 0.95070  0.16080  0.43570  Biso   1.000  H
  H82      1.0000 0.04930  0.83920  0.93570  Biso   1.000  H
  H83      1.0000 0.45070  0.33920  0.43570  Biso   1.000  H
  H84      1.0000 0.54930  0.66080  0.93570  Biso   1.000  H
  H85      1.0000 0.96990  0.07960  0.55660  Biso   1.000  H
  H86      1.0000 0.03010  0.92040  0.05660  Biso   1.000  H
  H87      1.0000 0.46990  0.42040  0.55660  Biso   1.000  H
  H88      1.0000 0.53010  0.57960  0.05660  Biso   1.000  H
  C61      1.0000 0.02470  0.07730  0.39500  Biso   1.000  C
  C62      1.0000 0.97530  0.92270  0.89500  Biso   1.000  C
  C63      1.0000 0.52470  0.42270  0.39500  Biso   1.000  C
  C64      1.0000 0.47530  0.57730  0.89500  Biso   1.000  C
  H89      1.0000 0.05280  0.03590  0.44880  Biso   1.000  H
  H90      1.0000 0.94720  0.96410  0.94880  Biso   1.000  H
  H91      1.0000 0.55280  0.46410  0.44880  Biso   1.000  H
  H92      1.0000 0.44720  0.53590  0.94880  Biso   1.000  H
  H93      1.0000 0.00500  0.02270  0.33630  Biso   1.000  H
  H94      1.0000 0.99500  0.97730  0.83630  Biso   1.000  H
  H95      1.0000 0.50500  0.47730  0.33630  Biso   1.000  H
  H96      1.0000 0.49500  0.52270  0.83630  Biso   1.000  H
  N1       1.0000 0.12320  0.38420  0.30430  Biso   1.000  N
  N2       1.0000 0.87680  0.61580  0.80430  Biso   1.000  N
  N3       1.0000 0.62320  0.11580  0.30430  Biso   1.000  N
  N4       1.0000 0.37680  0.88420  0.80430  Biso   1.000  N
  N5       1.0000 0.16520  0.44130  0.10940  Biso   1.000  N
  N6       1.0000 0.83480  0.55870  0.60940  Biso   1.000  N
  N7       1.0000 0.66520  0.05870  0.10940  Biso   1.000  N
  N8       1.0000 0.33480  0.94130  0.60940  Biso   1.000  N
  N9       1.0000 0.28180  0.39810  0.92700  Biso   1.000  N
  N10      1.0000 0.71820  0.60190  0.42700  Biso   1.000  N
  N11      1.0000 0.78180  0.10190  0.92700  Biso   1.000  N
  N12      1.0000 0.21820  0.89810  0.42700  Biso   1.000  N
  H97      1.0000 0.27920  0.32900  0.96810  Biso   1.000  H
  H98      1.0000 0.72080  0.67100  0.46810  Biso   1.000  H
  H99      1.0000 0.77920  0.17100  0.96810  Biso   1.000  H
  H100     1.0000 0.22080  0.82900  0.46810  Biso   1.000  H
  H101     1.0000 0.29460  0.38820  0.84010  Biso   1.000  H
  H102     1.0000 0.70540  0.61180  0.34010  Biso   1.000  H
  H103     1.0000 0.79460  0.11180  0.84010  Biso   1.000  H
  H104     1.0000 0.20540  0.88820  0.34010  Biso   1.000  H
  N13      1.0000 0.24220  0.59980  0.04940  Biso   1.000  N
  N14      1.0000 0.75780  0.40020  0.54940  Biso   1.000  N
  N15      1.0000 0.74220  0.90020  0.04940  Biso   1.000  N
  N16      1.0000 0.25780  0.09980  0.54940  Biso   1.000  N
  N17      1.0000 0.20630  0.61730  0.78820  Biso   1.000  N
  N18      1.0000 0.79370  0.38270  0.28820  Biso   1.000  N
  N19      1.0000 0.70630  0.88270  0.78820  Biso   1.000  N
  N20      1.0000 0.29370  0.11730  0.28820  Biso   1.000  N
  H105     1.0000 0.23600  0.60440  0.73150  Biso   1.000  H
  H106     1.0000 0.76400  0.39560  0.23150  Biso   1.000  H
  H107     1.0000 0.73600  0.89560  0.73150  Biso   1.000  H
  H108     1.0000 0.26400  0.10440  0.23150  Biso   1.000  H
  H109     1.0000 0.17440  0.62140  0.73680  Biso   1.000  H
  H110     1.0000 0.82560  0.37860  0.23680  Biso   1.000  H
  H111     1.0000 0.67440  0.87860  0.73680  Biso   1.000  H
  H112     1.0000 0.32560  0.12140  0.23680  Biso   1.000  H
  N21      1.0000 0.15310  0.39190  0.80470  Biso   1.000  N
  N22      1.0000 0.84690  0.60810  0.30470  Biso   1.000  N
  N23      1.0000 0.65310  0.10810  0.80470  Biso   1.000  N
  N24      1.0000 0.34690  0.89190  0.30470  Biso   1.000  N
  N25      1.0000 0.11310  0.32810  0.60850  Biso   1.000  N
  N26      1.0000 0.88690  0.67190  0.10850  Biso   1.000  N
  N27      1.0000 0.61310  0.17190  0.60850  Biso   1.000  N
  N28      1.0000 0.38690  0.82810  0.10850  Biso   1.000  N
  N29      1.0000 0.01080  0.23250  0.55810  Biso   1.000  N
  N30      1.0000 0.98920  0.76750  0.05810  Biso   1.000  N
  N31      1.0000 0.51080  0.26750  0.55810  Biso   1.000  N
  N32      1.0000 0.48920  0.73250  0.05810  Biso   1.000  N
  N33      1.0000 0.00390  0.43020  0.40430  Biso   1.000  N
  N34      1.0000 0.99610  0.56980  0.90430  Biso   1.000  N
  N35      1.0000 0.50390  0.06980  0.40430  Biso   1.000  N
  N36      1.0000 0.49610  0.93020  0.90430  Biso   1.000  N
  H113     1.0000 0.01580  0.49880  0.43630  Biso   1.000  H
  H114     1.0000 0.98420  0.50120  0.93630  Biso   1.000  H
  H115     1.0000 0.51580  0.00120  0.43630  Biso   1.000  H
  H116     1.0000 0.48420  0.99880  0.93630  Biso   1.000  H
  H117     1.0000 0.99580  0.43810  0.31400  Biso   1.000  H
  H118     1.0000 0.00420  0.56190  0.81400  Biso   1.000  H
  H119     1.0000 0.49580  0.06190  0.31400  Biso   1.000  H
  H120     1.0000 0.50420  0.93810  0.81400  Biso   1.000  H
  N37      1.0000 0.05220  0.16230  0.31210  Biso   1.000  N
  N38      1.0000 0.94780  0.83770  0.81210  Biso   1.000  N
  N39      1.0000 0.55220  0.33770  0.31210  Biso   1.000  N
  N40      1.0000 0.44780  0.66230  0.81210  Biso   1.000  N
  H121     1.0000 0.02930  0.18220  0.24150  Biso   1.000  H
  H122     1.0000 0.97070  0.81780  0.74150  Biso   1.000  H
  H123     1.0000 0.52930  0.31780  0.24150  Biso   1.000  H
  H124     1.0000 0.47070  0.68220  0.74150  Biso   1.000  H
  H125     1.0000 0.08470  0.13330  0.27680  Biso   1.000  H
  H126     1.0000 0.91530  0.86670  0.77680  Biso   1.000  H
  H127     1.0000 0.58470  0.36670  0.27680  Biso   1.000  H
  H128     1.0000 0.41530  0.63330  0.77680  Biso   1.000  H
  O1       1.0000 0.94820  0.17200  0.12500  Biso   1.000  O
  O2       1.0000 0.05180  0.82800  0.62500  Biso   1.000  O
  O3       1.0000 0.44820  0.32800  0.12500  Biso   1.000  O
  O4       1.0000 0.55180  0.67200  0.62500  Biso   1.000  O
  O5       1.0000 0.89400  0.29900  0.11800  Biso   1.000  O
  O6       1.0000 0.10600  0.70100  0.61800  Biso   1.000  O
  O7       1.0000 0.39400  0.20100  0.11800  Biso   1.000  O
  O8       1.0000 0.60600  0.79900  0.61800  Biso   1.000  O
  O9       1.0000 0.92290  0.25300  0.93000  Biso   1.000  O
  O10      1.0000 0.07710  0.74700  0.43000  Biso   1.000  O
  O11      1.0000 0.42290  0.24700  0.93000  Biso   1.000  O
  O12      1.0000 0.57710  0.75300  0.43000  Biso   1.000  O
  O13      1.0000 0.97750  0.34650  0.08600  Biso   1.000  O
  O14      1.0000 0.02250  0.65350  0.58600  Biso   1.000  O
  O15      1.0000 0.47750  0.15350  0.08600  Biso   1.000  O
  O16      1.0000 0.52250  0.84650  0.58600  Biso   1.000  O
  O17      1.0000 0.77980  0.95700  0.50400  Biso   1.000  O
  O18      1.0000 0.22020  0.04300  0.00400  Biso   1.000  O
  O19      1.0000 0.27980  0.54300  0.50400  Biso   1.000  O
  O20      1.0000 0.72020  0.45700  0.00400  Biso   1.000  O
  O21      1.0000 0.86680  0.96720  0.46600  Biso   1.000  O
  O22      1.0000 0.13320  0.03280  0.96600  Biso   1.000  O
  O23      1.0000 0.36680  0.53280  0.46600  Biso   1.000  O
  O24      1.0000 0.63320  0.46720  0.96600  Biso   1.000  O
  O25      1.0000 0.82990  0.08620  0.61800  Biso   1.000  O
  O26      1.0000 0.17010  0.91380  0.11800  Biso   1.000  O
  O27      1.0000 0.32990  0.41380  0.61800  Biso   1.000  O
  O28      1.0000 0.67010  0.58620  0.11800  Biso   1.000  O
  O29      1.0000 0.83870  0.91380  0.65800  Biso   1.000  O
  O30      1.0000 0.16130  0.08620  0.15800  Biso   1.000  O
  O31      1.0000 0.33870  0.58620  0.65800  Biso   1.000  O
  O32      1.0000 0.66130  0.41380  0.15800  Biso   1.000  O
