data_image0
_cell_length_a       15.953
_cell_length_b       5.385
_cell_length_c       28.322
_cell_angle_alpha    90
_cell_angle_beta     120.22
_cell_angle_gamma    90

_symmetry_space_group_name_H-M    "P 1"
_symmetry_int_tables_number       1

loop_
  _symmetry_equiv_pos_as_xyz
  'x, y, z'

loop_
  _atom_site_label
  _atom_site_occupancy
  _atom_site_fract_x
  _atom_site_fract_y
  _atom_site_fract_z
  _atom_site_thermal_displace_type
  _atom_site_B_iso_or_equiv
  _atom_site_type_symbol
  O1       1.0000 0.14270  0.16600  0.03970  Biso   1.000  O
  O2       1.0000 0.85730  0.66600  0.46030  Biso   1.000  O
  O3       1.0000 0.85730  0.83400  0.96030  Biso   1.000  O
  O4       1.0000 0.14270  0.33400  0.53970  Biso   1.000  O
  O5       1.0000 0.12790  0.81000  0.07470  Biso   1.000  O
  O6       1.0000 0.87210  0.31000  0.42530  Biso   1.000  O
  O7       1.0000 0.87210  0.19000  0.92530  Biso   1.000  O
  O8       1.0000 0.12790  0.69000  0.57470  Biso   1.000  O
  O9       1.0000 0.97300  0.36900  0.02770  Biso   1.000  O
  O10      1.0000 0.02700  0.86900  0.47230  Biso   1.000  O
  O11      1.0000 0.02700  0.63100  0.97230  Biso   1.000  O
  O12      1.0000 0.97300  0.13100  0.52770  Biso   1.000  O
  O13      1.0000 0.03940  0.98900  0.93490  Biso   1.000  O
  O14      1.0000 0.96060  0.48900  0.56510  Biso   1.000  O
  O15      1.0000 0.96060  0.01100  0.06510  Biso   1.000  O
  O16      1.0000 0.03940  0.51100  0.43490  Biso   1.000  O
  C1       1.0000 0.17560  0.98600  0.07260  Biso   1.000  C
  C2       1.0000 0.82440  0.48600  0.42740  Biso   1.000  C
  C3       1.0000 0.82440  0.01400  0.92740  Biso   1.000  C
  C4       1.0000 0.17560  0.51400  0.57260  Biso   1.000  C
  C5       1.0000 0.28490  0.98800  0.11110  Biso   1.000  C
  C6       1.0000 0.71510  0.48800  0.38890  Biso   1.000  C
  C7       1.0000 0.71510  0.01200  0.88890  Biso   1.000  C
  C8       1.0000 0.28490  0.51200  0.61110  Biso   1.000  C
  C9       1.0000 0.31950  0.93100  0.17020  Biso   1.000  C
  C10      1.0000 0.68050  0.43100  0.32980  Biso   1.000  C
  C11      1.0000 0.68050  0.06900  0.82980  Biso   1.000  C
  C12      1.0000 0.31950  0.56900  0.67020  Biso   1.000  C
  C13      1.0000 0.37710  0.72600  0.19700  Biso   1.000  C
  C14      1.0000 0.62290  0.22600  0.30300  Biso   1.000  C
  C15      1.0000 0.62290  0.27400  0.80300  Biso   1.000  C
  C16      1.0000 0.37710  0.77400  0.69700  Biso   1.000  C
  C17      1.0000 0.41440  0.69100  0.25360  Biso   1.000  C
  C18      1.0000 0.58560  0.19100  0.24640  Biso   1.000  C
  C19      1.0000 0.58560  0.30900  0.74640  Biso   1.000  C
  C20      1.0000 0.41440  0.80900  0.75360  Biso   1.000  C
  C21      1.0000 0.39750  0.87100  0.28300  Biso   1.000  C
  C22      1.0000 0.60250  0.37100  0.21700  Biso   1.000  C
  C23      1.0000 0.60250  0.12900  0.71700  Biso   1.000  C
  C24      1.0000 0.39750  0.62900  0.78300  Biso   1.000  C
  C25      1.0000 0.33840  0.06900  0.25500  Biso   1.000  C
  C26      1.0000 0.66160  0.56900  0.24500  Biso   1.000  C
  C27      1.0000 0.66160  0.93100  0.74500  Biso   1.000  C
  C28      1.0000 0.33840  0.43100  0.75500  Biso   1.000  C
  C29      1.0000 0.30020  0.10100  0.19790  Biso   1.000  C
  C30      1.0000 0.69980  0.60100  0.30210  Biso   1.000  C
  C31      1.0000 0.69980  0.89900  0.80210  Biso   1.000  C
  C32      1.0000 0.30020  0.39900  0.69790  Biso   1.000  C
  C33      1.0000 0.33290  0.83600  0.08630  Biso   1.000  C
  C34      1.0000 0.66710  0.33600  0.41370  Biso   1.000  C
  C35      1.0000 0.66710  0.16400  0.91370  Biso   1.000  C
  C36      1.0000 0.33290  0.66400  0.58630  Biso   1.000  C
  C37      1.0000 0.29020  0.60700  0.05760  Biso   1.000  C
  C38      1.0000 0.70980  0.10700  0.44240  Biso   1.000  C
  C39      1.0000 0.70980  0.39300  0.94240  Biso   1.000  C
  C40      1.0000 0.29020  0.89300  0.55760  Biso   1.000  C
  C41      1.0000 0.33120  0.47400  0.03670  Biso   1.000  C
  C42      1.0000 0.66880  0.97400  0.46330  Biso   1.000  C
  C43      1.0000 0.66880  0.52600  0.96330  Biso   1.000  C
  C44      1.0000 0.33120  0.02600  0.53670  Biso   1.000  C
  C45      1.0000 0.42470  0.53300  0.04510  Biso   1.000  C
  C46      1.0000 0.57530  0.03300  0.45490  Biso   1.000  C
  C47      1.0000 0.57530  0.46700  0.95490  Biso   1.000  C
  C48      1.0000 0.42470  0.96700  0.54510  Biso   1.000  C
  C49      1.0000 0.46770  0.74500  0.07310  Biso   1.000  C
  C50      1.0000 0.53230  0.24500  0.42690  Biso   1.000  C
  C51      1.0000 0.53230  0.25500  0.92690  Biso   1.000  C
  C52      1.0000 0.46770  0.75500  0.57310  Biso   1.000  C
  C53      1.0000 0.42300  0.89000  0.09420  Biso   1.000  C
  C54      1.0000 0.57700  0.39000  0.40580  Biso   1.000  C
  C55      1.0000 0.57700  0.11000  0.90580  Biso   1.000  C
  C56      1.0000 0.42300  0.61000  0.59420  Biso   1.000  C
  C57      1.0000 0.95450  0.26000  0.06190  Biso   1.000  C
  C58      1.0000 0.04550  0.76000  0.43810  Biso   1.000  C
  C59      1.0000 0.04550  0.74000  0.93810  Biso   1.000  C
  C60      1.0000 0.95450  0.24000  0.56190  Biso   1.000  C
  C61      1.0000 0.92680  0.38200  0.09700  Biso   1.000  C
  C62      1.0000 0.07320  0.88200  0.40300  Biso   1.000  C
  C63      1.0000 0.07320  0.61800  0.90300  Biso   1.000  C
  C64      1.0000 0.92680  0.11800  0.59700  Biso   1.000  C
  C65      1.0000 0.82990  0.30900  0.09280  Biso   1.000  C
  C66      1.0000 0.17010  0.80900  0.40720  Biso   1.000  C
  C67      1.0000 0.17010  0.69100  0.90720  Biso   1.000  C
  C68      1.0000 0.82990  0.19100  0.59280  Biso   1.000  C
  C69      1.0000 0.79580  0.46800  0.11820  Biso   1.000  C
  C70      1.0000 0.20420  0.96800  0.38180  Biso   1.000  C
  C71      1.0000 0.20420  0.53200  0.88180  Biso   1.000  C
  C72      1.0000 0.79580  0.03200  0.61820  Biso   1.000  C
  C73      1.0000 0.70940  0.41500  0.11820  Biso   1.000  C
  C74      1.0000 0.29060  0.91500  0.38180  Biso   1.000  C
  C75      1.0000 0.29060  0.58500  0.88180  Biso   1.000  C
  C76      1.0000 0.70940  0.08500  0.61820  Biso   1.000  C
  C77      1.0000 0.65990  0.20800  0.09280  Biso   1.000  C
  C78      1.0000 0.34010  0.70800  0.40720  Biso   1.000  C
  C79      1.0000 0.34010  0.79200  0.90720  Biso   1.000  C
  C80      1.0000 0.65990  0.29200  0.59280  Biso   1.000  C
  C81      1.0000 0.69120  0.05600  0.06690  Biso   1.000  C
  C82      1.0000 0.30880  0.55600  0.43310  Biso   1.000  C
  C83      1.0000 0.30880  0.94400  0.93310  Biso   1.000  C
  C84      1.0000 0.69120  0.44400  0.56690  Biso   1.000  C
  C85      1.0000 0.77780  0.10200  0.06710  Biso   1.000  C
  C86      1.0000 0.22220  0.60200  0.43290  Biso   1.000  C
  C87      1.0000 0.22220  0.89800  0.93290  Biso   1.000  C
  C88      1.0000 0.77780  0.39800  0.56710  Biso   1.000  C
  C89      1.0000 0.00660  0.37400  0.15630  Biso   1.000  C
  C90      1.0000 0.99340  0.87400  0.34370  Biso   1.000  C
  C91      1.0000 0.99340  0.62600  0.84370  Biso   1.000  C
  C92      1.0000 0.00660  0.12600  0.65630  Biso   1.000  C
  C93      1.0000 0.07470  0.56700  0.17550  Biso   1.000  C
  C94      1.0000 0.92530  0.06700  0.32450  Biso   1.000  C
  C95      1.0000 0.92530  0.43300  0.82450  Biso   1.000  C
  C96      1.0000 0.07470  0.93300  0.67550  Biso   1.000  C
  C97      1.0000 0.14750  0.57600  0.23080  Biso   1.000  C
  C98      1.0000 0.85250  0.07600  0.26920  Biso   1.000  C
  C99      1.0000 0.85250  0.42400  0.76920  Biso   1.000  C
  C100     1.0000 0.14750  0.92400  0.73080  Biso   1.000  C
  C101     1.0000 0.15130  0.39900  0.26570  Biso   1.000  C
  C102     1.0000 0.84870  0.89900  0.23430  Biso   1.000  C
  C103     1.0000 0.84870  0.60100  0.73430  Biso   1.000  C
  C104     1.0000 0.15130  0.10100  0.76570  Biso   1.000  C
  C105     1.0000 0.08370  0.19500  0.24460  Biso   1.000  C
  C106     1.0000 0.91630  0.69500  0.25540  Biso   1.000  C
  C107     1.0000 0.91630  0.80500  0.75540  Biso   1.000  C
  C108     1.0000 0.08370  0.30500  0.74460  Biso   1.000  C
  C109     1.0000 0.01450  0.19300  0.19120  Biso   1.000  C
  C110     1.0000 0.98550  0.69300  0.30880  Biso   1.000  C
  C111     1.0000 0.98550  0.80700  0.80880  Biso   1.000  C
  C112     1.0000 0.01450  0.30700  0.69120  Biso   1.000  C
  Cu1      1.0000 0.00962  0.20690  0.97975  Biso   1.000  Cu
  Cu2      1.0000 0.99038  0.70690  0.52025  Biso   1.000  Cu
  Cu3      1.0000 0.99038  0.79310  0.02025  Biso   1.000  Cu
  Cu4      1.0000 0.00962  0.29310  0.47975  Biso   1.000  Cu
  H1       1.0000 0.30550  0.16300  0.11090  Biso   1.000  H
  H2       1.0000 0.69450  0.66300  0.38910  Biso   1.000  H
  H3       1.0000 0.69450  0.83700  0.88910  Biso   1.000  H
  H4       1.0000 0.30550  0.33700  0.61090  Biso   1.000  H
  H5       1.0000 0.39160  0.60900  0.17700  Biso   1.000  H
  H6       1.0000 0.60840  0.10900  0.32300  Biso   1.000  H
  H7       1.0000 0.60840  0.39100  0.82300  Biso   1.000  H
  H8       1.0000 0.39160  0.89100  0.67700  Biso   1.000  H
  H9       1.0000 0.45050  0.54600  0.27130  Biso   1.000  H
  H10      1.0000 0.54950  0.04600  0.22870  Biso   1.000  H
  H11      1.0000 0.54950  0.45400  0.72870  Biso   1.000  H
  H12      1.0000 0.45050  0.95400  0.77130  Biso   1.000  H
  H13      1.0000 0.42600  0.85800  0.32150  Biso   1.000  H
  H14      1.0000 0.57400  0.35800  0.17850  Biso   1.000  H
  H15      1.0000 0.57400  0.14200  0.67850  Biso   1.000  H
  H16      1.0000 0.42600  0.64200  0.82150  Biso   1.000  H
  H17      1.0000 0.32270  0.18700  0.27430  Biso   1.000  H
  H18      1.0000 0.67730  0.68700  0.22570  Biso   1.000  H
  H19      1.0000 0.67730  0.81300  0.72570  Biso   1.000  H
  H20      1.0000 0.32270  0.31300  0.77430  Biso   1.000  H
  H21      1.0000 0.26140  0.24200  0.17960  Biso   1.000  H
  H22      1.0000 0.73860  0.74200  0.32040  Biso   1.000  H
  H23      1.0000 0.73860  0.75800  0.82040  Biso   1.000  H
  H24      1.0000 0.26140  0.25800  0.67960  Biso   1.000  H
  H25      1.0000 0.23050  0.55300  0.05390  Biso   1.000  H
  H26      1.0000 0.76950  0.05300  0.44610  Biso   1.000  H
  H27      1.0000 0.76950  0.44700  0.94610  Biso   1.000  H
  H28      1.0000 0.23050  0.94700  0.55390  Biso   1.000  H
  H29      1.0000 0.29780  0.33300  0.01520  Biso   1.000  H
  H30      1.0000 0.70220  0.83300  0.48480  Biso   1.000  H
  H31      1.0000 0.70220  0.66700  0.98480  Biso   1.000  H
  H32      1.0000 0.29780  0.16700  0.51520  Biso   1.000  H
  H33      1.0000 0.45600  0.42800  0.03170  Biso   1.000  H
  H34      1.0000 0.54400  0.92800  0.46830  Biso   1.000  H
  H35      1.0000 0.54400  0.57200  0.96830  Biso   1.000  H
  H36      1.0000 0.45600  0.07200  0.53170  Biso   1.000  H
  H37      1.0000 0.52890  0.79400  0.07810  Biso   1.000  H
  H38      1.0000 0.47110  0.29400  0.42190  Biso   1.000  H
  H39      1.0000 0.47110  0.20600  0.92190  Biso   1.000  H
  H40      1.0000 0.52890  0.70600  0.57810  Biso   1.000  H
  H41      1.0000 0.45590  0.03300  0.11500  Biso   1.000  H
  H42      1.0000 0.54410  0.53300  0.38500  Biso   1.000  H
  H43      1.0000 0.54410  0.96700  0.88500  Biso   1.000  H
  H44      1.0000 0.45590  0.46700  0.61500  Biso   1.000  H
  H45      1.0000 0.91980  0.56100  0.08660  Biso   1.000  H
  H46      1.0000 0.08020  0.06100  0.41340  Biso   1.000  H
  H47      1.0000 0.08020  0.43900  0.91340  Biso   1.000  H
  H48      1.0000 0.91980  0.93900  0.58660  Biso   1.000  H
  H49      1.0000 0.83130  0.61400  0.13580  Biso   1.000  H
  H50      1.0000 0.16870  0.11400  0.36420  Biso   1.000  H
  H51      1.0000 0.16870  0.38600  0.86420  Biso   1.000  H
  H52      1.0000 0.83130  0.88600  0.63580  Biso   1.000  H
  H53      1.0000 0.68640  0.52400  0.13570  Biso   1.000  H
  H54      1.0000 0.31360  0.02400  0.36430  Biso   1.000  H
  H55      1.0000 0.31360  0.47600  0.86430  Biso   1.000  H
  H56      1.0000 0.68640  0.97600  0.63570  Biso   1.000  H
  H57      1.0000 0.60230  0.16800  0.09320  Biso   1.000  H
  H58      1.0000 0.39770  0.66800  0.40680  Biso   1.000  H
  H59      1.0000 0.39770  0.83200  0.90680  Biso   1.000  H
  H60      1.0000 0.60230  0.33200  0.59320  Biso   1.000  H
  H61      1.0000 0.65360  0.91400  0.04810  Biso   1.000  H
  H62      1.0000 0.34640  0.41400  0.45190  Biso   1.000  H
  H63      1.0000 0.34640  0.08600  0.95190  Biso   1.000  H
  H64      1.0000 0.65360  0.58600  0.54810  Biso   1.000  H
  H65      1.0000 0.79980  0.99100  0.04960  Biso   1.000  H
  H66      1.0000 0.20020  0.49100  0.45040  Biso   1.000  H
  H67      1.0000 0.20020  0.00900  0.95040  Biso   1.000  H
  H68      1.0000 0.79980  0.50900  0.54960  Biso   1.000  H
  H69      1.0000 0.07160  0.69200  0.15100  Biso   1.000  H
  H70      1.0000 0.92840  0.19200  0.34900  Biso   1.000  H
  H71      1.0000 0.92840  0.30800  0.84900  Biso   1.000  H
  H72      1.0000 0.07160  0.80800  0.65100  Biso   1.000  H
  H73      1.0000 0.19390  0.70700  0.24360  Biso   1.000  H
  H74      1.0000 0.80610  0.20700  0.25640  Biso   1.000  H
  H75      1.0000 0.80610  0.29300  0.75640  Biso   1.000  H
  H76      1.0000 0.19390  0.79300  0.74360  Biso   1.000  H
  H77      1.0000 0.19780  0.40900  0.30360  Biso   1.000  H
  H78      1.0000 0.80220  0.90900  0.19640  Biso   1.000  H
  H79      1.0000 0.80220  0.59100  0.69640  Biso   1.000  H
  H80      1.0000 0.19780  0.09100  0.80360  Biso   1.000  H
  H81      1.0000 0.08780  0.06400  0.26800  Biso   1.000  H
  H82      1.0000 0.91220  0.56400  0.23200  Biso   1.000  H
  H83      1.0000 0.91220  0.93600  0.73200  Biso   1.000  H
  H84      1.0000 0.08780  0.43600  0.76800  Biso   1.000  H
  H85      1.0000 0.96970  0.05900  0.17780  Biso   1.000  H
  H86      1.0000 0.03030  0.55900  0.32220  Biso   1.000  H
  H87      1.0000 0.03030  0.94100  0.82220  Biso   1.000  H
  H88      1.0000 0.96970  0.44100  0.67780  Biso   1.000  H
