data_image0
_cell_length_a       9.25
_cell_length_b       17.533
_cell_length_c       17.668
_cell_angle_alpha    115.84
_cell_angle_beta     95.67
_cell_angle_gamma    92.37

_symmetry_space_group_name_H-M    "P 1"
_symmetry_int_tables_number       1

loop_
  _symmetry_equiv_pos_as_xyz
  'x, y, z'

loop_
  _atom_site_label
  _atom_site_occupancy
  _atom_site_fract_x
  _atom_site_fract_y
  _atom_site_fract_z
  _atom_site_thermal_displace_type
  _atom_site_B_iso_or_equiv
  _atom_site_type_symbol
  C1       1.0000 0.90560  0.50270  0.55690  Biso   1.000  C
  C2       1.0000 0.09440  0.49730  0.44310  Biso   1.000  C
  C3       1.0000 0.97730  0.57830  0.56440  Biso   1.000  C
  C4       1.0000 0.02270  0.42170  0.43560  Biso   1.000  C
  C5       1.0000 0.92560  0.42570  0.49320  Biso   1.000  C
  C6       1.0000 0.07440  0.57430  0.50680  Biso   1.000  C
  C7       1.0000 0.84970  0.34500  0.48690  Biso   1.000  C
  C8       1.0000 0.15030  0.65500  0.51310  Biso   1.000  C
  N1       1.0000 0.95110  0.29010  0.50220  Biso   1.000  N
  N2       1.0000 0.04890  0.70990  0.49780  Biso   1.000  N
  C9       1.0000 0.99940  0.30810  0.58480  Biso   1.000  C
  C10      1.0000 0.00060  0.69190  0.41520  Biso   1.000  C
  C11      1.0000 0.09350  0.26380  0.60460  Biso   1.000  C
  C12      1.0000 0.90650  0.73620  0.39540  Biso   1.000  C
  C13      1.0000 0.14400  0.19070  0.53940  Biso   1.000  C
  C14      1.0000 0.85600  0.80930  0.46060  Biso   1.000  C
  C15      1.0000 0.24740  0.13620  0.55960  Biso   1.000  C
  C16      1.0000 0.75260  0.86380  0.44040  Biso   1.000  C
  C17      1.0000 0.09600  0.17450  0.45860  Biso   1.000  C
  C18      1.0000 0.90400  0.82550  0.54140  Biso   1.000  C
  C19      1.0000 0.99690  0.22180  0.43720  Biso   1.000  C
  C20      1.0000 0.00310  0.77820  0.56280  Biso   1.000  C
  O1       1.0000 0.94440  0.20970  0.36160  Biso   1.000  O
  O2       1.0000 0.05560  0.79030  0.63840  Biso   1.000  O
  Cl1      1.0000 0.87830  0.01820  0.28440  Biso   1.000  Cl
  Cl2      1.0000 0.12170  0.98180  0.71560  Biso   1.000  Cl
  Cl3      1.0000 0.20180  0.20530  0.26770  Biso   1.000  Cl
  Cl4      1.0000 0.79820  0.79470  0.73230  Biso   1.000  Cl
  O3       1.0000 0.03490  0.02910  0.14920  Biso   1.000  O
  O4       1.0000 0.96510  0.97090  0.85080  Biso   1.000  O
  C21      1.0000 0.13570  0.97850  0.13720  Biso   1.000  C
  C22      1.0000 0.86430  0.02150  0.86280  Biso   1.000  C
  C23      1.0000 0.25180  0.98360  0.19580  Biso   1.000  C
  C24      1.0000 0.74820  0.01640  0.80420  Biso   1.000  C
  C25      1.0000 0.35600  0.92760  0.17680  Biso   1.000  C
  C26      1.0000 0.64400  0.07240  0.82320  Biso   1.000  C
  C27      1.0000 0.48060  0.93560  0.24270  Biso   1.000  C
  C28      1.0000 0.51940  0.06440  0.75730  Biso   1.000  C
  C29      1.0000 0.34410  0.86140  0.09200  Biso   1.000  C
  C30      1.0000 0.65590  0.13860  0.90800  Biso   1.000  C
  C31      1.0000 0.23140  0.85320  0.03630  Biso   1.000  C
  C32      1.0000 0.76860  0.14680  0.96370  Biso   1.000  C
  N3       1.0000 0.12360  0.90970  0.05680  Biso   1.000  N
  N4       1.0000 0.87640  0.09030  0.94320  Biso   1.000  N
  C33      1.0000 0.99270  0.89170  0.99400  Biso   1.000  C
  C34      1.0000 0.00730  0.10830  0.00600  Biso   1.000  C
  C35      1.0000 0.88670  0.82560  0.99660  Biso   1.000  C
  C36      1.0000 0.11330  0.17440  0.00340  Biso   1.000  C
  C37      1.0000 0.83220  0.84010  0.07100  Biso   1.000  C
  C38      1.0000 0.16780  0.15990  0.92900  Biso   1.000  C
  C39      1.0000 0.73180  0.77800  0.07270  Biso   1.000  C
  C40      1.0000 0.26820  0.22200  0.92730  Biso   1.000  C
  C41      1.0000 0.68790  0.70390  0.99970  Biso   1.000  C
  C42      1.0000 0.31210  0.29610  0.00030  Biso   1.000  C
  C43      1.0000 0.74320  0.69040  0.92600  Biso   1.000  C
  C44      1.0000 0.25680  0.30960  0.07400  Biso   1.000  C
  C45      1.0000 0.84250  0.75170  0.92520  Biso   1.000  C
  C46      1.0000 0.15750  0.24830  0.07480  Biso   1.000  C
  C47      1.0000 0.58570  0.63680  0.00510  Biso   1.000  C
  C48      1.0000 0.41430  0.36320  0.99490  Biso   1.000  C
  N5       1.0000 0.66720  0.56650  0.00870  Biso   1.000  N
  N6       1.0000 0.33280  0.43350  0.99130  Biso   1.000  N
  C49      1.0000 0.76020  0.58520  0.08290  Biso   1.000  C
  C50      1.0000 0.23980  0.41480  0.91710  Biso   1.000  C
  C51      1.0000 0.84260  0.52820  0.08920  Biso   1.000  C
  C52      1.0000 0.15740  0.47180  0.91080  Biso   1.000  C
  C53      1.0000 0.84400  0.44790  0.02080  Biso   1.000  C
  C54      1.0000 0.15600  0.55210  0.97920  Biso   1.000  C
  C55      1.0000 0.93700  0.38400  0.02830  Biso   1.000  C
  C56      1.0000 0.06300  0.61600  0.97170  Biso   1.000  C
  C57      1.0000 0.75310  0.43140  0.94640  Biso   1.000  C
  C58      1.0000 0.24690  0.56860  0.05360  Biso   1.000  C
  C59      1.0000 0.66190  0.49100  0.93930  Biso   1.000  C
  C60      1.0000 0.33810  0.50900  0.06070  Biso   1.000  C
  O5       1.0000 0.57920  0.47890  0.87390  Biso   1.000  O
  O6       1.0000 0.42080  0.52110  0.12610  Biso   1.000  O
  Cl5      1.0000 0.48060  0.28590  0.77370  Biso   1.000  Cl
  Cl6      1.0000 0.51940  0.71410  0.22630  Biso   1.000  Cl
  Cl7      1.0000 0.78920  0.45570  0.74530  Biso   1.000  Cl
  Cl8      1.0000 0.21080  0.54430  0.25470  Biso   1.000  Cl
  O7       1.0000 0.49520  0.35860  0.64400  Biso   1.000  O
  O8       1.0000 0.50480  0.64140  0.35600  Biso   1.000  O
  C61      1.0000 0.52610  0.29670  0.57910  Biso   1.000  C
  C62      1.0000 0.47390  0.70330  0.42090  Biso   1.000  C
  C63      1.0000 0.61930  0.23350  0.57600  Biso   1.000  C
  C64      1.0000 0.38070  0.76650  0.42400  Biso   1.000  C
  C65      1.0000 0.64870  0.16960  0.50400  Biso   1.000  C
  C66      1.0000 0.35130  0.83040  0.49600  Biso   1.000  C
  C67      1.0000 0.74120  0.10050  0.50340  Biso   1.000  C
  C68      1.0000 0.25880  0.89950  0.49660  Biso   1.000  C
  C69      1.0000 0.57930  0.16610  0.42710  Biso   1.000  C
  C70      1.0000 0.42070  0.83390  0.57290  Biso   1.000  C
  C71      1.0000 0.48910  0.22280  0.42590  Biso   1.000  C
  C72      1.0000 0.51090  0.77720  0.57410  Biso   1.000  C
  N7       1.0000 0.45910  0.28730  0.50210  Biso   1.000  N
  N8       1.0000 0.54090  0.71270  0.49790  Biso   1.000  N
  C73      1.0000 0.35610  0.34850  0.49940  Biso   1.000  C
  C74      1.0000 0.64390  0.65150  0.50060  Biso   1.000  C
  C75      1.0000 0.43110  0.42670  0.50090  Biso   1.000  C
  C76      1.0000 0.56890  0.57330  0.49910  Biso   1.000  C
  C77      1.0000 0.47880  0.49910  0.57430  Biso   1.000  C
  C78      1.0000 0.52120  0.50090  0.42570  Biso   1.000  C
  C79      1.0000 0.45020  0.43180  0.42500  Biso   1.000  C
  C80      1.0000 0.54980  0.56820  0.57500  Biso   1.000  C
  O9       1.0000 0.83860  0.15510  0.18400  Biso   1.000  O
  O10      1.0000 0.16140  0.84490  0.81600  Biso   1.000  O
  C81      1.0000 0.76730  0.21560  0.19920  Biso   1.000  C
  C82      1.0000 0.23270  0.78440  0.80080  Biso   1.000  C
  C83      1.0000 0.82120  0.29900  0.22040  Biso   1.000  C
  C84      1.0000 0.17880  0.70100  0.77960  Biso   1.000  C
  C85      1.0000 0.73570  0.36430  0.22970  Biso   1.000  C
  C86      1.0000 0.26430  0.63570  0.77030  Biso   1.000  C
  C87      1.0000 0.79940  0.45480  0.25490  Biso   1.000  C
  C88      1.0000 0.20060  0.54520  0.74510  Biso   1.000  C
  C89      1.0000 0.58420  0.34650  0.22000  Biso   1.000  C
  C90      1.0000 0.41580  0.65350  0.78000  Biso   1.000  C
  C91      1.0000 0.53050  0.26770  0.20380  Biso   1.000  C
  C92      1.0000 0.46950  0.73230  0.79620  Biso   1.000  C
  N9       1.0000 0.61430  0.20460  0.19570  Biso   1.000  N
  N10      1.0000 0.38570  0.79540  0.80430  Biso   1.000  N
  C93      1.0000 0.55090  0.12100  0.17970  Biso   1.000  C
  C94      1.0000 0.44910  0.87900  0.82030  Biso   1.000  C
  C95      1.0000 0.52610  0.05820  0.08610  Biso   1.000  C
  C96      1.0000 0.47390  0.94180  0.91390  Biso   1.000  C
  C97      1.0000 0.39950  0.05770  0.03670  Biso   1.000  C
  C98      1.0000 0.60050  0.94230  0.96330  Biso   1.000  C
  C99      1.0000 0.62610  0.99880  0.04690  Biso   1.000  C
  C100     1.0000 0.37390  0.00120  0.95310  Biso   1.000  C
  Cu1      1.0000 0.99890  0.11900  0.25810  Biso   1.000  Cu
  Cu2      1.0000 0.00110  0.88100  0.74190  Biso   1.000  Cu
  Cu3      1.0000 0.58250  0.39460  0.75930  Biso   1.000  Cu
  Cu4      1.0000 0.41750  0.60540  0.24070  Biso   1.000  Cu
  C101     1.0000 0.08220  0.81300  0.23660  Biso   1.000  C
  C102     1.0000 0.91780  0.18700  0.76340  Biso   1.000  C
  O11      1.0000 0.07630  0.88470  0.31340  Biso   1.000  O
  O12      1.0000 0.92370  0.11530  0.68660  Biso   1.000  O
  C103     1.0000 0.96340  0.82470  0.26770  Biso   1.000  C
  C104     1.0000 0.03660  0.17530  0.73230  Biso   1.000  C
  O13      1.0000 0.07320  0.77630  0.22810  Biso   1.000  O
  O14      1.0000 0.92680  0.22370  0.77190  Biso   1.000  O
