data_image0
_cell_length_a       9.1033
_cell_length_b       11.595
_cell_length_c       15.349
_cell_angle_alpha    78.346
_cell_angle_beta     72.755
_cell_angle_gamma    73.765

_symmetry_space_group_name_H-M    "P 1"
_symmetry_int_tables_number       1

loop_
  _symmetry_equiv_pos_as_xyz
  'x, y, z'

loop_
  _atom_site_label
  _atom_site_occupancy
  _atom_site_fract_x
  _atom_site_fract_y
  _atom_site_fract_z
  _atom_site_thermal_displace_type
  _atom_site_B_iso_or_equiv
  _atom_site_type_symbol
  C1       1.0000 0.82080  0.16240  0.37290  Biso   1.000  C
  C2       1.0000 0.17920  0.83760  0.62710  Biso   1.000  C
  H1       1.0000 0.75780  0.10660  0.39360  Biso   1.000  H
  H2       1.0000 0.24220  0.89340  0.60640  Biso   1.000  H
  C3       1.0000 0.78770  0.25690  0.30610  Biso   1.000  C
  C4       1.0000 0.21230  0.74310  0.69390  Biso   1.000  C
  H3       1.0000 0.70620  0.26240  0.27940  Biso   1.000  H
  H4       1.0000 0.29380  0.73760  0.72060  Biso   1.000  H
  C5       1.0000 0.87560  0.34390  0.27840  Biso   1.000  C
  C6       1.0000 0.12440  0.65610  0.72160  Biso   1.000  C
  C7       1.0000 0.00780  0.32710  0.31190  Biso   1.000  C
  C8       1.0000 0.99220  0.67290  0.68810  Biso   1.000  C
  H5       1.0000 0.07380  0.38060  0.28880  Biso   1.000  H
  H6       1.0000 0.92620  0.61940  0.71120  Biso   1.000  H
  C9       1.0000 0.04160  0.23240  0.37860  Biso   1.000  C
  C10      1.0000 0.95840  0.76760  0.62140  Biso   1.000  C
  H7       1.0000 0.12690  0.22350  0.40300  Biso   1.000  H
  H8       1.0000 0.87310  0.77650  0.59700  Biso   1.000  H
  C11      1.0000 0.82360  0.45750  0.22040  Biso   1.000  C
  C12      1.0000 0.17640  0.54250  0.77960  Biso   1.000  C
  C13      1.0000 0.73190  0.53410  0.07800  Biso   1.000  C
  C14      1.0000 0.26810  0.46590  0.92200  Biso   1.000  C
  H9       1.0000 0.82630  0.53260  0.02760  Biso   1.000  H
  H10      1.0000 0.17370  0.46740  0.97240  Biso   1.000  H
  H11      1.0000 0.70040  0.61320  0.09880  Biso   1.000  H
  H12      1.0000 0.29960  0.38680  0.90120  Biso   1.000  H
  C15      1.0000 0.60710  0.51890  0.04410  Biso   1.000  C
  C16      1.0000 0.39290  0.48110  0.95590  Biso   1.000  C
  F1       1.0000 0.80920  0.43823  0.91659  Biso   1.000  F
  F2       1.0000 0.19080  0.56177  0.08341  Biso   1.000  F
  C17      1.0000 0.66020  0.46940  0.96030  Biso   1.000  C
  C18      1.0000 0.33980  0.53060  0.03970  Biso   1.000  C
  C19      1.0000 0.44340  0.55760  0.07920  Biso   1.000  C
  C20      1.0000 0.55660  0.44240  0.92080  Biso   1.000  C
  C21      1.0000 0.23060  0.88240  0.34470  Biso   1.000  C
  C22      1.0000 0.76940  0.11760  0.65530  Biso   1.000  C
  H13      1.0000 0.14260  0.85630  0.34520  Biso   1.000  H
  H14      1.0000 0.85740  0.14370  0.65480  Biso   1.000  H
  C23      1.0000 0.37280  0.84850  0.27880  Biso   1.000  C
  C24      1.0000 0.62720  0.15150  0.72120  Biso   1.000  C
  H15      1.0000 0.37880  0.79960  0.23610  Biso   1.000  H
  H16      1.0000 0.62120  0.20040  0.76390  Biso   1.000  H
  C25      1.0000 0.50740  0.88810  0.27670  Biso   1.000  C
  C26      1.0000 0.49260  0.11190  0.72330  Biso   1.000  C
  C27      1.0000 0.49270  0.96330  0.34140  Biso   1.000  C
  C28      1.0000 0.50730  0.03670  0.65860  Biso   1.000  C
  H17      1.0000 0.57730  0.99330  0.34150  Biso   1.000  H
  H18      1.0000 0.42270  0.00670  0.65850  Biso   1.000  H
  C29      1.0000 0.35040  0.99100  0.40410  Biso   1.000  C
  C30      1.0000 0.64960  0.00900  0.59590  Biso   1.000  C
  H19      1.0000 0.34280  0.03980  0.44720  Biso   1.000  H
  H20      1.0000 0.65720  0.96020  0.55280  Biso   1.000  H
  C31      1.0000 0.65190  0.85840  0.20290  Biso   1.000  C
  C32      1.0000 0.34810  0.14160  0.79710  Biso   1.000  C
  C33      1.0000 0.94280  0.81910  0.15710  Biso   1.000  C
  C34      1.0000 0.05720  0.18090  0.84290  Biso   1.000  C
  H21      1.0000 0.02730  0.80120  0.18760  Biso   1.000  H
  H22      1.0000 0.97270  0.19880  0.81240  Biso   1.000  H
  H23      1.0000 0.94570  0.74530  0.13550  Biso   1.000  H
  H24      1.0000 0.05430  0.25470  0.86450  Biso   1.000  H
  C35      1.0000 0.97450  0.90780  0.07890  Biso   1.000  C
  C36      1.0000 0.02550  0.09220  0.92110  Biso   1.000  C
  C37      1.0000 0.99730  0.02010  0.08620  Biso   1.000  C
  C38      1.0000 0.00270  0.97990  0.91380  Biso   1.000  C
  C39      1.0000 0.98470  0.89070  0.98620  Biso   1.000  C
  C40      1.0000 0.01530  0.10930  0.01380  Biso   1.000  C
  C41      1.0000 0.31660  0.17110  0.12680  Biso   1.000  C
  C42      1.0000 0.68340  0.82890  0.87320  Biso   1.000  C
  H25      1.0000 0.27370  0.17470  0.19160  Biso   1.000  H
  H26      1.0000 0.72630  0.82530  0.80840  Biso   1.000  H
  H27      1.0000 0.31130  0.09570  0.11250  Biso   1.000  H
  H28      1.0000 0.68870  0.90430  0.88750  Biso   1.000  H
  H29      1.0000 0.25660  0.23710  0.09340  Biso   1.000  H
  H30      1.0000 0.74340  0.76290  0.90660  Biso   1.000  H
  C43      1.0000 0.58840  0.12900  0.01180  Biso   1.000  C
  C44      1.0000 0.41160  0.87100  0.98820  Biso   1.000  C
  H31      1.0000 0.65870  0.18060  0.97930  Biso   1.000  H
  H32      1.0000 0.34130  0.81940  0.02070  Biso   1.000  H
  H33      1.0000 0.52350  0.12550  0.97370  Biso   1.000  H
  H34      1.0000 0.47650  0.87450  0.02630  Biso   1.000  H
  H35      1.0000 0.64900  0.04900  0.02700  Biso   1.000  H
  H36      1.0000 0.35100  0.95100  0.97300  Biso   1.000  H
  C45      1.0000 0.53020  0.23350  0.14850  Biso   1.000  C
  C46      1.0000 0.46980  0.76650  0.85150  Biso   1.000  C
  H37      1.0000 0.46360  0.28660  0.18950  Biso   1.000  H
  H38      1.0000 0.53640  0.71340  0.81050  Biso   1.000  H
  Cu1      1.0000 0.00000  0.00000  0.50000  Biso   1.000  Cu
  F3       1.0000 0.38320  0.61189  0.15117  Biso   1.000  F
  F4       1.0000 0.61680  0.38811  0.84883  Biso   1.000  F
  F5       1.0000 0.99370  0.04023  0.16885  Biso   1.000  F
  F6       1.0000 0.00630  0.95977  0.83115  Biso   1.000  F
  F7       1.0000 0.96280  0.78620  0.97019  Biso   1.000  F
  F8       1.0000 0.03720  0.21380  0.02981  Biso   1.000  F
  N1       1.0000 0.94490  0.14960  0.40899  Biso   1.000  N
  N2       1.0000 0.05510  0.85040  0.59101  Biso   1.000  N
  N3       1.0000 0.76950  0.44470  0.15119  Biso   1.000  N
  N4       1.0000 0.23050  0.55530  0.84881  Biso   1.000  N
  H39      1.0000 0.75800  0.37600  0.15100  Biso   1.000  H
  H40      1.0000 0.24200  0.62400  0.84900  Biso   1.000  H
  N5       1.0000 0.21940  0.95410  0.40923  Biso   1.000  N
  N6       1.0000 0.78060  0.04590  0.59077  Biso   1.000  N
  N7       1.0000 0.79150  0.85280  0.22506  Biso   1.000  N
  N8       1.0000 0.20850  0.14720  0.77494  Biso   1.000  N
  N9       1.0000 0.48260  0.17990  0.10062  Biso   1.000  N
  N10      1.0000 0.51740  0.82010  0.89938  Biso   1.000  N
  O1       1.0000 0.85470  0.55150  0.22254  Biso   1.000  O
  O2       1.0000 0.14530  0.44850  0.77746  Biso   1.000  O
  O3       1.0000 0.64450  0.83770  0.13266  Biso   1.000  O
  O4       1.0000 0.35550  0.16230  0.86734  Biso   1.000  O
  O5       1.0000 0.66990  0.20660  0.13389  Biso   1.000  O
  O6       1.0000 0.33010  0.79340  0.86611  Biso   1.000  O
  O7       1.0000 0.43100  0.25890  0.36740  Biso   1.000  O
  O8       1.0000 0.56900  0.74110  0.63260  Biso   1.000  O
  H41      1.0000 0.34000  0.29400  0.35900  Biso   1.000  H
  H42      1.0000 0.66000  0.70600  0.64100  Biso   1.000  H
  H43      1.0000 0.42500  0.24100  0.42500  Biso   1.000  H
  H44      1.0000 0.57500  0.75900  0.57500  Biso   1.000  H
  O9       1.0000 0.75090  0.46120  0.66010  Biso   1.000  O
  O10      1.0000 0.24910  0.53880  0.33990  Biso   1.000  O
  H45      1.0000 0.75900  0.50300  0.69800  Biso   1.000  H
  H46      1.0000 0.24100  0.49700  0.30200  Biso   1.000  H
  H47      1.0000 0.71400  0.40100  0.69000  Biso   1.000  H
  H48      1.0000 0.28600  0.59900  0.31000  Biso   1.000  H
  O11      1.0000 0.86750  0.85910  0.41400  Biso   1.000  O
  O12      1.0000 0.13250  0.14090  0.58600  Biso   1.000  O
  H49      1.0000 0.78200  0.83500  0.43100  Biso   1.000  H
  H50      1.0000 0.21800  0.16500  0.56900  Biso   1.000  H
  H51      1.0000 0.89200  0.87700  0.35600  Biso   1.000  H
  H52      1.0000 0.10800  0.12300  0.64400  Biso   1.000  H
  O13      1.0000 0.85010  0.50050  0.48380  Biso   1.000  O
  O14      1.0000 0.14990  0.49950  0.51620  Biso   1.000  O
  H53      1.0000 0.91900  0.46300  0.51300  Biso   1.000  H
  H54      1.0000 0.08100  0.53700  0.48700  Biso   1.000  H
  H55      1.0000 0.75900  0.49400  0.51700  Biso   1.000  H
  H56      1.0000 0.24100  0.50600  0.48300  Biso   1.000  H
  O15      1.0000 0.55980  0.47860  0.62980  Biso   1.000  O
  O16      1.0000 0.44020  0.52140  0.37020  Biso   1.000  O
  H57      1.0000 0.50300  0.48400  0.68500  Biso   1.000  H
  H58      1.0000 0.49700  0.51600  0.31500  Biso   1.000  H
  H59      1.0000 0.50900  0.52500  0.59300  Biso   1.000  H
  H60      1.0000 0.49100  0.47500  0.40700  Biso   1.000  H
