data_image0
_cell_length_a       19.217
_cell_length_b       17.1838
_cell_length_c       19.528
_cell_angle_alpha    90
_cell_angle_beta     115.672
_cell_angle_gamma    90

_symmetry_space_group_name_H-M    "P 1"
_symmetry_int_tables_number       1

loop_
  _symmetry_equiv_pos_as_xyz
  'x, y, z'

loop_
  _atom_site_label
  _atom_site_occupancy
  _atom_site_fract_x
  _atom_site_fract_y
  _atom_site_fract_z
  _atom_site_thermal_displace_type
  _atom_site_B_iso_or_equiv
  _atom_site_type_symbol
  C1       1.0000 0.54865  0.84067  0.78875  Biso   1.000  C
  C2       1.0000 0.95135  0.34067  0.71125  Biso   1.000  C
  C3       1.0000 0.45135  0.15933  0.21125  Biso   1.000  C
  C4       1.0000 0.04865  0.65933  0.28875  Biso   1.000  C
  H1       1.0000 0.52350  0.84330  0.73600  Biso   1.000  H
  H2       1.0000 0.97650  0.34330  0.76400  Biso   1.000  H
  H3       1.0000 0.47650  0.15670  0.26400  Biso   1.000  H
  H4       1.0000 0.02350  0.65670  0.23600  Biso   1.000  H
  C5       1.0000 0.57068  0.76809  0.82247  Biso   1.000  C
  C6       1.0000 0.92932  0.26809  0.67753  Biso   1.000  C
  C7       1.0000 0.42932  0.23191  0.17753  Biso   1.000  C
  C8       1.0000 0.07068  0.73191  0.32247  Biso   1.000  C
  H5       1.0000 0.55670  0.72380  0.79210  Biso   1.000  H
  H6       1.0000 0.94330  0.22380  0.70790  Biso   1.000  H
  H7       1.0000 0.44330  0.27620  0.20790  Biso   1.000  H
  H8       1.0000 0.05670  0.77620  0.29210  Biso   1.000  H
  C9       1.0000 0.61152  0.76050  0.89751  Biso   1.000  C
  C10      1.0000 0.88848  0.26050  0.60249  Biso   1.000  C
  C11      1.0000 0.38848  0.23950  0.10249  Biso   1.000  C
  C12      1.0000 0.11152  0.73950  0.39751  Biso   1.000  C
  C13      1.0000 0.62715  0.82848  0.93947  Biso   1.000  C
  C14      1.0000 0.87285  0.32848  0.56053  Biso   1.000  C
  C15      1.0000 0.37285  0.17152  0.06053  Biso   1.000  C
  C16      1.0000 0.12715  0.67152  0.43947  Biso   1.000  C
  H9       1.0000 0.65360  0.82650  0.99220  Biso   1.000  H
  H10      1.0000 0.84640  0.32650  0.50780  Biso   1.000  H
  H11      1.0000 0.34640  0.17350  0.00780  Biso   1.000  H
  H12      1.0000 0.15360  0.67350  0.49220  Biso   1.000  H
  C17      1.0000 0.60331  0.90000  0.90291  Biso   1.000  C
  C18      1.0000 0.89669  0.40000  0.59709  Biso   1.000  C
  C19      1.0000 0.39669  0.10000  0.09709  Biso   1.000  C
  C20      1.0000 0.10331  0.60000  0.40291  Biso   1.000  C
  H13      1.0000 0.61660  0.94550  0.93160  Biso   1.000  H
  H14      1.0000 0.88340  0.44550  0.56840  Biso   1.000  H
  H15      1.0000 0.38340  0.05450  0.06840  Biso   1.000  H
  H16      1.0000 0.11660  0.55450  0.43160  Biso   1.000  H
  C21      1.0000 0.63786  0.68464  0.93814  Biso   1.000  C
  C22      1.0000 0.86214  0.18464  0.56186  Biso   1.000  C
  C23      1.0000 0.36214  0.31536  0.06186  Biso   1.000  C
  C24      1.0000 0.13786  0.81536  0.43814  Biso   1.000  C
  C25      1.0000 0.66971  0.54922  0.92724  Biso   1.000  C
  C26      1.0000 0.83029  0.04922  0.57276  Biso   1.000  C
  C27      1.0000 0.33029  0.45078  0.07276  Biso   1.000  C
  C28      1.0000 0.16971  0.95078  0.42724  Biso   1.000  C
  H17      1.0000 0.70070  0.55480  0.98150  Biso   1.000  H
  H18      1.0000 0.79930  0.05480  0.51850  Biso   1.000  H
  H19      1.0000 0.29930  0.44520  0.01850  Biso   1.000  H
  H20      1.0000 0.20070  0.94520  0.48150  Biso   1.000  H
  H21      1.0000 0.70330  0.53040  0.90540  Biso   1.000  H
  H22      1.0000 0.79670  0.03040  0.59460  Biso   1.000  H
  H23      1.0000 0.29670  0.46960  0.09460  Biso   1.000  H
  H24      1.0000 0.20330  0.96960  0.40540  Biso   1.000  H
  C29      1.0000 0.60757  0.48908  0.91382  Biso   1.000  C
  C30      1.0000 0.89243  0.98908  0.58618  Biso   1.000  C
  C31      1.0000 0.39243  0.51092  0.08618  Biso   1.000  C
  C32      1.0000 0.10757  0.01092  0.41382  Biso   1.000  C
  C33      1.0000 0.57024  0.45203  0.84311  Biso   1.000  C
  C34      1.0000 0.92976  0.95203  0.65689  Biso   1.000  C
  C35      1.0000 0.42976  0.54797  0.15689  Biso   1.000  C
  C36      1.0000 0.07024  0.04797  0.34311  Biso   1.000  C
  C37      1.0000 0.51468  0.39760  0.83006  Biso   1.000  C
  C38      1.0000 0.98532  0.89760  0.66994  Biso   1.000  C
  C39      1.0000 0.48532  0.60240  0.16994  Biso   1.000  C
  C40      1.0000 0.01468  0.10240  0.33006  Biso   1.000  C
  C41      1.0000 0.48965  0.37673  0.88380  Biso   1.000  C
  C42      1.0000 0.01035  0.87673  0.61620  Biso   1.000  C
  C43      1.0000 0.51035  0.62327  0.11620  Biso   1.000  C
  C44      1.0000 0.98965  0.12327  0.38380  Biso   1.000  C
  C45      1.0000 0.52804  0.41428  0.95500  Biso   1.000  C
  C46      1.0000 0.97196  0.91428  0.54500  Biso   1.000  C
  C47      1.0000 0.47196  0.58572  0.04500  Biso   1.000  C
  C48      1.0000 0.02804  0.08572  0.45500  Biso   1.000  C
  C49      1.0000 0.58407  0.46696  0.96779  Biso   1.000  C
  C50      1.0000 0.91593  0.96696  0.53221  Biso   1.000  C
  C51      1.0000 0.41593  0.53304  0.03221  Biso   1.000  C
  C52      1.0000 0.08407  0.03304  0.46779  Biso   1.000  C
  H25      1.0000 0.42040  0.28490  0.82620  Biso   1.000  H
  H26      1.0000 0.07960  0.78490  0.67380  Biso   1.000  H
  H27      1.0000 0.57960  0.71510  0.17380  Biso   1.000  H
  H28      1.0000 0.92040  0.21510  0.32620  Biso   1.000  H
  H29      1.0000 0.44120  0.28350  0.91330  Biso   1.000  H
  H30      1.0000 0.05880  0.78350  0.58670  Biso   1.000  H
  H31      1.0000 0.55880  0.71650  0.08670  Biso   1.000  H
  H32      1.0000 0.94120  0.21650  0.41330  Biso   1.000  H
  C53      1.0000 0.42634  0.31698  0.86923  Biso   1.000  C
  C54      1.0000 0.07366  0.81698  0.63077  Biso   1.000  C
  C55      1.0000 0.57366  0.68302  0.13077  Biso   1.000  C
  C56      1.0000 0.92634  0.18302  0.36923  Biso   1.000  C
  C57      1.0000 0.49306  0.12449  0.65182  Biso   1.000  C
  C58      1.0000 0.00694  0.62449  0.84818  Biso   1.000  C
  C59      1.0000 0.50694  0.87551  0.34818  Biso   1.000  C
  C60      1.0000 0.99306  0.37551  0.15182  Biso   1.000  C
  H33      1.0000 0.52750  0.09400  0.64170  Biso   1.000  H
  H34      1.0000 0.97250  0.59400  0.85830  Biso   1.000  H
  H35      1.0000 0.47250  0.90600  0.35830  Biso   1.000  H
  H36      1.0000 0.02750  0.40600  0.14170  Biso   1.000  H
  C61      1.0000 0.46261  0.19200  0.60752  Biso   1.000  C
  C62      1.0000 0.03739  0.69200  0.89248  Biso   1.000  C
  C63      1.0000 0.53739  0.80800  0.39248  Biso   1.000  C
  C64      1.0000 0.96261  0.30800  0.10752  Biso   1.000  C
  H37      1.0000 0.47730  0.20570  0.56960  Biso   1.000  H
  H38      1.0000 0.02270  0.70570  0.93040  Biso   1.000  H
  H39      1.0000 0.52270  0.79430  0.43040  Biso   1.000  H
  H40      1.0000 0.97730  0.29430  0.06960  Biso   1.000  H
  C65      1.0000 0.41241  0.23580  0.62083  Biso   1.000  C
  C66      1.0000 0.08759  0.73580  0.87917  Biso   1.000  C
  C67      1.0000 0.58759  0.76420  0.37917  Biso   1.000  C
  C68      1.0000 0.91241  0.26420  0.12083  Biso   1.000  C
  C69      1.0000 0.39215  0.21316  0.67890  Biso   1.000  C
  C70      1.0000 0.10785  0.71316  0.82110  Biso   1.000  C
  C71      1.0000 0.60785  0.78684  0.32110  Biso   1.000  C
  C72      1.0000 0.89215  0.28684  0.17890  Biso   1.000  C
  H41      1.0000 0.35680  0.24260  0.68870  Biso   1.000  H
  H42      1.0000 0.14320  0.74260  0.81130  Biso   1.000  H
  H43      1.0000 0.64320  0.75740  0.31130  Biso   1.000  H
  H44      1.0000 0.85680  0.25740  0.18870  Biso   1.000  H
  C73      1.0000 0.42440  0.14744  0.72150  Biso   1.000  C
  C74      1.0000 0.07560  0.64744  0.77850  Biso   1.000  C
  C75      1.0000 0.57560  0.85256  0.27850  Biso   1.000  C
  C76      1.0000 0.92440  0.35256  0.22150  Biso   1.000  C
  H45      1.0000 0.41140  0.13370  0.76060  Biso   1.000  H
  H46      1.0000 0.08860  0.63370  0.73940  Biso   1.000  H
  H47      1.0000 0.58860  0.86630  0.23940  Biso   1.000  H
  H48      1.0000 0.91140  0.36630  0.26060  Biso   1.000  H
  C77      1.0000 0.37802  0.30533  0.57100  Biso   1.000  C
  C78      1.0000 0.12198  0.80533  0.92900  Biso   1.000  C
  C79      1.0000 0.62198  0.69467  0.42900  Biso   1.000  C
  C80      1.0000 0.87802  0.19467  0.07100  Biso   1.000  C
  C81      1.0000 0.31232  0.43001  0.55276  Biso   1.000  C
  C82      1.0000 0.18768  0.93001  0.94724  Biso   1.000  C
  C83      1.0000 0.68768  0.56999  0.44724  Biso   1.000  C
  C84      1.0000 0.81232  0.06999  0.05276  Biso   1.000  C
  H49      1.0000 0.27030  0.44820  0.56350  Biso   1.000  H
  H50      1.0000 0.22970  0.94820  0.93650  Biso   1.000  H
  H51      1.0000 0.72970  0.55180  0.43650  Biso   1.000  H
  H52      1.0000 0.77030  0.05180  0.06350  Biso   1.000  H
  H53      1.0000 0.29110  0.41750  0.49910  Biso   1.000  H
  H54      1.0000 0.20890  0.91750  0.00090  Biso   1.000  H
  H55      1.0000 0.70890  0.58250  0.50090  Biso   1.000  H
  H56      1.0000 0.79110  0.08250  0.99910  Biso   1.000  H
  C85      1.0000 0.37026  0.49343  0.56979  Biso   1.000  C
  C86      1.0000 0.12974  0.99343  0.93021  Biso   1.000  C
  C87      1.0000 0.62974  0.50657  0.43021  Biso   1.000  C
  C88      1.0000 0.87026  0.00657  0.06979  Biso   1.000  C
  C89      1.0000 0.40392  0.53019  0.64127  Biso   1.000  C
  C90      1.0000 0.09608  0.03019  0.85873  Biso   1.000  C
  C91      1.0000 0.59608  0.46981  0.35873  Biso   1.000  C
  C92      1.0000 0.90392  0.96981  0.14127  Biso   1.000  C
  C93      1.0000 0.45614  0.58968  0.65767  Biso   1.000  C
  C94      1.0000 0.04386  0.08968  0.84233  Biso   1.000  C
  C95      1.0000 0.54386  0.41032  0.34233  Biso   1.000  C
  C96      1.0000 0.95614  0.91032  0.15767  Biso   1.000  C
  C97      1.0000 0.47991  0.61694  0.60416  Biso   1.000  C
  C98      1.0000 0.02009  0.11694  0.89584  Biso   1.000  C
  C99      1.0000 0.52009  0.38306  0.39584  Biso   1.000  C
  C100     1.0000 0.97991  0.88306  0.10416  Biso   1.000  C
  C101     1.0000 0.44823  0.58068  0.53425  Biso   1.000  C
  C102     1.0000 0.05177  0.08068  0.96575  Biso   1.000  C
  C103     1.0000 0.55177  0.41932  0.46575  Biso   1.000  C
  C104     1.0000 0.94823  0.91932  0.03425  Biso   1.000  C
  C105     1.0000 0.39495  0.52128  0.51720  Biso   1.000  C
  C106     1.0000 0.10505  0.02128  0.98280  Biso   1.000  C
  C107     1.0000 0.60505  0.47872  0.48280  Biso   1.000  C
  C108     1.0000 0.89495  0.97872  0.01720  Biso   1.000  C
  H57      1.0000 0.51570  0.72050  0.57730  Biso   1.000  H
  H58      1.0000 0.98430  0.22050  0.92270  Biso   1.000  H
  H59      1.0000 0.48430  0.27950  0.42270  Biso   1.000  H
  H60      1.0000 0.01570  0.77950  0.07730  Biso   1.000  H
  H61      1.0000 0.54180  0.71130  0.66490  Biso   1.000  H
  H62      1.0000 0.95820  0.21130  0.83510  Biso   1.000  H
  H63      1.0000 0.45820  0.28870  0.33510  Biso   1.000  H
  H64      1.0000 0.04180  0.78870  0.16490  Biso   1.000  H
  C109     1.0000 0.53644  0.68420  0.61933  Biso   1.000  C
  C110     1.0000 0.96356  0.18420  0.88067  Biso   1.000  C
  C111     1.0000 0.46356  0.31580  0.38067  Biso   1.000  C
  C112     1.0000 0.03644  0.81580  0.11933  Biso   1.000  C
  C113     1.0000 0.83493  0.50310  0.74080  Biso   1.000  C
  C114     1.0000 0.66507  0.00310  0.75920  Biso   1.000  C
  C115     1.0000 0.16507  0.49690  0.25920  Biso   1.000  C
  C116     1.0000 0.33493  0.99690  0.24080  Biso   1.000  C
  H65      1.0000 0.85350  0.45510  0.76330  Biso   1.000  H
  H66      1.0000 0.64650  0.95510  0.73670  Biso   1.000  H
  H67      1.0000 0.14650  0.54490  0.23670  Biso   1.000  H
  H68      1.0000 0.35350  0.04490  0.26330  Biso   1.000  H
  C117     1.0000 0.76603  0.53140  0.73890  Biso   1.000  C
  C118     1.0000 0.73397  0.03140  0.76110  Biso   1.000  C
  C119     1.0000 0.23397  0.46860  0.26110  Biso   1.000  C
  C120     1.0000 0.26603  0.96860  0.23890  Biso   1.000  C
  H69      1.0000 0.74150  0.50570  0.76420  Biso   1.000  H
  H70      1.0000 0.75850  0.00570  0.73580  Biso   1.000  H
  H71      1.0000 0.25850  0.49430  0.23580  Biso   1.000  H
  H72      1.0000 0.24150  0.99430  0.26420  Biso   1.000  H
  C121     1.0000 0.73561  0.59808  0.69888  Biso   1.000  C
  C122     1.0000 0.76439  0.09808  0.80112  Biso   1.000  C
  C123     1.0000 0.26439  0.40192  0.30112  Biso   1.000  C
  C124     1.0000 0.23561  0.90192  0.19888  Biso   1.000  C
  C125     1.0000 0.77525  0.63712  0.66541  Biso   1.000  C
  C126     1.0000 0.72475  0.13712  0.83459  Biso   1.000  C
  C127     1.0000 0.22475  0.36288  0.33459  Biso   1.000  C
  C128     1.0000 0.27525  0.86288  0.16541  Biso   1.000  C
  H73      1.0000 0.75480  0.68220  0.63760  Biso   1.000  H
  H74      1.0000 0.74520  0.18220  0.86240  Biso   1.000  H
  H75      1.0000 0.24520  0.31780  0.36240  Biso   1.000  H
  H76      1.0000 0.25480  0.81780  0.13760  Biso   1.000  H
  C129     1.0000 0.84566  0.60890  0.67341  Biso   1.000  C
  C130     1.0000 0.65434  0.10890  0.82659  Biso   1.000  C
  C131     1.0000 0.15434  0.39110  0.32659  Biso   1.000  C
  C132     1.0000 0.34566  0.89110  0.17341  Biso   1.000  C
  H77      1.0000 0.87320  0.63630  0.65210  Biso   1.000  H
  H78      1.0000 0.62680  0.13630  0.84790  Biso   1.000  H
  H79      1.0000 0.12680  0.36370  0.34790  Biso   1.000  H
  H80      1.0000 0.37320  0.86370  0.15210  Biso   1.000  H
  C133     1.0000 0.66128  0.62612  0.69491  Biso   1.000  C
  C134     1.0000 0.83872  0.12612  0.80509  Biso   1.000  C
  C135     1.0000 0.33872  0.37388  0.30509  Biso   1.000  C
  C136     1.0000 0.16128  0.87388  0.19491  Biso   1.000  C
  C137     1.0000 0.14182  0.46253  0.81764  Biso   1.000  C
  C138     1.0000 0.35818  0.96253  0.68236  Biso   1.000  C
  C139     1.0000 0.85818  0.53747  0.18236  Biso   1.000  C
  C140     1.0000 0.64182  0.03747  0.31764  Biso   1.000  C
  H81      1.0000 0.13240  0.48110  0.85760  Biso   1.000  H
  H82      1.0000 0.36760  0.98110  0.64240  Biso   1.000  H
  H83      1.0000 0.86760  0.51890  0.14240  Biso   1.000  H
  H84      1.0000 0.63240  0.01890  0.35760  Biso   1.000  H
  C141     1.0000 0.21217  0.42826  0.83385  Biso   1.000  C
  C142     1.0000 0.28783  0.92826  0.66615  Biso   1.000  C
  C143     1.0000 0.78783  0.57174  0.16615  Biso   1.000  C
  C144     1.0000 0.71217  0.07174  0.33385  Biso   1.000  C
  H85      1.0000 0.24780  0.41960  0.88380  Biso   1.000  H
  H86      1.0000 0.25220  0.91960  0.61620  Biso   1.000  H
  H87      1.0000 0.75220  0.58040  0.11620  Biso   1.000  H
  H88      1.0000 0.74780  0.08040  0.38380  Biso   1.000  H
  C145     1.0000 0.22839  0.40698  0.77376  Biso   1.000  C
  C146     1.0000 0.27161  0.90698  0.72624  Biso   1.000  C
  C147     1.0000 0.77161  0.59302  0.22624  Biso   1.000  C
  C148     1.0000 0.72839  0.09302  0.27376  Biso   1.000  C
  C149     1.0000 0.17337  0.41883  0.70040  Biso   1.000  C
  C150     1.0000 0.32663  0.91883  0.79960  Biso   1.000  C
  C151     1.0000 0.82663  0.58117  0.29960  Biso   1.000  C
  C152     1.0000 0.67337  0.08117  0.20040  Biso   1.000  C
  H89      1.0000 0.18330  0.40640  0.65920  Biso   1.000  H
  H90      1.0000 0.31670  0.90640  0.84080  Biso   1.000  H
  H91      1.0000 0.81670  0.59360  0.34080  Biso   1.000  H
  H92      1.0000 0.68330  0.09360  0.15920  Biso   1.000  H
  C153     1.0000 0.10424  0.44909  0.68995  Biso   1.000  C
  C154     1.0000 0.39576  0.94909  0.81005  Biso   1.000  C
  C155     1.0000 0.89576  0.55091  0.31005  Biso   1.000  C
  C156     1.0000 0.60424  0.05091  0.18995  Biso   1.000  C
  H93      1.0000 0.06660  0.45580  0.64040  Biso   1.000  H
  H94      1.0000 0.43340  0.95580  0.85960  Biso   1.000  H
  H95      1.0000 0.93340  0.54420  0.35960  Biso   1.000  H
  H96      1.0000 0.56660  0.04420  0.14040  Biso   1.000  H
  C157     1.0000 0.30338  0.37064  0.78377  Biso   1.000  C
  C158     1.0000 0.19662  0.87064  0.71623  Biso   1.000  C
  C159     1.0000 0.69662  0.62936  0.21623  Biso   1.000  C
  C160     1.0000 0.80338  0.12936  0.28377  Biso   1.000  C
  Cu1      1.0000 0.51929  0.00651  0.77154  Biso   1.000  Cu
  Cu2      1.0000 0.98071  0.50651  0.72846  Biso   1.000  Cu
  Cu3      1.0000 0.48071  0.99349  0.22846  Biso   1.000  Cu
  Cu4      1.0000 0.01929  0.49349  0.27154  Biso   1.000  Cu
  F1       1.0000 0.59068  0.47007  0.78745  Biso   1.000  F
  F2       1.0000 0.90932  0.97007  0.71255  Biso   1.000  F
  F3       1.0000 0.40932  0.52993  0.21255  Biso   1.000  F
  F4       1.0000 0.09068  0.02993  0.28745  Biso   1.000  F
  F5       1.0000 0.48265  0.36283  0.76045  Biso   1.000  F
  F6       1.0000 0.01735  0.86283  0.73955  Biso   1.000  F
  F7       1.0000 0.51735  0.63717  0.23955  Biso   1.000  F
  F8       1.0000 0.98265  0.13717  0.26045  Biso   1.000  F
  F9       1.0000 0.50869  0.39439  0.01197  Biso   1.000  F
  F10      1.0000 0.99131  0.89439  0.48803  Biso   1.000  F
  F11      1.0000 0.49131  0.60561  0.98803  Biso   1.000  F
  F12      1.0000 0.00869  0.10561  0.51197  Biso   1.000  F
  F13      1.0000 0.61902  0.49896  0.03861  Biso   1.000  F
  F14      1.0000 0.88098  0.99896  0.46139  Biso   1.000  F
  F15      1.0000 0.38098  0.50104  0.96139  Biso   1.000  F
  F16      1.0000 0.11902  0.00104  0.53861  Biso   1.000  F
  F17      1.0000 0.38289  0.50729  0.69585  Biso   1.000  F
  F18      1.0000 0.11711  0.00729  0.80415  Biso   1.000  F
  F19      1.0000 0.61711  0.49271  0.30415  Biso   1.000  F
  F20      1.0000 0.88289  0.99271  0.19585  Biso   1.000  F
  F21      1.0000 0.48238  0.62114  0.72663  Biso   1.000  F
  F22      1.0000 0.01762  0.12114  0.77337  Biso   1.000  F
  F23      1.0000 0.51762  0.37886  0.27337  Biso   1.000  F
  F24      1.0000 0.98238  0.87886  0.22663  Biso   1.000  F
  F25      1.0000 0.46957  0.60334  0.47974  Biso   1.000  F
  F26      1.0000 0.03043  0.10334  0.02026  Biso   1.000  F
  F27      1.0000 0.53043  0.39666  0.52026  Biso   1.000  F
  F28      1.0000 0.96957  0.89666  0.97974  Biso   1.000  F
  F29      1.0000 0.36526  0.49116  0.44679  Biso   1.000  F
  F30      1.0000 0.13474  0.99116  0.05321  Biso   1.000  F
  F31      1.0000 0.63474  0.50884  0.55321  Biso   1.000  F
  F32      1.0000 0.86526  0.00884  0.94679  Biso   1.000  F
  N1       1.0000 0.56143  0.90475  0.82700  Biso   1.000  N
  N2       1.0000 0.93857  0.40475  0.67300  Biso   1.000  N
  N3       1.0000 0.43857  0.09525  0.17300  Biso   1.000  N
  N4       1.0000 0.06143  0.59525  0.32700  Biso   1.000  N
  N5       1.0000 0.47487  0.10256  0.70721  Biso   1.000  N
  N6       1.0000 0.02513  0.60256  0.79279  Biso   1.000  N
  N7       1.0000 0.52513  0.89744  0.29279  Biso   1.000  N
  N8       1.0000 0.97487  0.39744  0.20721  Biso   1.000  N
  N9       1.0000 0.87486  0.54301  0.71123  Biso   1.000  N
  N10      1.0000 0.62514  0.04301  0.78877  Biso   1.000  N
  N11      1.0000 0.12514  0.45699  0.28877  Biso   1.000  N
  N12      1.0000 0.37486  0.95699  0.21123  Biso   1.000  N
  N13      1.0000 0.08716  0.46998  0.74733  Biso   1.000  N
  N14      1.0000 0.41284  0.96998  0.75267  Biso   1.000  N
  N15      1.0000 0.91284  0.53002  0.25267  Biso   1.000  N
  N16      1.0000 0.58716  0.03002  0.24733  Biso   1.000  N
  N17      1.0000 0.64036  0.62481  0.89541  Biso   1.000  N
  N18      1.0000 0.85964  0.12481  0.60459  Biso   1.000  N
  N19      1.0000 0.35964  0.37519  0.10459  Biso   1.000  N
  N20      1.0000 0.14036  0.87519  0.39541  Biso   1.000  N
  H97      1.0000 0.59300  0.61700  0.85900  Biso   1.000  H
  H98      1.0000 0.90700  0.11700  0.64100  Biso   1.000  H
  H99      1.0000 0.40700  0.38300  0.14100  Biso   1.000  H
  H100     1.0000 0.09300  0.88300  0.35900  Biso   1.000  H
  N21      1.0000 0.34528  0.35981  0.59700  Biso   1.000  N
  N22      1.0000 0.15472  0.85981  0.90300  Biso   1.000  N
  N23      1.0000 0.65472  0.64019  0.40300  Biso   1.000  N
  N24      1.0000 0.84528  0.14019  0.09700  Biso   1.000  N
  H101     1.0000 0.38200  0.37500  0.64400  Biso   1.000  H
  H102     1.0000 0.11800  0.87500  0.85600  Biso   1.000  H
  H103     1.0000 0.61800  0.62500  0.35600  Biso   1.000  H
  H104     1.0000 0.88200  0.12500  0.14400  Biso   1.000  H
  N25      1.0000 0.61237  0.65851  0.62898  Biso   1.000  N
  N26      1.0000 0.88763  0.15851  0.87102  Biso   1.000  N
  N27      1.0000 0.38763  0.34149  0.37102  Biso   1.000  N
  N28      1.0000 0.11237  0.84149  0.12898  Biso   1.000  N
  H105     1.0000 0.59500  0.61900  0.58700  Biso   1.000  H
  H106     1.0000 0.90500  0.11900  0.91300  Biso   1.000  H
  H107     1.0000 0.40500  0.38100  0.41300  Biso   1.000  H
  H108     1.0000 0.09500  0.88100  0.08700  Biso   1.000  H
  N29      1.0000 0.35380  0.35363  0.85396  Biso   1.000  N
  N30      1.0000 0.14620  0.85363  0.64604  Biso   1.000  N
  N31      1.0000 0.64620  0.64637  0.14604  Biso   1.000  N
  N32      1.0000 0.85380  0.14637  0.35396  Biso   1.000  N
  H109     1.0000 0.36800  0.39700  0.88300  Biso   1.000  H
  H110     1.0000 0.13200  0.89700  0.61700  Biso   1.000  H
  H111     1.0000 0.63200  0.60300  0.11700  Biso   1.000  H
  H112     1.0000 0.86800  0.10300  0.38300  Biso   1.000  H
  O1       1.0000 0.65640  0.67875  0.00624  Biso   1.000  O
  O2       1.0000 0.84360  0.17875  0.49376  Biso   1.000  O
  O3       1.0000 0.34360  0.32125  0.99376  Biso   1.000  O
  O4       1.0000 0.15640  0.82125  0.50624  Biso   1.000  O
  O5       1.0000 0.38211  0.31287  0.51039  Biso   1.000  O
  O6       1.0000 0.11789  0.81287  0.98961  Biso   1.000  O
  O7       1.0000 0.61789  0.68713  0.48961  Biso   1.000  O
  O8       1.0000 0.88211  0.18713  0.01039  Biso   1.000  O
  O9       1.0000 0.64627  0.61865  0.75129  Biso   1.000  O
  O10      1.0000 0.85373  0.11865  0.74871  Biso   1.000  O
  O11      1.0000 0.35373  0.38135  0.24871  Biso   1.000  O
  O12      1.0000 0.14627  0.88135  0.25129  Biso   1.000  O
  O13      1.0000 0.31537  0.35969  0.72870  Biso   1.000  O
  O14      1.0000 0.18463  0.85969  0.77130  Biso   1.000  O
  O15      1.0000 0.68463  0.64031  0.27130  Biso   1.000  O
  O16      1.0000 0.81537  0.14031  0.22870  Biso   1.000  O
  O17      1.0000 0.52819  0.06809  0.88895  Biso   1.000  O
  O18      1.0000 0.97181  0.56809  0.61105  Biso   1.000  O
  O19      1.0000 0.47181  0.93191  0.11105  Biso   1.000  O
  O20      1.0000 0.02819  0.43191  0.38895  Biso   1.000  O
  O21      1.0000 0.62438  0.09101  0.00123  Biso   1.000  O
  O22      1.0000 0.87562  0.59101  0.49877  Biso   1.000  O
  O23      1.0000 0.37562  0.90899  0.99877  Biso   1.000  O
  O24      1.0000 0.12438  0.40899  0.50123  Biso   1.000  O
  Cl1      1.0000 0.55120  0.11508  0.95234  Biso   1.000  Cl
  Cl2      1.0000 0.94880  0.61508  0.54766  Biso   1.000  Cl
  Cl3      1.0000 0.44880  0.88492  0.04766  Biso   1.000  Cl
  Cl4      1.0000 0.05120  0.38492  0.45234  Biso   1.000  Cl
  Cl5      1.0000 0.45648  0.90064  0.57217  Biso   1.000  Cl
  Cl6      1.0000 0.04352  0.40064  0.92783  Biso   1.000  Cl
  Cl7      1.0000 0.54352  0.09936  0.42783  Biso   1.000  Cl
  Cl8      1.0000 0.95648  0.59936  0.07217  Biso   1.000  Cl
  O25      1.0000 0.55831  0.19122  0.92057  Biso   1.000  O
  O26      1.0000 0.94169  0.69122  0.57943  Biso   1.000  O
  O27      1.0000 0.44169  0.80878  0.07943  Biso   1.000  O
  O28      1.0000 0.05831  0.30878  0.42057  Biso   1.000  O
  O29      1.0000 0.50169  0.12127  0.98078  Biso   1.000  O
  O30      1.0000 0.99831  0.62127  0.51922  Biso   1.000  O
  O31      1.0000 0.49831  0.87873  0.01922  Biso   1.000  O
  O32      1.0000 0.00169  0.37873  0.48078  Biso   1.000  O
  O33      1.0000 0.42198  0.82954  0.59960  Biso   1.000  O
  O34      1.0000 0.07802  0.32954  0.90040  Biso   1.000  O
  O35      1.0000 0.57802  0.17046  0.40040  Biso   1.000  O
  O36      1.0000 0.92198  0.67046  0.09960  Biso   1.000  O
  O37      1.0000 0.48108  0.86941  0.52286  Biso   1.000  O
  O38      1.0000 0.01892  0.36941  0.97714  Biso   1.000  O
  O39      1.0000 0.51892  0.13059  0.47714  Biso   1.000  O
  O40      1.0000 0.98108  0.63059  0.02286  Biso   1.000  O
  O41      1.0000 0.50227  0.94212  0.63899  Biso   1.000  O
  O42      1.0000 0.99773  0.44212  0.86101  Biso   1.000  O
  O43      1.0000 0.49773  0.05788  0.36101  Biso   1.000  O
  O44      1.0000 0.00227  0.55788  0.13899  Biso   1.000  O
  O45      1.0000 0.38688  0.94239  0.52529  Biso   1.000  O
  O46      1.0000 0.11312  0.44239  0.97471  Biso   1.000  O
  O47      1.0000 0.61312  0.05761  0.47471  Biso   1.000  O
  O48      1.0000 0.88688  0.55761  0.02529  Biso   1.000  O
  O49      1.0000 0.17360  0.60370  0.07040  Biso   1.000  O
  O50      1.0000 0.32640  0.10370  0.42960  Biso   1.000  O
  O51      1.0000 0.82640  0.39630  0.92960  Biso   1.000  O
  O52      1.0000 0.67360  0.89630  0.57040  Biso   1.000  O
  H113     1.0000 0.20390  0.57880  0.05730  Biso   1.000  H
  H114     1.0000 0.29610  0.07880  0.44270  Biso   1.000  H
  H115     1.0000 0.79610  0.42120  0.94270  Biso   1.000  H
  H116     1.0000 0.70390  0.92120  0.55730  Biso   1.000  H
  H117     1.0000 0.13700  0.57410  0.06660  Biso   1.000  H
  H118     1.0000 0.36300  0.07410  0.43340  Biso   1.000  H
  H119     1.0000 0.86300  0.42590  0.93340  Biso   1.000  H
  H120     1.0000 0.63700  0.92590  0.56660  Biso   1.000  H
  O53      1.0000 0.23470  0.63890  0.00940  Biso   1.000  O
  O54      1.0000 0.26530  0.13890  0.49060  Biso   1.000  O
  O55      1.0000 0.76530  0.36110  0.99060  Biso   1.000  O
  O56      1.0000 0.73470  0.86110  0.50940  Biso   1.000  O
  H121     1.0000 0.21130  0.62420  0.96320  Biso   1.000  H
  H122     1.0000 0.28870  0.12420  0.53680  Biso   1.000  H
  H123     1.0000 0.78870  0.37580  0.03680  Biso   1.000  H
  H124     1.0000 0.71130  0.87580  0.46320  Biso   1.000  H
  H125     1.0000 0.23860  0.68820  0.01090  Biso   1.000  H
  H126     1.0000 0.26140  0.18820  0.48910  Biso   1.000  H
  H127     1.0000 0.76140  0.31180  0.98910  Biso   1.000  H
  H128     1.0000 0.73860  0.81180  0.51090  Biso   1.000  H
  O57      1.0000 0.32610  0.75060  0.87170  Biso   1.000  O
  O58      1.0000 0.17390  0.25060  0.62830  Biso   1.000  O
  O59      1.0000 0.67390  0.24940  0.12830  Biso   1.000  O
  O60      1.0000 0.82610  0.74940  0.37170  Biso   1.000  O
  H129     1.0000 0.28700  0.77380  0.87060  Biso   1.000  H
  H130     1.0000 0.21300  0.27380  0.62940  Biso   1.000  H
  H131     1.0000 0.71300  0.22620  0.12940  Biso   1.000  H
  H132     1.0000 0.78700  0.72620  0.37060  Biso   1.000  H
  H133     1.0000 0.33040  0.70620  0.89260  Biso   1.000  H
  H134     1.0000 0.16960  0.20620  0.60740  Biso   1.000  H
  H135     1.0000 0.66960  0.29380  0.10740  Biso   1.000  H
  H136     1.0000 0.83040  0.79380  0.39260  Biso   1.000  H
  O61      1.0000 0.17890  0.28800  0.02820  Biso   1.000  O
  O62      1.0000 0.32110  0.78800  0.47180  Biso   1.000  O
  O63      1.0000 0.82110  0.71200  0.97180  Biso   1.000  O
  O64      1.0000 0.67890  0.21200  0.52820  Biso   1.000  O
  H137     1.0000 0.13260  0.27800  0.99830  Biso   1.000  H
  H138     1.0000 0.36740  0.77800  0.50170  Biso   1.000  H
  H139     1.0000 0.86740  0.72200  0.00170  Biso   1.000  H
  H140     1.0000 0.63260  0.22200  0.49830  Biso   1.000  H
  H141     1.0000 0.20720  0.25090  0.02670  Biso   1.000  H
  H142     1.0000 0.29280  0.75090  0.47330  Biso   1.000  H
  H143     1.0000 0.79280  0.74910  0.97330  Biso   1.000  H
  H144     1.0000 0.70720  0.24910  0.52670  Biso   1.000  H
  O65      1.0000 0.25680  0.64890  0.73100  Biso   1.000  O
  O66      1.0000 0.24320  0.14890  0.76900  Biso   1.000  O
  O67      1.0000 0.74320  0.35110  0.26900  Biso   1.000  O
  O68      1.0000 0.75680  0.85110  0.23100  Biso   1.000  O
  H145     1.0000 0.25920  0.61820  0.76630  Biso   1.000  H
  H146     1.0000 0.24080  0.11820  0.73370  Biso   1.000  H
  H147     1.0000 0.74080  0.38180  0.23370  Biso   1.000  H
  H148     1.0000 0.75920  0.88180  0.26630  Biso   1.000  H
  H149     1.0000 0.21880  0.67960  0.71670  Biso   1.000  H
  H150     1.0000 0.28120  0.17960  0.78330  Biso   1.000  H
  H151     1.0000 0.78120  0.32040  0.28330  Biso   1.000  H
  H152     1.0000 0.71880  0.82040  0.21670  Biso   1.000  H
  O69      1.0000 0.28780  0.69320  0.66270  Biso   1.000  O
  O70      1.0000 0.21220  0.19320  0.83730  Biso   1.000  O
  O71      1.0000 0.71220  0.30680  0.33730  Biso   1.000  O
  O72      1.0000 0.78780  0.80680  0.16270  Biso   1.000  O
  H153     1.0000 0.31000  0.66470  0.64260  Biso   1.000  H
  H154     1.0000 0.19000  0.16470  0.85740  Biso   1.000  H
  H155     1.0000 0.69000  0.33530  0.35740  Biso   1.000  H
  H156     1.0000 0.81000  0.83530  0.14260  Biso   1.000  H
  H157     1.0000 0.26370  0.73240  0.63680  Biso   1.000  H
  H158     1.0000 0.23630  0.23240  0.86320  Biso   1.000  H
  H159     1.0000 0.73630  0.26760  0.36320  Biso   1.000  H
  H160     1.0000 0.76370  0.76760  0.13680  Biso   1.000  H
  O73      1.0000 0.68790  0.30180  0.68330  Biso   1.000  O
  O74      1.0000 0.81210  0.80180  0.81670  Biso   1.000  O
  O75      1.0000 0.31210  0.69820  0.31670  Biso   1.000  O
  O76      1.0000 0.18790  0.19820  0.18330  Biso   1.000  O
  H161     1.0000 0.67790  0.26120  0.65570  Biso   1.000  H
  H162     1.0000 0.82210  0.76120  0.84430  Biso   1.000  H
  H163     1.0000 0.32210  0.73880  0.34430  Biso   1.000  H
  H164     1.0000 0.17790  0.23880  0.15570  Biso   1.000  H
  H165     1.0000 0.66870  0.34130  0.65510  Biso   1.000  H
  H166     1.0000 0.83130  0.84130  0.84490  Biso   1.000  H
  H167     1.0000 0.33130  0.65870  0.34490  Biso   1.000  H
  H168     1.0000 0.16870  0.15870  0.15510  Biso   1.000  H
