data_image0
_cell_length_a       34.332
_cell_length_b       10.1706
_cell_length_c       15.999
_cell_angle_alpha    90
_cell_angle_beta     102.726
_cell_angle_gamma    90

_symmetry_space_group_name_H-M    "P 1"
_symmetry_int_tables_number       1

loop_
  _symmetry_equiv_pos_as_xyz
  'x, y, z'

loop_
  _atom_site_label
  _atom_site_occupancy
  _atom_site_fract_x
  _atom_site_fract_y
  _atom_site_fract_z
  _atom_site_thermal_displace_type
  _atom_site_B_iso_or_equiv
  _atom_site_type_symbol
  Cu1      1.0000 0.25761  0.50101  0.47719  Biso   1.000  Cu
  Cu2      1.0000 0.74239  0.00101  0.02281  Biso   1.000  Cu
  Cu3      1.0000 0.74239  0.49899  0.52281  Biso   1.000  Cu
  Cu4      1.0000 0.25761  0.99899  0.97719  Biso   1.000  Cu
  Br1      1.0000 0.32182  0.49077  0.38491  Biso   1.000  Br
  Br2      1.0000 0.67818  0.99077  0.11509  Biso   1.000  Br
  Br3      1.0000 0.67818  0.50923  0.61509  Biso   1.000  Br
  Br4      1.0000 0.32182  0.00923  0.88491  Biso   1.000  Br
  N1       1.0000 0.27962  0.35170  0.55590  Biso   1.000  N
  N2       1.0000 0.72038  0.85170  0.94410  Biso   1.000  N
  N3       1.0000 0.72038  0.64830  0.44410  Biso   1.000  N
  N4       1.0000 0.27962  0.14830  0.05590  Biso   1.000  N
  C1       1.0000 0.31910  0.34050  0.58350  Biso   1.000  C
  C2       1.0000 0.68090  0.84050  0.91650  Biso   1.000  C
  C3       1.0000 0.68090  0.65950  0.41650  Biso   1.000  C
  C4       1.0000 0.31910  0.15950  0.08350  Biso   1.000  C
  H1       1.0000 0.33580  0.39760  0.56260  Biso   1.000  H
  H2       1.0000 0.66420  0.89760  0.93740  Biso   1.000  H
  H3       1.0000 0.66420  0.60240  0.43740  Biso   1.000  H
  H4       1.0000 0.33580  0.10240  0.06260  Biso   1.000  H
  C5       1.0000 0.33570  0.24480  0.64330  Biso   1.000  C
  C6       1.0000 0.66430  0.74480  0.85670  Biso   1.000  C
  C7       1.0000 0.66430  0.75520  0.35670  Biso   1.000  C
  C8       1.0000 0.33570  0.25520  0.14330  Biso   1.000  C
  C9       1.0000 0.31080  0.16100  0.67380  Biso   1.000  C
  C10      1.0000 0.68920  0.66100  0.82620  Biso   1.000  C
  C11      1.0000 0.68920  0.83900  0.32620  Biso   1.000  C
  C12      1.0000 0.31080  0.33900  0.17380  Biso   1.000  C
  H5       1.0000 0.32120  0.09630  0.71360  Biso   1.000  H
  H6       1.0000 0.67880  0.59630  0.78640  Biso   1.000  H
  H7       1.0000 0.67880  0.90370  0.28640  Biso   1.000  H
  H8       1.0000 0.32120  0.40370  0.21360  Biso   1.000  H
  C13      1.0000 0.27140  0.17410  0.64540  Biso   1.000  C
  C14      1.0000 0.72860  0.67410  0.85460  Biso   1.000  C
  C15      1.0000 0.72860  0.82590  0.35460  Biso   1.000  C
  C16      1.0000 0.27140  0.32590  0.14540  Biso   1.000  C
  H9       1.0000 0.25410  0.11860  0.66590  Biso   1.000  H
  H10      1.0000 0.74590  0.61860  0.83410  Biso   1.000  H
  H11      1.0000 0.74590  0.88140  0.33410  Biso   1.000  H
  H12      1.0000 0.25410  0.38140  0.16590  Biso   1.000  H
  C17      1.0000 0.25620  0.26930  0.58580  Biso   1.000  C
  C18      1.0000 0.74380  0.76930  0.91420  Biso   1.000  C
  C19      1.0000 0.74380  0.73070  0.41420  Biso   1.000  C
  C20      1.0000 0.25620  0.23070  0.08580  Biso   1.000  C
  H13      1.0000 0.22870  0.27580  0.56600  Biso   1.000  H
  H14      1.0000 0.77130  0.77580  0.93400  Biso   1.000  H
  H15      1.0000 0.77130  0.72420  0.43400  Biso   1.000  H
  H16      1.0000 0.22870  0.22420  0.06600  Biso   1.000  H
  O1       1.0000 0.37587  0.23830  0.67270  Biso   1.000  O
  O2       1.0000 0.62413  0.73830  0.82730  Biso   1.000  O
  O3       1.0000 0.62413  0.76170  0.32730  Biso   1.000  O
  O4       1.0000 0.37587  0.26170  0.17270  Biso   1.000  O
  Si1      1.0000 0.41145  0.20400  0.62243  Biso   1.000  Si
  Si2      1.0000 0.58855  0.70400  0.87757  Biso   1.000  Si
  Si3      1.0000 0.58855  0.79600  0.37757  Biso   1.000  Si
  Si4      1.0000 0.41145  0.29600  0.12243  Biso   1.000  Si
  O5       1.0000 0.39538  0.09250  0.55140  Biso   1.000  O
  O6       1.0000 0.60462  0.59250  0.94860  Biso   1.000  O
  O7       1.0000 0.60462  0.90750  0.44860  Biso   1.000  O
  O8       1.0000 0.39538  0.40750  0.05140  Biso   1.000  O
  Si5      1.0000 0.38018  0.95690  0.50488  Biso   1.000  Si
  Si6      1.0000 0.61982  0.45690  0.99512  Biso   1.000  Si
  Si7      1.0000 0.61982  0.04310  0.49512  Biso   1.000  Si
  Si8      1.0000 0.38018  0.54310  0.00488  Biso   1.000  Si
  O9       1.0000 0.37080  0.86240  0.57970  Biso   1.000  O
  O10      1.0000 0.62920  0.36240  0.92030  Biso   1.000  O
  O11      1.0000 0.62920  0.13760  0.42030  Biso   1.000  O
  O12      1.0000 0.37080  0.63760  0.07970  Biso   1.000  O
  C21      1.0000 0.34120  0.79280  0.60140  Biso   1.000  C
  C22      1.0000 0.65880  0.29280  0.89860  Biso   1.000  C
  C23      1.0000 0.65880  0.20720  0.39860  Biso   1.000  C
  C24      1.0000 0.34120  0.70720  0.10140  Biso   1.000  C
  C25      1.0000 0.31770  0.70680  0.54380  Biso   1.000  C
  C26      1.0000 0.68230  0.20680  0.95620  Biso   1.000  C
  C27      1.0000 0.68230  0.29320  0.45620  Biso   1.000  C
  C28      1.0000 0.31770  0.79320  0.04380  Biso   1.000  C
  H17      1.0000 0.32160  0.70230  0.48820  Biso   1.000  H
  H18      1.0000 0.67840  0.20230  0.01180  Biso   1.000  H
  H19      1.0000 0.67840  0.29770  0.51180  Biso   1.000  H
  H20      1.0000 0.32160  0.79770  0.98820  Biso   1.000  H
  N5       1.0000 0.29012  0.63160  0.56480  Biso   1.000  N
  N6       1.0000 0.70988  0.13160  0.93520  Biso   1.000  N
  N7       1.0000 0.70988  0.36840  0.43520  Biso   1.000  N
  N8       1.0000 0.29012  0.86840  0.06480  Biso   1.000  N
  C29      1.0000 0.28460  0.63960  0.64430  Biso   1.000  C
  C30      1.0000 0.71540  0.13960  0.85570  Biso   1.000  C
  C31      1.0000 0.71540  0.36040  0.35570  Biso   1.000  C
  C32      1.0000 0.28460  0.86040  0.14430  Biso   1.000  C
  H21      1.0000 0.26530  0.58630  0.66000  Biso   1.000  H
  H22      1.0000 0.73470  0.08630  0.84000  Biso   1.000  H
  H23      1.0000 0.73470  0.41370  0.34000  Biso   1.000  H
  H24      1.0000 0.26530  0.91370  0.16000  Biso   1.000  H
  C33      1.0000 0.30610  0.72320  0.70370  Biso   1.000  C
  C34      1.0000 0.69390  0.22320  0.79630  Biso   1.000  C
  C35      1.0000 0.69390  0.27680  0.29630  Biso   1.000  C
  C36      1.0000 0.30610  0.77680  0.20370  Biso   1.000  C
  H25      1.0000 0.30120  0.72650  0.75860  Biso   1.000  H
  H26      1.0000 0.69880  0.22650  0.74140  Biso   1.000  H
  H27      1.0000 0.69880  0.27350  0.24140  Biso   1.000  H
  H28      1.0000 0.30120  0.77350  0.25860  Biso   1.000  H
  C37      1.0000 0.33450  0.80120  0.68300  Biso   1.000  C
  C38      1.0000 0.66550  0.30120  0.81700  Biso   1.000  C
  C39      1.0000 0.66550  0.19880  0.31700  Biso   1.000  C
  C40      1.0000 0.33450  0.69880  0.18300  Biso   1.000  C
  H29      1.0000 0.34910  0.85910  0.72290  Biso   1.000  H
  H30      1.0000 0.65090  0.35910  0.77710  Biso   1.000  H
  H31      1.0000 0.65090  0.14090  0.27710  Biso   1.000  H
  H32      1.0000 0.34910  0.64090  0.22290  Biso   1.000  H
  C41      1.0000 0.42120  0.35560  0.56640  Biso   1.000  C
  C42      1.0000 0.57880  0.85560  0.93360  Biso   1.000  C
  C43      1.0000 0.57880  0.64440  0.43360  Biso   1.000  C
  C44      1.0000 0.42120  0.14440  0.06640  Biso   1.000  C
  H33      1.0000 0.39770  0.36710  0.51940  Biso   1.000  H
  H34      1.0000 0.60230  0.86710  0.98060  Biso   1.000  H
  H35      1.0000 0.60230  0.63290  0.48060  Biso   1.000  H
  H36      1.0000 0.39770  0.13290  0.01940  Biso   1.000  H
  C45      1.0000 0.42410  0.48240  0.61910  Biso   1.000  C
  C46      1.0000 0.57590  0.98240  0.88090  Biso   1.000  C
  C47      1.0000 0.57590  0.51760  0.38090  Biso   1.000  C
  C48      1.0000 0.42410  0.01760  0.11910  Biso   1.000  C
  H37      1.0000 0.40160  0.48860  0.64520  Biso   1.000  H
  H38      1.0000 0.59840  0.98860  0.85480  Biso   1.000  H
  H39      1.0000 0.59840  0.51140  0.35480  Biso   1.000  H
  H40      1.0000 0.40160  0.01140  0.14520  Biso   1.000  H
  H41      1.0000 0.42440  0.55670  0.58230  Biso   1.000  H
  H42      1.0000 0.57560  0.05670  0.91770  Biso   1.000  H
  H43      1.0000 0.57560  0.44330  0.41770  Biso   1.000  H
  H44      1.0000 0.42440  0.94330  0.08230  Biso   1.000  H
  H45      1.0000 0.44830  0.48120  0.66290  Biso   1.000  H
  H46      1.0000 0.55170  0.98120  0.83710  Biso   1.000  H
  H47      1.0000 0.55170  0.51880  0.33710  Biso   1.000  H
  H48      1.0000 0.44830  0.01880  0.16290  Biso   1.000  H
  C49      1.0000 0.45490  0.34200  0.52550  Biso   1.000  C
  C50      1.0000 0.54510  0.84200  0.97450  Biso   1.000  C
  C51      1.0000 0.54510  0.65800  0.47450  Biso   1.000  C
  C52      1.0000 0.45490  0.15800  0.02550  Biso   1.000  C
  H49      1.0000 0.45230  0.26190  0.49300  Biso   1.000  H
  H50      1.0000 0.54770  0.76190  0.00700  Biso   1.000  H
  H51      1.0000 0.54770  0.73810  0.50700  Biso   1.000  H
  H52      1.0000 0.45230  0.23810  0.99300  Biso   1.000  H
  H53      1.0000 0.47930  0.33980  0.56850  Biso   1.000  H
  H54      1.0000 0.52070  0.83980  0.93150  Biso   1.000  H
  H55      1.0000 0.52070  0.66020  0.43150  Biso   1.000  H
  H56      1.0000 0.47930  0.16020  0.06850  Biso   1.000  H
  H57      1.0000 0.45550  0.41540  0.48800  Biso   1.000  H
  H58      1.0000 0.54450  0.91540  0.01200  Biso   1.000  H
  H59      1.0000 0.54450  0.58460  0.51200  Biso   1.000  H
  H60      1.0000 0.45550  0.08460  0.98800  Biso   1.000  H
  C53      1.0000 0.45260  0.14020  0.70940  Biso   1.000  C
  C54      1.0000 0.54740  0.64020  0.79060  Biso   1.000  C
  C55      1.0000 0.54740  0.85980  0.29060  Biso   1.000  C
  C56      1.0000 0.45260  0.35980  0.20940  Biso   1.000  C
  H61      1.0000 0.47340  0.10790  0.68150  Biso   1.000  H
  H62      1.0000 0.52660  0.60790  0.81850  Biso   1.000  H
  H63      1.0000 0.52660  0.89210  0.31850  Biso   1.000  H
  H64      1.0000 0.47340  0.39210  0.18150  Biso   1.000  H
  C57      1.0000 0.47110  0.24090  0.76990  Biso   1.000  C
  C58      1.0000 0.52890  0.74090  0.73010  Biso   1.000  C
  C59      1.0000 0.52890  0.75910  0.23010  Biso   1.000  C
  C60      1.0000 0.47110  0.25910  0.26990  Biso   1.000  C
  H65      1.0000 0.47940  0.31310  0.73930  Biso   1.000  H
  H66      1.0000 0.52060  0.81310  0.76070  Biso   1.000  H
  H67      1.0000 0.52060  0.68690  0.26070  Biso   1.000  H
  H68      1.0000 0.47940  0.18690  0.23930  Biso   1.000  H
  H69      1.0000 0.49400  0.20450  0.80860  Biso   1.000  H
  H70      1.0000 0.50600  0.70450  0.69140  Biso   1.000  H
  H71      1.0000 0.50600  0.79550  0.19140  Biso   1.000  H
  H72      1.0000 0.49400  0.29550  0.30860  Biso   1.000  H
  H73      1.0000 0.45230  0.27130  0.80180  Biso   1.000  H
  H74      1.0000 0.54770  0.77130  0.69820  Biso   1.000  H
  H75      1.0000 0.54770  0.72870  0.19820  Biso   1.000  H
  H76      1.0000 0.45230  0.22870  0.30180  Biso   1.000  H
  C61      1.0000 0.43890  0.02310  0.75380  Biso   1.000  C
  C62      1.0000 0.56110  0.52310  0.74620  Biso   1.000  C
  C63      1.0000 0.56110  0.97690  0.24620  Biso   1.000  C
  C64      1.0000 0.43890  0.47690  0.25380  Biso   1.000  C
  H77      1.0000 0.42690  0.95930  0.71170  Biso   1.000  H
  H78      1.0000 0.57310  0.45930  0.78830  Biso   1.000  H
  H79      1.0000 0.57310  0.04070  0.28830  Biso   1.000  H
  H80      1.0000 0.42690  0.54070  0.21170  Biso   1.000  H
  H81      1.0000 0.41970  0.05130  0.78550  Biso   1.000  H
  H82      1.0000 0.58030  0.55130  0.71450  Biso   1.000  H
  H83      1.0000 0.58030  0.94870  0.21450  Biso   1.000  H
  H84      1.0000 0.41970  0.44870  0.28550  Biso   1.000  H
  H85      1.0000 0.46140  0.98440  0.79230  Biso   1.000  H
  H86      1.0000 0.53860  0.48440  0.70770  Biso   1.000  H
  H87      1.0000 0.53860  0.01560  0.20770  Biso   1.000  H
  H88      1.0000 0.46140  0.51560  0.29230  Biso   1.000  H
  C65      1.0000 0.42260  0.88260  0.46750  Biso   1.000  C
  C66      1.0000 0.57740  0.38260  0.03250  Biso   1.000  C
  C67      1.0000 0.57740  0.11740  0.53250  Biso   1.000  C
  C68      1.0000 0.42260  0.61740  0.96750  Biso   1.000  C
  H89      1.0000 0.43150  0.95370  0.43470  Biso   1.000  H
  H90      1.0000 0.56850  0.45370  0.06530  Biso   1.000  H
  H91      1.0000 0.56850  0.04630  0.56530  Biso   1.000  H
  H92      1.0000 0.43150  0.54630  0.93470  Biso   1.000  H
  C69      1.0000 0.45780  0.85650  0.53530  Biso   1.000  C
  C70      1.0000 0.54220  0.35650  0.96470  Biso   1.000  C
  C71      1.0000 0.54220  0.14350  0.46470  Biso   1.000  C
  C72      1.0000 0.45780  0.64350  0.03530  Biso   1.000  C
  H93      1.0000 0.46260  0.93010  0.57380  Biso   1.000  H
  H94      1.0000 0.53740  0.43010  0.92620  Biso   1.000  H
  H95      1.0000 0.53740  0.06990  0.42620  Biso   1.000  H
  H96      1.0000 0.46260  0.56990  0.07380  Biso   1.000  H
  H97      1.0000 0.48050  0.84320  0.51050  Biso   1.000  H
  H98      1.0000 0.51950  0.34320  0.98950  Biso   1.000  H
  H99      1.0000 0.51950  0.15680  0.48950  Biso   1.000  H
  H100     1.0000 0.48050  0.65680  0.01050  Biso   1.000  H
  H101     1.0000 0.45330  0.77910  0.56620  Biso   1.000  H
  H102     1.0000 0.54670  0.27910  0.93380  Biso   1.000  H
  H103     1.0000 0.54670  0.22090  0.43380  Biso   1.000  H
  H104     1.0000 0.45330  0.72090  0.06620  Biso   1.000  H
  C73      1.0000 0.41240  0.77760  0.40500  Biso   1.000  C
  C74      1.0000 0.58760  0.27760  0.09500  Biso   1.000  C
  C75      1.0000 0.58760  0.22240  0.59500  Biso   1.000  C
  C76      1.0000 0.41240  0.72240  0.90500  Biso   1.000  C
  H105     1.0000 0.38910  0.80200  0.36270  Biso   1.000  H
  H106     1.0000 0.61090  0.30200  0.13730  Biso   1.000  H
  H107     1.0000 0.61090  0.19800  0.63730  Biso   1.000  H
  H108     1.0000 0.38910  0.69800  0.86270  Biso   1.000  H
  H109     1.0000 0.40710  0.69860  0.43340  Biso   1.000  H
  H110     1.0000 0.59290  0.19860  0.06660  Biso   1.000  H
  H111     1.0000 0.59290  0.30140  0.56660  Biso   1.000  H
  H112     1.0000 0.40710  0.80140  0.93340  Biso   1.000  H
  H113     1.0000 0.43430  0.76290  0.37770  Biso   1.000  H
  H114     1.0000 0.56570  0.26290  0.12230  Biso   1.000  H
  H115     1.0000 0.56570  0.23710  0.62230  Biso   1.000  H
  H116     1.0000 0.43430  0.73710  0.87770  Biso   1.000  H
  C77      1.0000 0.33530  0.97840  0.41760  Biso   1.000  C
  C78      1.0000 0.66470  0.47840  0.08240  Biso   1.000  C
  C79      1.0000 0.66470  0.02160  0.58240  Biso   1.000  C
  C80      1.0000 0.33530  0.52160  0.91760  Biso   1.000  C
  H117     1.0000 0.32970  0.89290  0.38920  Biso   1.000  H
  H118     1.0000 0.67030  0.39290  0.11080  Biso   1.000  H
  H119     1.0000 0.67030  0.10710  0.61080  Biso   1.000  H
  H120     1.0000 0.32970  0.60710  0.88920  Biso   1.000  H
  C81      1.0000 0.29730  0.01860  0.44900  Biso   1.000  C
  C82      1.0000 0.70270  0.51860  0.05100  Biso   1.000  C
  C83      1.0000 0.70270  0.98140  0.55100  Biso   1.000  C
  C84      1.0000 0.29730  0.48140  0.94900  Biso   1.000  C
  H121     1.0000 0.29290  0.95730  0.49170  Biso   1.000  H
  H122     1.0000 0.70710  0.45730  0.00830  Biso   1.000  H
  H123     1.0000 0.70710  0.04270  0.50830  Biso   1.000  H
  H124     1.0000 0.29290  0.54270  0.99170  Biso   1.000  H
  H125     1.0000 0.27470  0.01810  0.40150  Biso   1.000  H
  H126     1.0000 0.72530  0.51810  0.09850  Biso   1.000  H
  H127     1.0000 0.72530  0.98190  0.59850  Biso   1.000  H
  H128     1.0000 0.27470  0.48190  0.90150  Biso   1.000  H
  H129     1.0000 0.30080  0.10520  0.47340  Biso   1.000  H
  H130     1.0000 0.69920  0.60520  0.02660  Biso   1.000  H
  H131     1.0000 0.69920  0.89480  0.52660  Biso   1.000  H
  H132     1.0000 0.30080  0.39480  0.97340  Biso   1.000  H
  C85      1.0000 0.34240  0.07650  0.34910  Biso   1.000  C
  C86      1.0000 0.65760  0.57650  0.15090  Biso   1.000  C
  C87      1.0000 0.65760  0.92350  0.65090  Biso   1.000  C
  C88      1.0000 0.34240  0.42350  0.84910  Biso   1.000  C
  H133     1.0000 0.36590  0.05150  0.32970  Biso   1.000  H
  H134     1.0000 0.63410  0.55150  0.17030  Biso   1.000  H
  H135     1.0000 0.63410  0.94850  0.67030  Biso   1.000  H
  H136     1.0000 0.36590  0.44850  0.82970  Biso   1.000  H
  H137     1.0000 0.34600  0.16320  0.37340  Biso   1.000  H
  H138     1.0000 0.65400  0.66320  0.12660  Biso   1.000  H
  H139     1.0000 0.65400  0.83680  0.62660  Biso   1.000  H
  H140     1.0000 0.34600  0.33680  0.87340  Biso   1.000  H
  H141     1.0000 0.31980  0.07610  0.30150  Biso   1.000  H
  H142     1.0000 0.68020  0.57610  0.19850  Biso   1.000  H
  H143     1.0000 0.68020  0.92390  0.69850  Biso   1.000  H
  H144     1.0000 0.31980  0.42390  0.80150  Biso   1.000  H
  N9       1.0000 0.22056  0.37350  0.39670  Biso   1.000  N
  N10      1.0000 0.77944  0.87350  0.10330  Biso   1.000  N
  N11      1.0000 0.77944  0.62650  0.60330  Biso   1.000  N
  N12      1.0000 0.22056  0.12650  0.89670  Biso   1.000  N
  C89      1.0000 0.18100  0.36900  0.39140  Biso   1.000  C
  C90      1.0000 0.81900  0.86900  0.10860  Biso   1.000  C
  C91      1.0000 0.81900  0.63100  0.60860  Biso   1.000  C
  C92      1.0000 0.18100  0.13100  0.89140  Biso   1.000  C
  H145     1.0000 0.16980  0.42530  0.42550  Biso   1.000  H
  H146     1.0000 0.83020  0.92530  0.07450  Biso   1.000  H
  H147     1.0000 0.83020  0.57470  0.57450  Biso   1.000  H
  H148     1.0000 0.16980  0.07470  0.92550  Biso   1.000  H
  C93      1.0000 0.15660  0.28420  0.33760  Biso   1.000  C
  C94      1.0000 0.84340  0.78420  0.16240  Biso   1.000  C
  C95      1.0000 0.84340  0.71580  0.66240  Biso   1.000  C
  C96      1.0000 0.15660  0.21580  0.83760  Biso   1.000  C
  C97      1.0000 0.17280  0.20220  0.28610  Biso   1.000  C
  C98      1.0000 0.82720  0.70220  0.21390  Biso   1.000  C
  C99      1.0000 0.82720  0.79780  0.71390  Biso   1.000  C
  C100     1.0000 0.17280  0.29780  0.78610  Biso   1.000  C
  H149     1.0000 0.15670  0.14430  0.24870  Biso   1.000  H
  H150     1.0000 0.84330  0.64430  0.25130  Biso   1.000  H
  H151     1.0000 0.84330  0.85570  0.75130  Biso   1.000  H
  H152     1.0000 0.15670  0.35570  0.74870  Biso   1.000  H
  C101     1.0000 0.21240  0.20720  0.29050  Biso   1.000  C
  C102     1.0000 0.78760  0.70720  0.20950  Biso   1.000  C
  C103     1.0000 0.78760  0.79280  0.70950  Biso   1.000  C
  C104     1.0000 0.21240  0.29280  0.79050  Biso   1.000  C
  H153     1.0000 0.22370  0.15370  0.25520  Biso   1.000  H
  H154     1.0000 0.77630  0.65370  0.24480  Biso   1.000  H
  H155     1.0000 0.77630  0.84630  0.74480  Biso   1.000  H
  H156     1.0000 0.22370  0.34630  0.75520  Biso   1.000  H
  C105     1.0000 0.23630  0.29200  0.34770  Biso   1.000  C
  C106     1.0000 0.76370  0.79200  0.15230  Biso   1.000  C
  C107     1.0000 0.76370  0.70800  0.65230  Biso   1.000  C
  C108     1.0000 0.23630  0.20800  0.84770  Biso   1.000  C
  H157     1.0000 0.26370  0.29200  0.35200  Biso   1.000  H
  H158     1.0000 0.73630  0.79200  0.14800  Biso   1.000  H
  H159     1.0000 0.73630  0.70800  0.64800  Biso   1.000  H
  H160     1.0000 0.26370  0.20800  0.85200  Biso   1.000  H
  O13      1.0000 0.11686  0.28570  0.33830  Biso   1.000  O
  O14      1.0000 0.88314  0.78570  0.16170  Biso   1.000  O
  O15      1.0000 0.88314  0.71430  0.66170  Biso   1.000  O
  O16      1.0000 0.11686  0.21430  0.83830  Biso   1.000  O
  Si9      1.0000 0.08180  0.17200  0.32484  Biso   1.000  Si
  Si10     1.0000 0.91820  0.67200  0.17516  Biso   1.000  Si
  Si11     1.0000 0.91820  0.82800  0.67516  Biso   1.000  Si
  Si12     1.0000 0.08180  0.32800  0.82484  Biso   1.000  Si
  O17      1.0000 0.10057  0.03610  0.36620  Biso   1.000  O
  O18      1.0000 0.89943  0.53610  0.13380  Biso   1.000  O
  O19      1.0000 0.89943  0.96390  0.63380  Biso   1.000  O
  O20      1.0000 0.10057  0.46390  0.86620  Biso   1.000  O
  Si13     1.0000 0.12319  0.93690  0.43967  Biso   1.000  Si
  Si14     1.0000 0.87681  0.43690  0.06033  Biso   1.000  Si
  Si15     1.0000 0.87681  0.06310  0.56033  Biso   1.000  Si
  Si16     1.0000 0.12319  0.56310  0.93967  Biso   1.000  Si
  O21      1.0000 0.17008  0.93090  0.43140  Biso   1.000  O
  O22      1.0000 0.82992  0.43090  0.06860  Biso   1.000  O
  O23      1.0000 0.82992  0.06910  0.56860  Biso   1.000  O
  O24      1.0000 0.17008  0.56910  0.93140  Biso   1.000  O
  C109     1.0000 0.18940  0.84200  0.39250  Biso   1.000  C
  C110     1.0000 0.81060  0.34200  0.10750  Biso   1.000  C
  C111     1.0000 0.81060  0.15800  0.60750  Biso   1.000  C
  C112     1.0000 0.18940  0.65800  0.89250  Biso   1.000  C
  C113     1.0000 0.20990  0.74130  0.44070  Biso   1.000  C
  C114     1.0000 0.79010  0.24130  0.05930  Biso   1.000  C
  C115     1.0000 0.79010  0.25870  0.55930  Biso   1.000  C
  C116     1.0000 0.20990  0.75870  0.94070  Biso   1.000  C
  H161     1.0000 0.20950  0.73600  0.49850  Biso   1.000  H
  H162     1.0000 0.79050  0.23600  0.00150  Biso   1.000  H
  H163     1.0000 0.79050  0.26400  0.50150  Biso   1.000  H
  H164     1.0000 0.20950  0.76400  0.99850  Biso   1.000  H
  N13      1.0000 0.23041  0.65130  0.40740  Biso   1.000  N
  N14      1.0000 0.76959  0.15130  0.09260  Biso   1.000  N
  N15      1.0000 0.76959  0.34870  0.59260  Biso   1.000  N
  N16      1.0000 0.23041  0.84870  0.90740  Biso   1.000  N
  C117     1.0000 0.23020  0.65890  0.32420  Biso   1.000  C
  C118     1.0000 0.76980  0.15890  0.17580  Biso   1.000  C
  C119     1.0000 0.76980  0.34110  0.67580  Biso   1.000  C
  C120     1.0000 0.23020  0.84110  0.82420  Biso   1.000  C
  H165     1.0000 0.24360  0.59470  0.29990  Biso   1.000  H
  H166     1.0000 0.75640  0.09470  0.20010  Biso   1.000  H
  H167     1.0000 0.75640  0.40530  0.70010  Biso   1.000  H
  H168     1.0000 0.24360  0.90530  0.79990  Biso   1.000  H
  C121     1.0000 0.21090  0.75890  0.27310  Biso   1.000  C
  C122     1.0000 0.78910  0.25890  0.22690  Biso   1.000  C
  C123     1.0000 0.78910  0.24110  0.72690  Biso   1.000  C
  C124     1.0000 0.21090  0.74110  0.77310  Biso   1.000  C
  H169     1.0000 0.21230  0.76440  0.21580  Biso   1.000  H
  H170     1.0000 0.78770  0.26440  0.28420  Biso   1.000  H
  H171     1.0000 0.78770  0.23560  0.78420  Biso   1.000  H
  H172     1.0000 0.21230  0.73560  0.71580  Biso   1.000  H
  C125     1.0000 0.18990  0.84950  0.30750  Biso   1.000  C
  C126     1.0000 0.81010  0.34950  0.19250  Biso   1.000  C
  C127     1.0000 0.81010  0.15050  0.69250  Biso   1.000  C
  C128     1.0000 0.18990  0.65050  0.80750  Biso   1.000  C
  H173     1.0000 0.17590  0.91580  0.27360  Biso   1.000  H
  H174     1.0000 0.82410  0.41580  0.22640  Biso   1.000  H
  H175     1.0000 0.82410  0.08420  0.72640  Biso   1.000  H
  H176     1.0000 0.17590  0.58420  0.77360  Biso   1.000  H
  C129     1.0000 0.04540  0.23470  0.38630  Biso   1.000  C
  C130     1.0000 0.95460  0.73470  0.11370  Biso   1.000  C
  C131     1.0000 0.95460  0.76530  0.61370  Biso   1.000  C
  C132     1.0000 0.04540  0.26530  0.88630  Biso   1.000  C
  H177     1.0000 0.05830  0.20070  0.44290  Biso   1.000  H
  H178     1.0000 0.94170  0.70070  0.05710  Biso   1.000  H
  H179     1.0000 0.94170  0.79930  0.55710  Biso   1.000  H
  H180     1.0000 0.05830  0.29930  0.94290  Biso   1.000  H
  C133     1.0000 0.04480  0.37360  0.40840  Biso   1.000  C
  C134     1.0000 0.95520  0.87360  0.09160  Biso   1.000  C
  C135     1.0000 0.95520  0.62640  0.59160  Biso   1.000  C
  C136     1.0000 0.04480  0.12640  0.90840  Biso   1.000  C
  H181     1.0000 0.07090  0.41040  0.41290  Biso   1.000  H
  H182     1.0000 0.92910  0.91040  0.08710  Biso   1.000  H
  H183     1.0000 0.92910  0.58960  0.58710  Biso   1.000  H
  H184     1.0000 0.07090  0.08960  0.91290  Biso   1.000  H
  H185     1.0000 0.03700  0.38280  0.46220  Biso   1.000  H
  H186     1.0000 0.96300  0.88280  0.03780  Biso   1.000  H
  H187     1.0000 0.96300  0.61720  0.53780  Biso   1.000  H
  H188     1.0000 0.03700  0.11720  0.96220  Biso   1.000  H
  H189     1.0000 0.02600  0.41910  0.36460  Biso   1.000  H
  H190     1.0000 0.97400  0.91910  0.13540  Biso   1.000  H
  H191     1.0000 0.97400  0.58090  0.63540  Biso   1.000  H
  H192     1.0000 0.02600  0.08090  0.86460  Biso   1.000  H
  C137     1.0000 0.00610  0.17130  0.37820  Biso   1.000  C
  C138     1.0000 0.99390  0.67130  0.12180  Biso   1.000  C
  C139     1.0000 0.99390  0.82870  0.62180  Biso   1.000  C
  C140     1.0000 0.00610  0.32870  0.87820  Biso   1.000  C
  H193     1.0000 0.00800  0.08030  0.36370  Biso   1.000  H
  H194     1.0000 0.99200  0.58030  0.13630  Biso   1.000  H
  H195     1.0000 0.99200  0.91970  0.63630  Biso   1.000  H
  H196     1.0000 0.00800  0.41970  0.86370  Biso   1.000  H
  H197     1.0000 0.98680  0.21440  0.33400  Biso   1.000  H
  H198     1.0000 0.01320  0.71440  0.16600  Biso   1.000  H
  H199     1.0000 0.01320  0.78560  0.66600  Biso   1.000  H
  H200     1.0000 0.98680  0.28560  0.83400  Biso   1.000  H
  H201     1.0000 0.99790  0.17810  0.43160  Biso   1.000  H
  H202     1.0000 0.00210  0.67810  0.06840  Biso   1.000  H
  H203     1.0000 0.00210  0.82190  0.56840  Biso   1.000  H
  H204     1.0000 0.99790  0.32190  0.93160  Biso   1.000  H
  C141     1.0000 0.05860  0.14950  0.21040  Biso   1.000  C
  C142     1.0000 0.94140  0.64950  0.28960  Biso   1.000  C
  C143     1.0000 0.94140  0.85050  0.78960  Biso   1.000  C
  C144     1.0000 0.05860  0.35050  0.71040  Biso   1.000  C
  H205     1.0000 0.03130  0.12210  0.21090  Biso   1.000  H
  H206     1.0000 0.96870  0.62210  0.28910  Biso   1.000  H
  H207     1.0000 0.96870  0.87790  0.78910  Biso   1.000  H
  H208     1.0000 0.03130  0.37790  0.71090  Biso   1.000  H
  C145     1.0000 0.05280  0.27810  0.16270  Biso   1.000  C
  C146     1.0000 0.94720  0.77810  0.33730  Biso   1.000  C
  C147     1.0000 0.94720  0.72190  0.83730  Biso   1.000  C
  C148     1.0000 0.05280  0.22190  0.66270  Biso   1.000  C
  H209     1.0000 0.04300  0.34280  0.19660  Biso   1.000  H
  H210     1.0000 0.95700  0.84280  0.30340  Biso   1.000  H
  H211     1.0000 0.95700  0.65720  0.80340  Biso   1.000  H
  H212     1.0000 0.04300  0.15720  0.69660  Biso   1.000  H
  H213     1.0000 0.03390  0.26670  0.10930  Biso   1.000  H
  H214     1.0000 0.96610  0.76670  0.39070  Biso   1.000  H
  H215     1.0000 0.96610  0.73330  0.89070  Biso   1.000  H
  H216     1.0000 0.03390  0.23330  0.60930  Biso   1.000  H
  H217     1.0000 0.07790  0.30700  0.15190  Biso   1.000  H
  H218     1.0000 0.92210  0.80700  0.34810  Biso   1.000  H
  H219     1.0000 0.92210  0.69300  0.84810  Biso   1.000  H
  H220     1.0000 0.07790  0.19300  0.65190  Biso   1.000  H
  C149     1.0000 0.07360  0.04210  0.16570  Biso   1.000  C
  C150     1.0000 0.92640  0.54210  0.33430  Biso   1.000  C
  C151     1.0000 0.92640  0.95790  0.83430  Biso   1.000  C
  C152     1.0000 0.07360  0.45790  0.66570  Biso   1.000  C
  H221     1.0000 0.07630  0.96430  0.20060  Biso   1.000  H
  H222     1.0000 0.92370  0.46430  0.29940  Biso   1.000  H
  H223     1.0000 0.92370  0.03570  0.79940  Biso   1.000  H
  H224     1.0000 0.07630  0.53570  0.70060  Biso   1.000  H
  H225     1.0000 0.09910  0.06570  0.15490  Biso   1.000  H
  H226     1.0000 0.90090  0.56570  0.34510  Biso   1.000  H
  H227     1.0000 0.90090  0.93430  0.84510  Biso   1.000  H
  H228     1.0000 0.09910  0.43430  0.65490  Biso   1.000  H
  H229     1.0000 0.05510  0.02540  0.11230  Biso   1.000  H
  H230     1.0000 0.94490  0.52540  0.38770  Biso   1.000  H
  H231     1.0000 0.94490  0.97460  0.88770  Biso   1.000  H
  H232     1.0000 0.05510  0.47460  0.61230  Biso   1.000  H
  C153     1.0000 0.10050  0.76950  0.42270  Biso   1.000  C
  C154     1.0000 0.89950  0.26950  0.07730  Biso   1.000  C
  C155     1.0000 0.89950  0.23050  0.57730  Biso   1.000  C
  C156     1.0000 0.10050  0.73050  0.92270  Biso   1.000  C
  H233     1.0000 0.11930  0.70970  0.45900  Biso   1.000  H
  H234     1.0000 0.88070  0.20970  0.04100  Biso   1.000  H
  H235     1.0000 0.88070  0.29030  0.54100  Biso   1.000  H
  H236     1.0000 0.11930  0.79030  0.95900  Biso   1.000  H
  C157     1.0000 0.06190  0.76360  0.45590  Biso   1.000  C
  C158     1.0000 0.93810  0.26360  0.04410  Biso   1.000  C
  C159     1.0000 0.93810  0.23640  0.54410  Biso   1.000  C
  C160     1.0000 0.06190  0.73640  0.95590  Biso   1.000  C
  H237     1.0000 0.06680  0.79770  0.51320  Biso   1.000  H
  H238     1.0000 0.93320  0.29770  0.98680  Biso   1.000  H
  H239     1.0000 0.93320  0.20230  0.48680  Biso   1.000  H
  H240     1.0000 0.06680  0.70230  0.01320  Biso   1.000  H
  H241     1.0000 0.05310  0.67400  0.45580  Biso   1.000  H
  H242     1.0000 0.94690  0.17400  0.04420  Biso   1.000  H
  H243     1.0000 0.94690  0.32600  0.54420  Biso   1.000  H
  H244     1.0000 0.05310  0.82600  0.95580  Biso   1.000  H
  H245     1.0000 0.04170  0.81530  0.41940  Biso   1.000  H
  H246     1.0000 0.95830  0.31530  0.08060  Biso   1.000  H
  H247     1.0000 0.95830  0.18470  0.58060  Biso   1.000  H
  H248     1.0000 0.04170  0.68470  0.91940  Biso   1.000  H
  C161     1.0000 0.09430  0.71760  0.33400  Biso   1.000  C
  C162     1.0000 0.90570  0.21760  0.16600  Biso   1.000  C
  C163     1.0000 0.90570  0.28240  0.66600  Biso   1.000  C
  C164     1.0000 0.09430  0.78240  0.83400  Biso   1.000  C
  H249     1.0000 0.11900  0.72260  0.31500  Biso   1.000  H
  H250     1.0000 0.88100  0.22260  0.18500  Biso   1.000  H
  H251     1.0000 0.88100  0.27740  0.68500  Biso   1.000  H
  H252     1.0000 0.11900  0.77740  0.81500  Biso   1.000  H
  H253     1.0000 0.07430  0.76890  0.29660  Biso   1.000  H
  H254     1.0000 0.92570  0.26890  0.20340  Biso   1.000  H
  H255     1.0000 0.92570  0.23110  0.70340  Biso   1.000  H
  H256     1.0000 0.07430  0.73110  0.79660  Biso   1.000  H
  H257     1.0000 0.08580  0.62760  0.33300  Biso   1.000  H
  H258     1.0000 0.91420  0.12760  0.16700  Biso   1.000  H
  H259     1.0000 0.91420  0.37240  0.66700  Biso   1.000  H
  H260     1.0000 0.08580  0.87240  0.83300  Biso   1.000  H
  C165     1.0000 0.12510  0.01050  0.54620  Biso   1.000  C
  C166     1.0000 0.87490  0.51050  0.95380  Biso   1.000  C
  C167     1.0000 0.87490  0.98950  0.45380  Biso   1.000  C
  C168     1.0000 0.12510  0.48950  0.04620  Biso   1.000  C
  H261     1.0000 0.09770  0.02900  0.55120  Biso   1.000  H
  H262     1.0000 0.90230  0.52900  0.94880  Biso   1.000  H
  H263     1.0000 0.90230  0.97100  0.44880  Biso   1.000  H
  H264     1.0000 0.09770  0.47100  0.05120  Biso   1.000  H
  C169     1.0000 0.14390  0.91990  0.61850  Biso   1.000  C
  C170     1.0000 0.85610  0.41990  0.88150  Biso   1.000  C
  C171     1.0000 0.85610  0.08010  0.38150  Biso   1.000  C
  C172     1.0000 0.14390  0.58010  0.11850  Biso   1.000  C
  H265     1.0000 0.12960  0.83810  0.61290  Biso   1.000  H
  H266     1.0000 0.87040  0.33810  0.88710  Biso   1.000  H
  H267     1.0000 0.87040  0.16190  0.38710  Biso   1.000  H
  H268     1.0000 0.12960  0.66190  0.11290  Biso   1.000  H
  H269     1.0000 0.14290  0.96010  0.67230  Biso   1.000  H
  H270     1.0000 0.85710  0.46010  0.82770  Biso   1.000  H
  H271     1.0000 0.85710  0.03990  0.32770  Biso   1.000  H
  H272     1.0000 0.14290  0.53990  0.17230  Biso   1.000  H
  H273     1.0000 0.17130  0.90390  0.61640  Biso   1.000  H
  H274     1.0000 0.82870  0.40390  0.88360  Biso   1.000  H
  H275     1.0000 0.82870  0.09610  0.38360  Biso   1.000  H
  H276     1.0000 0.17130  0.59610  0.11640  Biso   1.000  H
  C173     1.0000 0.14830  0.13990  0.55630  Biso   1.000  C
  C174     1.0000 0.85170  0.63990  0.94370  Biso   1.000  C
  C175     1.0000 0.85170  0.86010  0.44370  Biso   1.000  C
  C176     1.0000 0.14830  0.36010  0.05630  Biso   1.000  C
  H277     1.0000 0.13660  0.19850  0.51060  Biso   1.000  H
  H278     1.0000 0.86340  0.69850  0.98940  Biso   1.000  H
  H279     1.0000 0.86340  0.80150  0.48940  Biso   1.000  H
  H280     1.0000 0.13660  0.30150  0.01060  Biso   1.000  H
  H281     1.0000 0.17560  0.12320  0.55440  Biso   1.000  H
  H282     1.0000 0.82440  0.62320  0.94560  Biso   1.000  H
  H283     1.0000 0.82440  0.87680  0.44560  Biso   1.000  H
  H284     1.0000 0.17560  0.37680  0.05440  Biso   1.000  H
  H285     1.0000 0.14730  0.17940  0.61030  Biso   1.000  H
  H286     1.0000 0.85270  0.67940  0.88970  Biso   1.000  H
  H287     1.0000 0.85270  0.82060  0.38970  Biso   1.000  H
  H288     1.0000 0.14730  0.32060  0.11030  Biso   1.000  H
  Br5      1.0000 0.18404  0.51849  0.59077  Biso   1.000  Br
  Br6      1.0000 0.81596  0.01849  0.90923  Biso   1.000  Br
  Br7      1.0000 0.81596  0.48151  0.40923  Biso   1.000  Br
  Br8      1.0000 0.18404  0.98151  0.09077  Biso   1.000  Br
  H289     1.0000 0.44220  0.86890  0.51970  Biso   1.000  H
  H290     1.0000 0.55780  0.36890  0.98030  Biso   1.000  H
  H291     1.0000 0.55780  0.13110  0.48030  Biso   1.000  H
  H292     1.0000 0.44220  0.63110  0.01970  Biso   1.000  H
  C177     1.0000 0.44640  0.95350  0.41330  Biso   1.000  C
  C178     1.0000 0.55360  0.45350  0.08670  Biso   1.000  C
  C179     1.0000 0.55360  0.04650  0.58670  Biso   1.000  C
  C180     1.0000 0.44640  0.54650  0.91330  Biso   1.000  C
  H293     1.0000 0.45110  0.04240  0.43320  Biso   1.000  H
  H294     1.0000 0.54890  0.54240  0.06680  Biso   1.000  H
  H295     1.0000 0.54890  0.95760  0.56680  Biso   1.000  H
  H296     1.0000 0.45110  0.45760  0.93320  Biso   1.000  H
  H297     1.0000 0.43190  0.95380  0.35470  Biso   1.000  H
  H298     1.0000 0.56810  0.45380  0.14530  Biso   1.000  H
  H299     1.0000 0.56810  0.04620  0.64530  Biso   1.000  H
  H300     1.0000 0.43190  0.54620  0.85470  Biso   1.000  H
  H301     1.0000 0.47160  0.90980  0.41740  Biso   1.000  H
  H302     1.0000 0.52840  0.40980  0.08260  Biso   1.000  H
  H303     1.0000 0.52840  0.09020  0.58260  Biso   1.000  H
  H304     1.0000 0.47160  0.59020  0.91740  Biso   1.000  H
  C181     1.0000 0.41620  0.74600  0.43480  Biso   1.000  C
  C182     1.0000 0.58380  0.24600  0.06520  Biso   1.000  C
  C183     1.0000 0.58380  0.25400  0.56520  Biso   1.000  C
  C184     1.0000 0.41620  0.75400  0.93480  Biso   1.000  C
  H305     1.0000 0.40100  0.69830  0.46840  Biso   1.000  H
  H306     1.0000 0.59900  0.19830  0.03160  Biso   1.000  H
  H307     1.0000 0.59900  0.30170  0.53160  Biso   1.000  H
  H308     1.0000 0.40100  0.80170  0.96840  Biso   1.000  H
  H309     1.0000 0.44150  0.70370  0.43870  Biso   1.000  H
  H310     1.0000 0.55850  0.20370  0.06130  Biso   1.000  H
  H311     1.0000 0.55850  0.29630  0.56130  Biso   1.000  H
  H312     1.0000 0.44150  0.79630  0.93870  Biso   1.000  H
  H313     1.0000 0.40190  0.74770  0.37600  Biso   1.000  H
  H314     1.0000 0.59810  0.24770  0.12400  Biso   1.000  H
  H315     1.0000 0.59810  0.25230  0.62400  Biso   1.000  H
  H316     1.0000 0.40190  0.75230  0.87600  Biso   1.000  H
  H317     1.0000 0.06090  0.25490  0.44240  Biso   1.000  H
  H318     1.0000 0.93910  0.75490  0.05760  Biso   1.000  H
  H319     1.0000 0.93910  0.74510  0.55760  Biso   1.000  H
  H320     1.0000 0.06090  0.24510  0.94240  Biso   1.000  H
  C185     1.0000 0.02710  0.36360  0.35820  Biso   1.000  C
  C186     1.0000 0.97290  0.86360  0.14180  Biso   1.000  C
  C187     1.0000 0.97290  0.63640  0.64180  Biso   1.000  C
  C188     1.0000 0.02710  0.13640  0.85820  Biso   1.000  C
  H321     1.0000 0.04770  0.42690  0.35730  Biso   1.000  H
  H322     1.0000 0.95230  0.92690  0.14270  Biso   1.000  H
  H323     1.0000 0.95230  0.57310  0.64270  Biso   1.000  H
  H324     1.0000 0.04770  0.07310  0.85730  Biso   1.000  H
  H325     1.0000 0.01120  0.39200  0.39740  Biso   1.000  H
  H326     1.0000 0.98880  0.89200  0.10260  Biso   1.000  H
  H327     1.0000 0.98880  0.60800  0.60260  Biso   1.000  H
  H328     1.0000 0.01120  0.10800  0.89740  Biso   1.000  H
  H329     1.0000 0.01040  0.35530  0.30180  Biso   1.000  H
  H330     1.0000 0.98960  0.85530  0.19820  Biso   1.000  H
  H331     1.0000 0.98960  0.64470  0.69820  Biso   1.000  H
  H332     1.0000 0.01040  0.14470  0.80180  Biso   1.000  H
  C189     1.0000 0.01190  0.13780  0.38680  Biso   1.000  C
  C190     1.0000 0.98810  0.63780  0.11320  Biso   1.000  C
  C191     1.0000 0.98810  0.86220  0.61320  Biso   1.000  C
  C192     1.0000 0.01190  0.36220  0.88680  Biso   1.000  C
  H333     1.0000 0.02300  0.05310  0.40480  Biso   1.000  H
  H334     1.0000 0.97700  0.55310  0.09520  Biso   1.000  H
  H335     1.0000 0.97700  0.94690  0.59520  Biso   1.000  H
  H336     1.0000 0.02300  0.44690  0.90480  Biso   1.000  H
  H337     1.0000 0.99530  0.13110  0.33020  Biso   1.000  H
  H338     1.0000 0.00470  0.63110  0.16980  Biso   1.000  H
  H339     1.0000 0.00470  0.86890  0.66980  Biso   1.000  H
  H340     1.0000 0.99530  0.36890  0.83020  Biso   1.000  H
  H341     1.0000 0.99610  0.16780  0.42580  Biso   1.000  H
  H342     1.0000 0.00390  0.66780  0.07420  Biso   1.000  H
  H343     1.0000 0.00390  0.83220  0.57420  Biso   1.000  H
  H344     1.0000 0.99610  0.33220  0.92580  Biso   1.000  H
