data_image0
_cell_length_a       8.23
_cell_length_b       9.858
_cell_length_c       12.717
_cell_angle_alpha    92.48
_cell_angle_beta     99.785
_cell_angle_gamma    103.22

_symmetry_space_group_name_H-M    "P 1"
_symmetry_int_tables_number       1

loop_
  _symmetry_equiv_pos_as_xyz
  'x, y, z'

loop_
  _atom_site_label
  _atom_site_occupancy
  _atom_site_fract_x
  _atom_site_fract_y
  _atom_site_fract_z
  _atom_site_thermal_displace_type
  _atom_site_B_iso_or_equiv
  _atom_site_type_symbol
  Cu1      1.0000 0.92637  0.37350  0.52476  Biso   1.000  Cu
  Cu2      1.0000 0.07363  0.62650  0.47524  Biso   1.000  Cu
  N1       1.0000 0.80530  0.16360  0.56060  Biso   1.000  N
  N2       1.0000 0.19470  0.83640  0.43940  Biso   1.000  N
  C1       1.0000 0.71630  0.13910  0.63990  Biso   1.000  C
  C2       1.0000 0.28370  0.86090  0.36010  Biso   1.000  C
  H1       1.0000 0.71170  0.21460  0.68470  Biso   1.000  H
  H2       1.0000 0.28830  0.78540  0.31530  Biso   1.000  H
  C3       1.0000 0.63140  0.00710  0.65760  Biso   1.000  C
  C4       1.0000 0.36860  0.99290  0.34240  Biso   1.000  C
  C5       1.0000 0.63820  0.89540  0.59120  Biso   1.000  C
  C6       1.0000 0.36180  0.10460  0.40880  Biso   1.000  C
  H3       1.0000 0.57980  0.80540  0.60030  Biso   1.000  H
  H4       1.0000 0.42020  0.19460  0.39970  Biso   1.000  H
  C7       1.0000 0.73170  0.91810  0.51180  Biso   1.000  C
  C8       1.0000 0.26830  0.08190  0.48820  Biso   1.000  C
  H5       1.0000 0.74050  0.84380  0.46730  Biso   1.000  H
  H6       1.0000 0.25950  0.15620  0.53270  Biso   1.000  H
  C9       1.0000 0.81280  0.05400  0.49870  Biso   1.000  C
  C10      1.0000 0.18720  0.94600  0.50130  Biso   1.000  C
  H7       1.0000 0.87540  0.06920  0.44410  Biso   1.000  H
  H8       1.0000 0.12460  0.93080  0.55590  Biso   1.000  H
  C11      1.0000 0.53050  0.98090  0.74680  Biso   1.000  C
  C12      1.0000 0.46950  0.01910  0.25320  Biso   1.000  C
  H9       1.0000 0.41070  0.94940  0.71590  Biso   1.000  H
  H10      1.0000 0.58930  0.05060  0.28410  Biso   1.000  H
  H11      1.0000 0.56340  0.90700  0.78690  Biso   1.000  H
  H12      1.0000 0.43660  0.09300  0.21310  Biso   1.000  H
  O1       1.0000 0.55540  0.09940  0.81610  Biso   1.000  O
  O2       1.0000 0.44460  0.90060  0.18390  Biso   1.000  O
  Si1      1.0000 0.48450  0.12464  0.92473  Biso   1.000  Si
  Si2      1.0000 0.51550  0.87536  0.07527  Biso   1.000  Si
  O3       1.0000 0.50000  0.00000  0.00000  Biso   1.000  O
  C13      1.0000 0.59210  0.30140  0.97760  Biso   1.000  C
  C14      1.0000 0.40790  0.69860  0.02240  Biso   1.000  C
  H13      1.0000 0.52880  0.36840  0.94810  Biso   1.000  H
  H14      1.0000 0.47120  0.63160  0.05190  Biso   1.000  H
  C15      1.0000 0.77850  0.33680  0.95340  Biso   1.000  C
  C16      1.0000 0.22150  0.66320  0.04660  Biso   1.000  C
  H15      1.0000 0.77390  0.32640  0.87750  Biso   1.000  H
  H16      1.0000 0.22610  0.67360  0.12250  Biso   1.000  H
  H17      1.0000 0.84030  0.27410  0.98760  Biso   1.000  H
  H18      1.0000 0.15970  0.72590  0.01240  Biso   1.000  H
  H19      1.0000 0.83460  0.43140  0.98040  Biso   1.000  H
  H20      1.0000 0.16540  0.56860  0.01960  Biso   1.000  H
  C17      1.0000 0.64650  0.32890  0.10880  Biso   1.000  C
  C18      1.0000 0.35350  0.67110  0.89120  Biso   1.000  C
  H21      1.0000 0.54610  0.31210  0.14000  Biso   1.000  H
  H22      1.0000 0.45390  0.68790  0.86000  Biso   1.000  H
  H23      1.0000 0.70960  0.42390  0.12790  Biso   1.000  H
  H24      1.0000 0.29040  0.57610  0.87210  Biso   1.000  H
  H25      1.0000 0.71540  0.26670  0.13510  Biso   1.000  H
  H26      1.0000 0.28460  0.73330  0.86490  Biso   1.000  H
  C19      1.0000 0.67620  0.27400  0.00560  Biso   1.000  C
  C20      1.0000 0.32380  0.72600  0.99440  Biso   1.000  C
  H27      1.0000 0.77500  0.24130  0.03930  Biso   1.000  H
  H28      1.0000 0.22500  0.75870  0.96070  Biso   1.000  H
  C21      1.0000 0.71500  0.39030  0.93480  Biso   1.000  C
  C22      1.0000 0.28500  0.60970  0.06520  Biso   1.000  C
  H29      1.0000 0.77370  0.36270  0.88150  Biso   1.000  H
  H30      1.0000 0.22630  0.63730  0.11850  Biso   1.000  H
  H31      1.0000 0.78520  0.47240  0.97710  Biso   1.000  H
  H32      1.0000 0.21480  0.52760  0.02290  Biso   1.000  H
  H33      1.0000 0.61090  0.41020  0.90030  Biso   1.000  H
  H34      1.0000 0.38910  0.58980  0.09970  Biso   1.000  H
  C23      1.0000 0.57780  0.34030  0.08970  Biso   1.000  C
  C24      1.0000 0.42220  0.65970  0.91030  Biso   1.000  C
  H35      1.0000 0.54630  0.27350  0.13990  Biso   1.000  H
  H36      1.0000 0.45370  0.72650  0.86010  Biso   1.000  H
  H37      1.0000 0.47760  0.36190  0.05070  Biso   1.000  H
  H38      1.0000 0.52240  0.63810  0.94930  Biso   1.000  H
  H39      1.0000 0.65190  0.42400  0.12760  Biso   1.000  H
  H40      1.0000 0.34810  0.57600  0.87240  Biso   1.000  H
  C25      1.0000 0.24190  0.09080  0.89420  Biso   1.000  C
  C26      1.0000 0.75810  0.90920  0.10580  Biso   1.000  C
  H41      1.0000 0.17590  0.99390  0.89110  Biso   1.000  H
  H42      1.0000 0.82410  0.00610  0.10890  Biso   1.000  H
  C27      1.0000 0.18750  0.18260  0.80240  Biso   1.000  C
  C28      1.0000 0.81250  0.81740  0.19760  Biso   1.000  C
  H43      1.0000 0.19360  0.13960  0.73450  Biso   1.000  H
  H44      1.0000 0.80640  0.86040  0.26550  Biso   1.000  H
  H45      1.0000 0.26250  0.27430  0.81430  Biso   1.000  H
  H46      1.0000 0.73750  0.72570  0.18570  Biso   1.000  H
  H47      1.0000 0.07320  0.19000  0.80260  Biso   1.000  H
  H48      1.0000 0.92680  0.81000  0.19740  Biso   1.000  H
  C29      1.0000 0.20780  0.20940  0.98290  Biso   1.000  C
  C30      1.0000 0.79220  0.79060  0.01710  Biso   1.000  C
  H49      1.0000 0.23200  0.18120  0.05400  Biso   1.000  H
  H50      1.0000 0.76800  0.81880  0.94600  Biso   1.000  H
  H51      1.0000 0.09140  0.21500  0.96660  Biso   1.000  H
  H52      1.0000 0.90860  0.78500  0.03340  Biso   1.000  H
  H53      1.0000 0.28070  0.29930  0.97830  Biso   1.000  H
  H54      1.0000 0.71930  0.70070  0.02170  Biso   1.000  H
  C31      1.0000 0.27470  0.16760  0.89250  Biso   1.000  C
  C32      1.0000 0.72530  0.83240  0.10750  Biso   1.000  C
  H55      1.0000 0.27700  0.26520  0.87940  Biso   1.000  H
  H56      1.0000 0.72300  0.73480  0.12060  Biso   1.000  H
  C33      1.0000 0.14960  0.05670  0.81070  Biso   1.000  C
  C34      1.0000 0.85040  0.94330  0.18930  Biso   1.000  C
  H57      1.0000 0.18000  0.06660  0.74140  Biso   1.000  H
  H58      1.0000 0.82000  0.93340  0.25860  Biso   1.000  H
  H59      1.0000 0.03660  0.06910  0.80780  Biso   1.000  H
  H60      1.0000 0.96340  0.93090  0.19220  Biso   1.000  H
  H61      1.0000 0.15390  0.96510  0.83190  Biso   1.000  H
  H62      1.0000 0.84610  0.03490  0.16810  Biso   1.000  H
  C35      1.0000 0.16440  0.10190  0.98740  Biso   1.000  C
  C36      1.0000 0.83560  0.89810  0.01260  Biso   1.000  C
  H63      1.0000 0.21540  0.15370  0.05520  Biso   1.000  H
  H64      1.0000 0.78460  0.84630  0.94480  Biso   1.000  H
  H65      1.0000 0.16640  0.00540  0.99250  Biso   1.000  H
  H66      1.0000 0.83360  0.99460  0.00750  Biso   1.000  H
  H67      1.0000 0.04900  0.10940  0.96830  Biso   1.000  H
  H68      1.0000 0.95100  0.89060  0.03170  Biso   1.000  H
  O4       1.0000 0.98030  0.31220  0.38740  Biso   1.000  O
  O5       1.0000 0.01970  0.68780  0.61260  Biso   1.000  O
  O6       1.0000 0.10580  0.52450  0.34680  Biso   1.000  O
  O7       1.0000 0.89420  0.47550  0.65320  Biso   1.000  O
  C37      1.0000 0.05630  0.39380  0.32900  Biso   1.000  C
  C38      1.0000 0.94370  0.60620  0.67100  Biso   1.000  C
  C39      1.0000 0.09480  0.32790  0.22930  Biso   1.000  C
  C40      1.0000 0.90520  0.67210  0.77070  Biso   1.000  C
  H69      1.0000 0.00440  0.32550  0.17000  Biso   1.000  H
  H70      1.0000 0.99560  0.67450  0.83000  Biso   1.000  H
  H71      1.0000 0.10490  0.23440  0.24070  Biso   1.000  H
  H72      1.0000 0.89510  0.76560  0.75930  Biso   1.000  H
  H73      1.0000 0.19940  0.38210  0.21380  Biso   1.000  H
  H74      1.0000 0.80060  0.61790  0.78620  Biso   1.000  H
  O8       1.0000 0.71510  0.41180  0.44550  Biso   1.000  O
  O9       1.0000 0.28490  0.58820  0.55450  Biso   1.000  O
  O10      1.0000 0.83950  0.62470  0.40560  Biso   1.000  O
  O11      1.0000 0.16050  0.37530  0.59440  Biso   1.000  O
  C41      1.0000 0.71210  0.52500  0.40410  Biso   1.000  C
  C42      1.0000 0.28790  0.47500  0.59590  Biso   1.000  C
  C43      1.0000 0.54150  0.54330  0.34980  Biso   1.000  C
  C44      1.0000 0.45850  0.45670  0.65020  Biso   1.000  C
  H75      1.0000 0.47690  0.56020  0.40300  Biso   1.000  H
  H76      1.0000 0.52310  0.43980  0.59700  Biso   1.000  H
  H77      1.0000 0.48140  0.46010  0.30490  Biso   1.000  H
  H78      1.0000 0.51860  0.53990  0.69510  Biso   1.000  H
  H79      1.0000 0.55770  0.62140  0.30680  Biso   1.000  H
  H80      1.0000 0.44230  0.37860  0.69320  Biso   1.000  H
