data_image0
_cell_length_a       8.8035
_cell_length_b       18.0608
_cell_length_c       21.688
_cell_angle_alpha    69.004
_cell_angle_beta     89.527
_cell_angle_gamma    76.001

_symmetry_space_group_name_H-M    "P 1"
_symmetry_int_tables_number       1

loop_
  _symmetry_equiv_pos_as_xyz
  'x, y, z'

loop_
  _atom_site_label
  _atom_site_occupancy
  _atom_site_fract_x
  _atom_site_fract_y
  _atom_site_fract_z
  _atom_site_thermal_displace_type
  _atom_site_B_iso_or_equiv
  _atom_site_type_symbol
  Cu1      1.0000 0.22602  0.01228  0.25132  Biso   1.000  Cu
  Cu2      1.0000 0.77398  0.98772  0.74868  Biso   1.000  Cu
  O1       1.0000 0.50990  0.98190  0.24300  Biso   1.000  O
  O2       1.0000 0.49010  0.01810  0.75700  Biso   1.000  O
  H1       1.0000 0.58260  0.95230  0.27750  Biso   1.000  H
  H2       1.0000 0.41740  0.04770  0.72250  Biso   1.000  H
  H3       1.0000 0.55860  0.00240  0.20650  Biso   1.000  H
  H4       1.0000 0.44140  0.99760  0.79350  Biso   1.000  H
  O3       1.0000 0.93610  0.04520  0.25650  Biso   1.000  O
  O4       1.0000 0.06390  0.95480  0.74350  Biso   1.000  O
  H5       1.0000 0.86600  0.07650  0.22140  Biso   1.000  H
  H6       1.0000 0.13400  0.92350  0.77860  Biso   1.000  H
  H7       1.0000 0.89160  0.01940  0.29280  Biso   1.000  H
  H8       1.0000 0.10840  0.98060  0.70720  Biso   1.000  H
  N1       1.0000 0.24300  0.89350  0.30900  Biso   1.000  N
  N2       1.0000 0.75700  0.10650  0.69100  Biso   1.000  N
  C1       1.0000 0.35830  0.85220  0.35820  Biso   1.000  C
  C2       1.0000 0.64170  0.14780  0.64180  Biso   1.000  C
  H9       1.0000 0.43580  0.87750  0.36230  Biso   1.000  H
  H10      1.0000 0.56420  0.12250  0.63770  Biso   1.000  H
  C3       1.0000 0.36750  0.77390  0.40320  Biso   1.000  C
  C4       1.0000 0.63250  0.22610  0.59680  Biso   1.000  C
  C5       1.0000 0.25190  0.73700  0.39740  Biso   1.000  C
  C6       1.0000 0.74810  0.26300  0.60260  Biso   1.000  C
  H11      1.0000 0.25300  0.68490  0.42730  Biso   1.000  H
  H12      1.0000 0.74700  0.31510  0.57270  Biso   1.000  H
  C7       1.0000 0.13380  0.77850  0.34640  Biso   1.000  C
  C8       1.0000 0.86620  0.22150  0.65360  Biso   1.000  C
  H13      1.0000 0.05570  0.75410  0.34130  Biso   1.000  H
  H14      1.0000 0.94430  0.24590  0.65870  Biso   1.000  H
  C9       1.0000 0.13260  0.85600  0.30350  Biso   1.000  C
  C10      1.0000 0.86740  0.14400  0.69650  Biso   1.000  C
  H15      1.0000 0.05240  0.88340  0.26950  Biso   1.000  H
  H16      1.0000 0.94760  0.11660  0.73050  Biso   1.000  H
  C11      1.0000 0.50160  0.73440  0.45740  Biso   1.000  C
  C12      1.0000 0.49840  0.26560  0.54260  Biso   1.000  C
  H17      1.0000 0.60110  0.73160  0.43780  Biso   1.000  H
  H18      1.0000 0.39890  0.26840  0.56220  Biso   1.000  H
  H19      1.0000 0.49620  0.76740  0.48460  Biso   1.000  H
  H20      1.0000 0.50380  0.23260  0.51540  Biso   1.000  H
  O5       1.0000 0.49250  0.65460  0.49730  Biso   1.000  O
  O6       1.0000 0.50750  0.34540  0.50270  Biso   1.000  O
  Si1      1.0000 0.56619  0.60543  0.57462  Biso   1.000  Si
  Si2      1.0000 0.43381  0.39457  0.42538  Biso   1.000  Si
  O7       1.0000 0.48160  0.65390  0.62080  Biso   1.000  O
  O8       1.0000 0.51840  0.34610  0.37920  Biso   1.000  O
  Si3      1.0000 0.42150  0.72247  0.65303  Biso   1.000  Si
  Si4      1.0000 0.57850  0.27753  0.34697  Biso   1.000  Si
  O9       1.0000 0.51430  0.79300  0.61970  Biso   1.000  O
  O10      1.0000 0.48570  0.20700  0.38030  Biso   1.000  O
  C13      1.0000 0.46530  0.87600  0.59980  Biso   1.000  C
  C14      1.0000 0.53470  0.12400  0.40020  Biso   1.000  C
  H21      1.0000 0.38570  0.89070  0.62760  Biso   1.000  H
  H22      1.0000 0.61430  0.10930  0.37240  Biso   1.000  H
  H23      1.0000 0.41840  0.89880  0.55440  Biso   1.000  H
  H24      1.0000 0.58160  0.10120  0.44560  Biso   1.000  H
  C15      1.0000 0.60230  0.91200  0.60420  Biso   1.000  C
  C16      1.0000 0.39770  0.08800  0.39580  Biso   1.000  C
  C17      1.0000 0.62790  0.92980  0.65900  Biso   1.000  C
  C18      1.0000 0.37210  0.07020  0.34100  Biso   1.000  C
  H25      1.0000 0.56150  0.91850  0.69280  Biso   1.000  H
  H26      1.0000 0.43850  0.08150  0.30720  Biso   1.000  H
  N3       1.0000 0.74620  0.96320  0.66610  Biso   1.000  N
  N4       1.0000 0.25380  0.03680  0.33390  Biso   1.000  N
  C19      1.0000 0.83890  0.97940  0.61700  Biso   1.000  C
  C20      1.0000 0.16110  0.02060  0.38300  Biso   1.000  C
  H27      1.0000 0.91910  0.00360  0.62030  Biso   1.000  H
  H28      1.0000 0.08090  0.99640  0.37970  Biso   1.000  H
  C21      1.0000 0.81940  0.96130  0.56100  Biso   1.000  C
  C22      1.0000 0.18060  0.03870  0.43900  Biso   1.000  C
  H29      1.0000 0.88770  0.97210  0.52780  Biso   1.000  H
  H30      1.0000 0.11230  0.02790  0.47220  Biso   1.000  H
  C23      1.0000 0.70150  0.92820  0.55470  Biso   1.000  C
  C24      1.0000 0.29850  0.07180  0.44530  Biso   1.000  C
  H31      1.0000 0.68750  0.91630  0.51710  Biso   1.000  H
  H32      1.0000 0.31250  0.08370  0.48290  Biso   1.000  H
  C25      1.0000 0.51290  0.50550  0.59740  Biso   1.000  C
  C26      1.0000 0.48710  0.49450  0.40260  Biso   1.000  C
  H33      1.0000 0.55480  0.48120  0.56500  Biso   1.000  H
  H34      1.0000 0.44520  0.51880  0.43500  Biso   1.000  H
  C27      1.0000 0.33600  0.51680  0.59290  Biso   1.000  C
  C28      1.0000 0.66400  0.48320  0.40710  Biso   1.000  C
  H35      1.0000 0.29120  0.55500  0.54960  Biso   1.000  H
  H36      1.0000 0.70880  0.44500  0.45040  Biso   1.000  H
  H37      1.0000 0.29150  0.53760  0.62580  Biso   1.000  H
  H38      1.0000 0.70850  0.46240  0.37420  Biso   1.000  H
  H39      1.0000 0.31360  0.46500  0.60030  Biso   1.000  H
  H40      1.0000 0.68640  0.53500  0.39970  Biso   1.000  H
  C29      1.0000 0.58830  0.44500  0.66570  Biso   1.000  C
  C30      1.0000 0.41170  0.55500  0.33430  Biso   1.000  C
  H41      1.0000 0.69980  0.43880  0.66750  Biso   1.000  H
  H42      1.0000 0.30020  0.56120  0.33250  Biso   1.000  H
  H43      1.0000 0.56730  0.39270  0.67360  Biso   1.000  H
  H44      1.0000 0.43270  0.60730  0.32640  Biso   1.000  H
  H45      1.0000 0.54520  0.46530  0.69910  Biso   1.000  H
  H46      1.0000 0.45480  0.53470  0.30090  Biso   1.000  H
  C31      1.0000 0.78180  0.59290  0.58270  Biso   1.000  C
  C32      1.0000 0.21820  0.40710  0.41730  Biso   1.000  C
  H47      1.0000 0.81790  0.56080  0.62950  Biso   1.000  H
  H48      1.0000 0.18210  0.43920  0.37050  Biso   1.000  H
  C33      1.0000 0.86770  0.54380  0.54320  Biso   1.000  C
  C34      1.0000 0.13230  0.45620  0.45680  Biso   1.000  C
  H49      1.0000 0.83660  0.49340  0.55450  Biso   1.000  H
  H50      1.0000 0.16340  0.50660  0.44550  Biso   1.000  H
  H51      1.0000 0.97900  0.53180  0.55330  Biso   1.000  H
  H52      1.0000 0.02100  0.46820  0.44670  Biso   1.000  H
  H53      1.0000 0.84180  0.57510  0.49670  Biso   1.000  H
  H54      1.0000 0.15820  0.42490  0.50330  Biso   1.000  H
  C35      1.0000 0.83050  0.67230  0.56500  Biso   1.000  C
  C36      1.0000 0.16950  0.32770  0.43500  Biso   1.000  C
  H55      1.0000 0.77610  0.70330  0.59000  Biso   1.000  H
  H56      1.0000 0.22390  0.29670  0.41000  Biso   1.000  H
  H57      1.0000 0.80460  0.70370  0.51850  Biso   1.000  H
  H58      1.0000 0.19540  0.29630  0.48150  Biso   1.000  H
  H59      1.0000 0.94180  0.66040  0.57510  Biso   1.000  H
  H60      1.0000 0.05820  0.33960  0.42490  Biso   1.000  H
  C37      1.0000 0.20400  0.76970  0.63030  Biso   1.000  C
  C38      1.0000 0.79600  0.23030  0.36970  Biso   1.000  C
  H61      1.0000 0.17570  0.81990  0.64010  Biso   1.000  H
  H62      1.0000 0.82430  0.18010  0.35990  Biso   1.000  H
  C39      1.0000 0.16290  0.79270  0.55630  Biso   1.000  C
  C40      1.0000 0.83710  0.20730  0.44370  Biso   1.000  C
  H63      1.0000 0.22330  0.82920  0.53110  Biso   1.000  H
  H64      1.0000 0.77670  0.17080  0.46890  Biso   1.000  H
  H65      1.0000 0.05290  0.81940  0.54550  Biso   1.000  H
  H66      1.0000 0.94710  0.18060  0.45450  Biso   1.000  H
  H67      1.0000 0.18660  0.74400  0.54590  Biso   1.000  H
  H68      1.0000 0.81340  0.25600  0.45410  Biso   1.000  H
  C41      1.0000 0.10890  0.71140  0.67170  Biso   1.000  C
  C42      1.0000 0.89110  0.28860  0.32830  Biso   1.000  C
  H69      1.0000 0.13600  0.69750  0.71790  Biso   1.000  H
  H70      1.0000 0.86400  0.30250  0.28210  Biso   1.000  H
  H71      1.0000 0.13240  0.66240  0.66170  Biso   1.000  H
  H72      1.0000 0.86760  0.33760  0.33830  Biso   1.000  H
  H73      1.0000 0.99870  0.73780  0.66130  Biso   1.000  H
  H74      1.0000 0.00130  0.26220  0.33870  Biso   1.000  H
  C43      1.0000 0.47880  0.67370  0.74410  Biso   1.000  C
  C44      1.0000 0.52120  0.32630  0.25590  Biso   1.000  C
  H75      1.0000 0.42290  0.63070  0.76180  Biso   1.000  H
  H76      1.0000 0.57710  0.36930  0.23820  Biso   1.000  H
  C45      1.0000 0.65200  0.63200  0.75950  Biso   1.000  C
  C46      1.0000 0.34800  0.36800  0.24050  Biso   1.000  C
  H77      1.0000 0.68080  0.59450  0.73660  Biso   1.000  H
  H78      1.0000 0.31920  0.40550  0.26340  Biso   1.000  H
  H79      1.0000 0.67430  0.60240  0.80630  Biso   1.000  H
  H80      1.0000 0.32570  0.39760  0.19370  Biso   1.000  H
  H81      1.0000 0.71110  0.67250  0.74510  Biso   1.000  H
  H82      1.0000 0.28890  0.32750  0.25490  Biso   1.000  H
  C47      1.0000 0.42470  0.73490  0.77940  Biso   1.000  C
  C48      1.0000 0.57530  0.26510  0.22060  Biso   1.000  C
  H83      1.0000 0.31420  0.76010  0.76840  Biso   1.000  H
  H84      1.0000 0.68580  0.23990  0.23160  Biso   1.000  H
  H85      1.0000 0.48150  0.77650  0.76530  Biso   1.000  H
  H86      1.0000 0.51850  0.22350  0.23470  Biso   1.000  H
  H87      1.0000 0.44470  0.70640  0.82650  Biso   1.000  H
  H88      1.0000 0.55530  0.29360  0.17350  Biso   1.000  H
  N5       1.0000 0.19840  0.13380  0.19520  Biso   1.000  N
  N6       1.0000 0.80160  0.86620  0.80480  Biso   1.000  N
  C49      1.0000 0.28150  0.15730  0.14320  Biso   1.000  C
  C50      1.0000 0.71850  0.84270  0.85680  Biso   1.000  C
  H89      1.0000 0.35950  0.11740  0.13540  Biso   1.000  H
  H90      1.0000 0.64050  0.88260  0.86460  Biso   1.000  H
  C51      1.0000 0.25790  0.23780  0.10020  Biso   1.000  C
  C52      1.0000 0.74210  0.76220  0.89980  Biso   1.000  C
  C53      1.0000 0.14270  0.29520  0.11260  Biso   1.000  C
  C54      1.0000 0.85730  0.70480  0.88740  Biso   1.000  C
  H91      1.0000 0.12220  0.35010  0.08480  Biso   1.000  H
  H92      1.0000 0.87780  0.64990  0.91520  Biso   1.000  H
  C55      1.0000 0.05670  0.27150  0.16660  Biso   1.000  C
  C56      1.0000 0.94330  0.72850  0.83340  Biso   1.000  C
  H93      1.0000 0.97860  0.31050  0.17550  Biso   1.000  H
  H94      1.0000 0.02140  0.68950  0.82450  Biso   1.000  H
  C57      1.0000 0.08700  0.19050  0.20700  Biso   1.000  C
  C58      1.0000 0.91300  0.80950  0.79300  Biso   1.000  C
  H95      1.0000 0.02880  0.17490  0.24330  Biso   1.000  H
  H96      1.0000 0.97120  0.82510  0.75670  Biso   1.000  H
  C59      1.0000 0.35830  0.25870  0.04350  Biso   1.000  C
  C60      1.0000 0.64170  0.74130  0.95650  Biso   1.000  C
  H97      1.0000 0.46360  0.25400  0.06010  Biso   1.000  H
  H98      1.0000 0.53640  0.74600  0.93990  Biso   1.000  H
  H99      1.0000 0.36540  0.22050  0.02080  Biso   1.000  H
  H100     1.0000 0.63460  0.77950  0.97920  Biso   1.000  H
  O11      1.0000 0.29190  0.33990  0.99860  Biso   1.000  O
  O12      1.0000 0.70810  0.66010  0.00140  Biso   1.000  O
  Si5      1.0000 0.32520  0.37459  0.92077  Biso   1.000  Si
  Si6      1.0000 0.67480  0.62541  0.07923  Biso   1.000  Si
  O13      1.0000 0.27740  0.31850  0.88450  Biso   1.000  O
  O14      1.0000 0.72260  0.68150  0.11550  Biso   1.000  O
  Si7      1.0000 0.27790  0.25687  0.84574  Biso   1.000  Si
  Si8      1.0000 0.72210  0.74313  0.15426  Biso   1.000  Si
  O15      1.0000 0.45410  0.19600  0.85450  Biso   1.000  O
  O16      1.0000 0.54590  0.80400  0.14550  Biso   1.000  O
  C61      1.0000 0.53450  0.13910  0.91590  Biso   1.000  C
  C62      1.0000 0.46550  0.86090  0.08410  Biso   1.000  C
  H101     1.0000 0.46170  0.11210  0.94340  Biso   1.000  H
  H102     1.0000 0.53830  0.88790  0.05660  Biso   1.000  H
  H103     1.0000 0.57650  0.16790  0.93900  Biso   1.000  H
  H104     1.0000 0.42350  0.83210  0.06100  Biso   1.000  H
  C63      1.0000 0.66560  0.07640  0.90450  Biso   1.000  C
  C64      1.0000 0.33440  0.92360  0.09550  Biso   1.000  C
  C65      1.0000 0.67950  0.06740  0.84420  Biso   1.000  C
  C66      1.0000 0.32050  0.93260  0.15580  Biso   1.000  C
  H105     1.0000 0.60620  0.10310  0.80920  Biso   1.000  H
  H106     1.0000 0.39380  0.89690  0.19080  Biso   1.000  H
  N7       1.0000 0.79180  0.01040  0.83280  Biso   1.000  N
  N8       1.0000 0.20820  0.98960  0.16720  Biso   1.000  N
  C67      1.0000 0.90110  0.96090  0.88290  Biso   1.000  C
  C68      1.0000 0.09890  0.03910  0.11710  Biso   1.000  C
  H107     1.0000 0.98230  0.92210  0.87550  Biso   1.000  H
  H108     1.0000 0.01770  0.07790  0.12450  Biso   1.000  H
  C69      1.0000 0.89660  0.96580  0.94470  Biso   1.000  C
  C70      1.0000 0.10340  0.03420  0.05530  Biso   1.000  C
  H109     1.0000 0.97360  0.93070  0.97840  Biso   1.000  H
  H110     1.0000 0.02640  0.06930  0.02160  Biso   1.000  H
  C71      1.0000 0.77730  0.02310  0.95610  Biso   1.000  C
  C72      1.0000 0.22270  0.97690  0.04390  Biso   1.000  C
  H111     1.0000 0.77140  0.02620  0.99800  Biso   1.000  H
  H112     1.0000 0.22860  0.97380  0.00200  Biso   1.000  H
  C73      1.0000 0.19250  0.47890  0.88660  Biso   1.000  C
  C74      1.0000 0.80750  0.52110  0.11340  Biso   1.000  C
  H113     1.0000 0.20070  0.50380  0.83880  Biso   1.000  H
  H114     1.0000 0.79930  0.49620  0.16120  Biso   1.000  H
  H115     1.0000 0.22420  0.51500  0.90570  Biso   1.000  H
  H116     1.0000 0.77580  0.48500  0.09430  Biso   1.000  H
  C75      1.0000 0.02320  0.47520  0.90010  Biso   1.000  C
  C76      1.0000 0.97680  0.52480  0.09990  Biso   1.000  C
  H117     1.0000 0.95480  0.52950  0.88220  Biso   1.000  H
  H118     1.0000 0.04520  0.47050  0.11780  Biso   1.000  H
  H119     1.0000 0.01610  0.45230  0.94710  Biso   1.000  H
  H120     1.0000 0.98390  0.54770  0.05290  Biso   1.000  H
  H121     1.0000 0.99240  0.44140  0.87960  Biso   1.000  H
  H122     1.0000 0.00760  0.55860  0.12040  Biso   1.000  H
  C77      1.0000 0.23540  0.53130  0.92240  Biso   1.000  C
  C78      1.0000 0.76460  0.46870  0.07760  Biso   1.000  C
  H123     1.0000 0.34130  0.53530  0.91520  Biso   1.000  H
  H124     1.0000 0.65870  0.46470  0.08480  Biso   1.000  H
  H125     1.0000 0.22660  0.50630  0.96900  Biso   1.000  H
  H126     1.0000 0.77340  0.49370  0.03100  Biso   1.000  H
  H127     1.0000 0.16510  0.58520  0.90540  Biso   1.000  H
  H128     1.0000 0.83490  0.41480  0.09460  Biso   1.000  H
  C79      1.0000 0.18560  0.51420  0.81060  Biso   1.000  C
  C80      1.0000 0.81440  0.48580  0.18940  Biso   1.000  C
  H129     1.0000 0.28810  0.51890  0.79710  Biso   1.000  H
  H130     1.0000 0.71190  0.48110  0.20290  Biso   1.000  H
  H131     1.0000 0.11280  0.56750  0.79410  Biso   1.000  H
  H132     1.0000 0.88720  0.43250  0.20590  Biso   1.000  H
  H133     1.0000 0.15160  0.47840  0.79320  Biso   1.000  H
  H134     1.0000 0.84840  0.52160  0.20680  Biso   1.000  H
  C81      1.0000 0.54250  0.36640  0.91550  Biso   1.000  C
  C82      1.0000 0.45750  0.63360  0.08450  Biso   1.000  C
  H135     1.0000 0.59340  0.30750  0.93330  Biso   1.000  H
  H136     1.0000 0.40660  0.69250  0.06670  Biso   1.000  H
  C83      1.0000 0.60790  0.40100  0.96000  Biso   1.000  C
  C84      1.0000 0.39210  0.59900  0.04000  Biso   1.000  C
  H137     1.0000 0.57510  0.37910  0.00370  Biso   1.000  H
  H138     1.0000 0.42490  0.62090  0.99630  Biso   1.000  H
  H139     1.0000 0.56970  0.45970  0.94280  Biso   1.000  H
  H140     1.0000 0.43030  0.54030  0.05720  Biso   1.000  H
  H141     1.0000 0.72060  0.38630  0.96190  Biso   1.000  H
  H142     1.0000 0.27940  0.61370  0.03810  Biso   1.000  H
  C85      1.0000 0.58650  0.39650  0.84660  Biso   1.000  C
  C86      1.0000 0.41350  0.60350  0.15340  Biso   1.000  C
  H143     1.0000 0.54130  0.37230  0.82100  Biso   1.000  H
  H144     1.0000 0.45870  0.62770  0.17900  Biso   1.000  H
  H145     1.0000 0.69890  0.38170  0.84660  Biso   1.000  H
  H146     1.0000 0.30110  0.61830  0.15340  Biso   1.000  H
  H147     1.0000 0.54800  0.45510  0.82750  Biso   1.000  H
  H148     1.0000 0.45200  0.54490  0.17250  Biso   1.000  H
  C87      1.0000 0.13950  0.19260  0.88410  Biso   1.000  C
  C88      1.0000 0.86050  0.80740  0.11590  Biso   1.000  C
  H149     1.0000 0.18970  0.15720  0.92850  Biso   1.000  H
  H150     1.0000 0.81030  0.84280  0.07150  Biso   1.000  H
  C89      1.0000 0.12600  0.13430  0.85020  Biso   1.000  C
  C90      1.0000 0.87400  0.86570  0.14980  Biso   1.000  C
  H151     1.0000 0.22920  0.10630  0.84410  Biso   1.000  H
  H152     1.0000 0.77080  0.89370  0.15590  Biso   1.000  H
  H153     1.0000 0.06720  0.16450  0.80790  Biso   1.000  H
  H154     1.0000 0.93280  0.83550  0.19210  Biso   1.000  H
  H155     1.0000 0.07320  0.09490  0.87720  Biso   1.000  H
  H156     1.0000 0.92680  0.90510  0.12280  Biso   1.000  H
  C91      1.0000 0.98210  0.23950  0.89590  Biso   1.000  C
  C92      1.0000 0.01790  0.76050  0.10410  Biso   1.000  C
  H157     1.0000 0.99800  0.27540  0.91740  Biso   1.000  H
  H158     1.0000 0.00200  0.72460  0.08260  Biso   1.000  H
  H159     1.0000 0.92730  0.20160  0.92350  Biso   1.000  H
  H160     1.0000 0.07270  0.79840  0.07650  Biso   1.000  H
  H161     1.0000 0.92120  0.27130  0.85420  Biso   1.000  H
  H162     1.0000 0.07880  0.72870  0.14580  Biso   1.000  H
  C93      1.0000 0.24380  0.31910  0.75430  Biso   1.000  C
  C94      1.0000 0.75620  0.68090  0.24570  Biso   1.000  C
  H163     1.0000 0.30550  0.35970  0.74550  Biso   1.000  H
  H164     1.0000 0.69450  0.64030  0.25450  Biso   1.000  H
  C95      1.0000 0.07200  0.36740  0.73240  Biso   1.000  C
  C96      1.0000 0.92800  0.63260  0.26760  Biso   1.000  C
  H165     1.0000 0.03670  0.39850  0.75990  Biso   1.000  H
  H166     1.0000 0.96330  0.60150  0.24010  Biso   1.000  H
  H167     1.0000 0.00820  0.32990  0.73660  Biso   1.000  H
  H168     1.0000 0.99180  0.67010  0.26340  Biso   1.000  H
  H169     1.0000 0.06360  0.40390  0.68710  Biso   1.000  H
  H170     1.0000 0.93640  0.59610  0.31290  Biso   1.000  H
  C97      1.0000 0.29900  0.27050  0.71130  Biso   1.000  C
  C98      1.0000 0.70100  0.72950  0.28870  Biso   1.000  C
  H171     1.0000 0.40660  0.24020  0.72500  Biso   1.000  H
  H172     1.0000 0.59340  0.75980  0.27500  Biso   1.000  H
  H173     1.0000 0.29060  0.30700  0.66590  Biso   1.000  H
  H174     1.0000 0.70940  0.69300  0.33410  Biso   1.000  H
  H175     1.0000 0.23520  0.23300  0.71550  Biso   1.000  H
  H176     1.0000 0.76480  0.76700  0.28450  Biso   1.000  H
  N9       1.0000 0.76600  0.91930  0.38730  Biso   1.000  N
  N10      1.0000 0.23400  0.08070  0.61270  Biso   1.000  N
  O17      1.0000 0.77170  0.92830  0.32850  Biso   1.000  O
  O18      1.0000 0.22830  0.07170  0.67150  Biso   1.000  O
  O19      1.0000 0.66660  0.88740  0.41770  Biso   1.000  O
  O20      1.0000 0.33340  0.11260  0.58230  Biso   1.000  O
  O21      1.0000 0.85920  0.94000  0.41470  Biso   1.000  O
  O22      1.0000 0.14080  0.06000  0.58530  Biso   1.000  O
  N11      1.0000 0.67410  0.09520  0.10100  Biso   1.000  N
  N12      1.0000 0.32590  0.90480  0.89900  Biso   1.000  N
  O23      1.0000 0.68740  0.09100  0.15900  Biso   1.000  O
  O24      1.0000 0.31260  0.90900  0.84100  Biso   1.000  O
  O25      1.0000 0.58130  0.06040  0.08570  Biso   1.000  O
  O26      1.0000 0.41870  0.93960  0.91430  Biso   1.000  O
  O27      1.0000 0.74260  0.13510  0.05710  Biso   1.000  O
  O28      1.0000 0.25740  0.86490  0.94290  Biso   1.000  O
