data_image0
_cell_length_a       11.667
_cell_length_b       16.144
_cell_length_c       24.531
_cell_angle_alpha    90
_cell_angle_beta     90
_cell_angle_gamma    90

_symmetry_space_group_name_H-M    "P 1"
_symmetry_int_tables_number       1

loop_
  _symmetry_equiv_pos_as_xyz
  'x, y, z'

loop_
  _atom_site_label
  _atom_site_occupancy
  _atom_site_fract_x
  _atom_site_fract_y
  _atom_site_fract_z
  _atom_site_thermal_displace_type
  _atom_site_B_iso_or_equiv
  _atom_site_type_symbol
  O1       1.0000 0.56600  0.91200  0.99890  Biso   1.000  O
  O2       1.0000 0.93400  0.08800  0.49890  Biso   1.000  O
  O3       1.0000 0.06600  0.58800  0.00110  Biso   1.000  O
  O4       1.0000 0.43400  0.41200  0.50110  Biso   1.000  O
  O5       1.0000 0.43400  0.08800  0.00110  Biso   1.000  O
  O6       1.0000 0.06600  0.91200  0.50110  Biso   1.000  O
  O7       1.0000 0.93400  0.41200  0.99890  Biso   1.000  O
  O8       1.0000 0.56600  0.58800  0.49890  Biso   1.000  O
  C1       1.0000 0.48500  0.96590  0.98640  Biso   1.000  C
  C2       1.0000 0.01500  0.03410  0.48640  Biso   1.000  C
  C3       1.0000 0.98500  0.53410  0.01360  Biso   1.000  C
  C4       1.0000 0.51500  0.46590  0.51360  Biso   1.000  C
  C5       1.0000 0.51500  0.03410  0.01360  Biso   1.000  C
  C6       1.0000 0.98500  0.96590  0.51360  Biso   1.000  C
  C7       1.0000 0.01500  0.46590  0.98640  Biso   1.000  C
  C8       1.0000 0.48500  0.53410  0.48640  Biso   1.000  C
  C9       1.0000 0.50600  0.95950  0.03790  Biso   1.000  C
  C10      1.0000 0.99400  0.04050  0.53790  Biso   1.000  C
  C11      1.0000 0.00600  0.54050  0.96210  Biso   1.000  C
  C12      1.0000 0.49400  0.45950  0.46210  Biso   1.000  C
  C13      1.0000 0.49400  0.04050  0.96210  Biso   1.000  C
  C14      1.0000 0.00600  0.95950  0.46210  Biso   1.000  C
  C15      1.0000 0.99400  0.45950  0.03790  Biso   1.000  C
  C16      1.0000 0.50600  0.54050  0.53790  Biso   1.000  C
  H1       1.0000 0.61300  0.90900  0.97300  Biso   1.000  H
  H2       1.0000 0.88700  0.09100  0.47300  Biso   1.000  H
  H3       1.0000 0.11300  0.59100  0.02700  Biso   1.000  H
  H4       1.0000 0.38700  0.40900  0.52700  Biso   1.000  H
  H5       1.0000 0.38700  0.09100  0.02700  Biso   1.000  H
  H6       1.0000 0.11300  0.90900  0.52700  Biso   1.000  H
  H7       1.0000 0.88700  0.40900  0.97300  Biso   1.000  H
  H8       1.0000 0.61300  0.59100  0.47300  Biso   1.000  H
  Cl1      1.0000 0.57240  0.32329  0.11071  Biso   1.000  Cl
  Cl2      1.0000 0.92760  0.67671  0.61071  Biso   1.000  Cl
  Cl3      1.0000 0.07240  0.17671  0.88929  Biso   1.000  Cl
  Cl4      1.0000 0.42760  0.82329  0.38929  Biso   1.000  Cl
  Cl5      1.0000 0.42760  0.67671  0.88929  Biso   1.000  Cl
  Cl6      1.0000 0.07240  0.32329  0.38929  Biso   1.000  Cl
  Cl7      1.0000 0.92760  0.82329  0.11071  Biso   1.000  Cl
  Cl8      1.0000 0.57240  0.17671  0.61071  Biso   1.000  Cl
  Cu1      1.0000 0.07844  0.12506  0.06136  Biso   1.000  Cu
  Cu2      1.0000 0.42156  0.87494  0.56136  Biso   1.000  Cu
  Cu3      1.0000 0.57844  0.37494  0.93864  Biso   1.000  Cu
  Cu4      1.0000 0.92156  0.62506  0.43864  Biso   1.000  Cu
  Cu5      1.0000 0.92156  0.87494  0.93864  Biso   1.000  Cu
  Cu6      1.0000 0.57844  0.12506  0.43864  Biso   1.000  Cu
  Cu7      1.0000 0.42156  0.62506  0.06136  Biso   1.000  Cu
  Cu8      1.0000 0.07844  0.37494  0.56136  Biso   1.000  Cu
  Cl9      1.0000 0.17050  0.03693  0.00364  Biso   1.000  Cl
  Cl10     1.0000 0.32950  0.96307  0.50364  Biso   1.000  Cl
  Cl11     1.0000 0.67050  0.46307  0.99636  Biso   1.000  Cl
  Cl12     1.0000 0.82950  0.53693  0.49636  Biso   1.000  Cl
  Cl13     1.0000 0.82950  0.96307  0.99636  Biso   1.000  Cl
  Cl14     1.0000 0.67050  0.03693  0.49636  Biso   1.000  Cl
  Cl15     1.0000 0.32950  0.53693  0.00364  Biso   1.000  Cl
  Cl16     1.0000 0.17050  0.46307  0.50364  Biso   1.000  Cl
  O9       1.0000 0.97400  0.02520  0.10810  Biso   1.000  O
  O10      1.0000 0.52600  0.97480  0.60810  Biso   1.000  O
  O11      1.0000 0.47400  0.47480  0.89190  Biso   1.000  O
  O12      1.0000 0.02600  0.52520  0.39190  Biso   1.000  O
  O13      1.0000 0.02600  0.97480  0.89190  Biso   1.000  O
  O14      1.0000 0.47400  0.02520  0.39190  Biso   1.000  O
  O15      1.0000 0.52600  0.52520  0.10810  Biso   1.000  O
  O16      1.0000 0.97400  0.47480  0.60810  Biso   1.000  O
  N1       1.0000 0.95380  0.14290  0.00660  Biso   1.000  N
  N2       1.0000 0.54620  0.85710  0.50660  Biso   1.000  N
  N3       1.0000 0.45380  0.35710  0.99340  Biso   1.000  N
  N4       1.0000 0.04620  0.64290  0.49340  Biso   1.000  N
  N5       1.0000 0.04620  0.85710  0.99340  Biso   1.000  N
  N6       1.0000 0.45380  0.14290  0.49340  Biso   1.000  N
  N7       1.0000 0.54620  0.64290  0.00660  Biso   1.000  N
  N8       1.0000 0.95380  0.35710  0.50660  Biso   1.000  N
  N9       1.0000 0.88660  0.31230  0.87390  Biso   1.000  N
  N10      1.0000 0.61340  0.68770  0.37390  Biso   1.000  N
  N11      1.0000 0.38660  0.18770  0.12610  Biso   1.000  N
  N12      1.0000 0.11340  0.81230  0.62610  Biso   1.000  N
  N13      1.0000 0.11340  0.68770  0.12610  Biso   1.000  N
  N14      1.0000 0.38660  0.31230  0.62610  Biso   1.000  N
  N15      1.0000 0.61340  0.81230  0.87390  Biso   1.000  N
  N16      1.0000 0.88660  0.18770  0.37390  Biso   1.000  N
  N17      1.0000 0.71940  0.36210  0.89590  Biso   1.000  N
  N18      1.0000 0.78060  0.63790  0.39590  Biso   1.000  N
  N19      1.0000 0.21940  0.13790  0.10410  Biso   1.000  N
  N20      1.0000 0.28060  0.86210  0.60410  Biso   1.000  N
  N21      1.0000 0.28060  0.63790  0.10410  Biso   1.000  N
  N22      1.0000 0.21940  0.36210  0.60410  Biso   1.000  N
  N23      1.0000 0.78060  0.86210  0.89590  Biso   1.000  N
  N24      1.0000 0.71940  0.13790  0.39590  Biso   1.000  N
  N25      1.0000 0.82750  0.27710  0.10980  Biso   1.000  N
  N26      1.0000 0.67250  0.72290  0.60980  Biso   1.000  N
  N27      1.0000 0.32750  0.22290  0.89020  Biso   1.000  N
  N28      1.0000 0.17250  0.77710  0.39020  Biso   1.000  N
  N29      1.0000 0.17250  0.72290  0.89020  Biso   1.000  N
  N30      1.0000 0.32750  0.27710  0.39020  Biso   1.000  N
  N31      1.0000 0.67250  0.77710  0.10980  Biso   1.000  N
  N32      1.0000 0.82750  0.22290  0.60980  Biso   1.000  N
  N33      1.0000 0.99040  0.20990  0.10210  Biso   1.000  N
  N34      1.0000 0.50960  0.79010  0.60210  Biso   1.000  N
  N35      1.0000 0.49040  0.29010  0.89790  Biso   1.000  N
  N36      1.0000 0.00960  0.70990  0.39790  Biso   1.000  N
  N37      1.0000 0.00960  0.79010  0.89790  Biso   1.000  N
  N38      1.0000 0.49040  0.20990  0.39790  Biso   1.000  N
  N39      1.0000 0.50960  0.70990  0.10210  Biso   1.000  N
  N40      1.0000 0.99040  0.29010  0.60210  Biso   1.000  N
  C17      1.0000 0.87570  0.21090  0.01950  Biso   1.000  C
  C18      1.0000 0.62430  0.78910  0.51950  Biso   1.000  C
  C19      1.0000 0.37570  0.28910  0.98050  Biso   1.000  C
  C20      1.0000 0.12430  0.71090  0.48050  Biso   1.000  C
  C21      1.0000 0.12430  0.78910  0.98050  Biso   1.000  C
  C22      1.0000 0.37570  0.21090  0.48050  Biso   1.000  C
  C23      1.0000 0.62430  0.71090  0.01950  Biso   1.000  C
  C24      1.0000 0.87570  0.28910  0.51950  Biso   1.000  C
  C25      1.0000 0.76390  0.22150  0.93300  Biso   1.000  C
  C26      1.0000 0.73610  0.77850  0.43300  Biso   1.000  C
  C27      1.0000 0.26390  0.27850  0.06700  Biso   1.000  C
  C28      1.0000 0.23610  0.72150  0.56700  Biso   1.000  C
  C29      1.0000 0.23610  0.77850  0.06700  Biso   1.000  C
  C30      1.0000 0.26390  0.22150  0.56700  Biso   1.000  C
  C31      1.0000 0.73610  0.72150  0.93300  Biso   1.000  C
  C32      1.0000 0.76390  0.27850  0.43300  Biso   1.000  C
  C33      1.0000 0.78780  0.29870  0.90060  Biso   1.000  C
  C34      1.0000 0.71220  0.70130  0.40060  Biso   1.000  C
  C35      1.0000 0.28780  0.20130  0.09940  Biso   1.000  C
  C36      1.0000 0.21220  0.79870  0.59940  Biso   1.000  C
  C37      1.0000 0.21220  0.70130  0.09940  Biso   1.000  C
  C38      1.0000 0.28780  0.29870  0.59940  Biso   1.000  C
  C39      1.0000 0.71220  0.79870  0.90060  Biso   1.000  C
  C40      1.0000 0.78780  0.20130  0.40060  Biso   1.000  C
  C41      1.0000 0.77680  0.42060  0.86570  Biso   1.000  C
  C42      1.0000 0.72320  0.57940  0.36570  Biso   1.000  C
  C43      1.0000 0.27680  0.07940  0.13430  Biso   1.000  C
  C44      1.0000 0.22320  0.92060  0.63430  Biso   1.000  C
  C45      1.0000 0.22320  0.57940  0.13430  Biso   1.000  C
  C46      1.0000 0.27680  0.42060  0.63430  Biso   1.000  C
  C47      1.0000 0.72320  0.92060  0.86570  Biso   1.000  C
  C48      1.0000 0.77680  0.07940  0.36570  Biso   1.000  C
  C49      1.0000 0.88410  0.38870  0.85090  Biso   1.000  C
  C50      1.0000 0.61590  0.61130  0.35090  Biso   1.000  C
  C51      1.0000 0.38410  0.11130  0.14910  Biso   1.000  C
  C52      1.0000 0.11590  0.88870  0.64910  Biso   1.000  C
  C53      1.0000 0.11590  0.61130  0.14910  Biso   1.000  C
  C54      1.0000 0.38410  0.38870  0.64910  Biso   1.000  C
  C55      1.0000 0.61590  0.88870  0.85090  Biso   1.000  C
  C56      1.0000 0.88410  0.11130  0.35090  Biso   1.000  C
  C57      1.0000 0.96260  0.43510  0.82090  Biso   1.000  C
  C58      1.0000 0.53740  0.56490  0.32090  Biso   1.000  C
  C59      1.0000 0.46260  0.06490  0.17910  Biso   1.000  C
  C60      1.0000 0.03740  0.93510  0.67910  Biso   1.000  C
  C61      1.0000 0.03740  0.56490  0.17910  Biso   1.000  C
  C62      1.0000 0.46260  0.43510  0.67910  Biso   1.000  C
  C63      1.0000 0.53740  0.93510  0.82090  Biso   1.000  C
  C64      1.0000 0.96260  0.06490  0.32090  Biso   1.000  C
  C65      1.0000 0.93110  0.51560  0.80730  Biso   1.000  C
  C66      1.0000 0.56890  0.48440  0.30730  Biso   1.000  C
  C67      1.0000 0.43110  0.98440  0.19270  Biso   1.000  C
  C68      1.0000 0.06890  0.01560  0.69270  Biso   1.000  C
  C69      1.0000 0.06890  0.48440  0.19270  Biso   1.000  C
  C70      1.0000 0.43110  0.51560  0.69270  Biso   1.000  C
  C71      1.0000 0.56890  0.01560  0.80730  Biso   1.000  C
  C72      1.0000 0.93110  0.98440  0.30730  Biso   1.000  C
  C73      1.0000 0.82600  0.54650  0.82260  Biso   1.000  C
  C74      1.0000 0.67400  0.45350  0.32260  Biso   1.000  C
  C75      1.0000 0.32600  0.95350  0.17740  Biso   1.000  C
  C76      1.0000 0.17400  0.04650  0.67740  Biso   1.000  C
  C77      1.0000 0.17400  0.45350  0.17740  Biso   1.000  C
  C78      1.0000 0.32600  0.54650  0.67740  Biso   1.000  C
  C79      1.0000 0.67400  0.04650  0.82260  Biso   1.000  C
  C80      1.0000 0.82600  0.95350  0.32260  Biso   1.000  C
  C81      1.0000 0.74580  0.50120  0.85110  Biso   1.000  C
  C82      1.0000 0.75420  0.49880  0.35110  Biso   1.000  C
  C83      1.0000 0.24580  0.99880  0.14890  Biso   1.000  C
  C84      1.0000 0.25420  0.00120  0.64890  Biso   1.000  C
  C85      1.0000 0.25420  0.49880  0.14890  Biso   1.000  C
  C86      1.0000 0.24580  0.50120  0.64890  Biso   1.000  C
  C87      1.0000 0.75420  0.00120  0.85110  Biso   1.000  C
  C88      1.0000 0.74580  0.99880  0.35110  Biso   1.000  C
  C89      1.0000 0.89740  0.23400  0.07780  Biso   1.000  C
  C90      1.0000 0.60260  0.76600  0.57780  Biso   1.000  C
  C91      1.0000 0.39740  0.26600  0.92220  Biso   1.000  C
  C92      1.0000 0.10260  0.73400  0.42220  Biso   1.000  C
  C93      1.0000 0.10260  0.76600  0.92220  Biso   1.000  C
  C94      1.0000 0.39740  0.23400  0.42220  Biso   1.000  C
  C95      1.0000 0.60260  0.73400  0.07780  Biso   1.000  C
  C96      1.0000 0.89740  0.26600  0.57780  Biso   1.000  C
  C97      1.0000 0.98370  0.24220  0.15540  Biso   1.000  C
  C98      1.0000 0.51630  0.75780  0.65540  Biso   1.000  C
  C99      1.0000 0.48370  0.25780  0.84460  Biso   1.000  C
  C100     1.0000 0.01630  0.74220  0.34460  Biso   1.000  C
  C101     1.0000 0.01630  0.75780  0.84460  Biso   1.000  C
  C102     1.0000 0.48370  0.24220  0.34460  Biso   1.000  C
  C103     1.0000 0.51630  0.74220  0.15540  Biso   1.000  C
  C104     1.0000 0.98370  0.25780  0.65540  Biso   1.000  C
  C105     1.0000 0.88000  0.28350  0.16000  Biso   1.000  C
  C106     1.0000 0.62000  0.71650  0.66000  Biso   1.000  C
  C107     1.0000 0.38000  0.21650  0.84000  Biso   1.000  C
  C108     1.0000 0.12000  0.78350  0.34000  Biso   1.000  C
  C109     1.0000 0.12000  0.71650  0.84000  Biso   1.000  C
  C110     1.0000 0.38000  0.28350  0.34000  Biso   1.000  C
  C111     1.0000 0.62000  0.78350  0.16000  Biso   1.000  C
  C112     1.0000 0.88000  0.21650  0.66000  Biso   1.000  C
  C113     1.0000 0.84470  0.31830  0.20900  Biso   1.000  C
  C114     1.0000 0.65530  0.68170  0.70900  Biso   1.000  C
  C115     1.0000 0.34470  0.18170  0.79100  Biso   1.000  C
  C116     1.0000 0.15530  0.81830  0.29100  Biso   1.000  C
  C117     1.0000 0.15530  0.68170  0.79100  Biso   1.000  C
  C118     1.0000 0.34470  0.31830  0.29100  Biso   1.000  C
  C119     1.0000 0.65530  0.81830  0.20900  Biso   1.000  C
  C120     1.0000 0.84470  0.18170  0.70900  Biso   1.000  C
  C121     1.0000 0.91940  0.31110  0.25210  Biso   1.000  C
  C122     1.0000 0.58060  0.68890  0.75210  Biso   1.000  C
  C123     1.0000 0.41940  0.18890  0.74790  Biso   1.000  C
  C124     1.0000 0.08060  0.81110  0.24790  Biso   1.000  C
  C125     1.0000 0.08060  0.68890  0.74790  Biso   1.000  C
  C126     1.0000 0.41940  0.31110  0.24790  Biso   1.000  C
  C127     1.0000 0.58060  0.81110  0.25210  Biso   1.000  C
  C128     1.0000 0.91940  0.18890  0.75210  Biso   1.000  C
  C129     1.0000 0.02210  0.26930  0.24720  Biso   1.000  C
  C130     1.0000 0.47790  0.73070  0.74720  Biso   1.000  C
  C131     1.0000 0.52210  0.23070  0.75280  Biso   1.000  C
  C132     1.0000 0.97790  0.76930  0.25280  Biso   1.000  C
  C133     1.0000 0.97790  0.73070  0.75280  Biso   1.000  C
  C134     1.0000 0.52210  0.26930  0.25280  Biso   1.000  C
  C135     1.0000 0.47790  0.76930  0.24720  Biso   1.000  C
  C136     1.0000 0.02210  0.23070  0.74720  Biso   1.000  C
  C137     1.0000 0.05610  0.23430  0.19910  Biso   1.000  C
  C138     1.0000 0.44390  0.76570  0.69910  Biso   1.000  C
  C139     1.0000 0.55610  0.26570  0.80090  Biso   1.000  C
  C140     1.0000 0.94390  0.73430  0.30090  Biso   1.000  C
  C141     1.0000 0.94390  0.76570  0.80090  Biso   1.000  C
  C142     1.0000 0.55610  0.23430  0.30090  Biso   1.000  C
  C143     1.0000 0.44390  0.73430  0.19910  Biso   1.000  C
  C144     1.0000 0.05610  0.26570  0.69910  Biso   1.000  C
  C145     1.0000 0.92840  0.02520  0.16220  Biso   1.000  C
  C146     1.0000 0.57160  0.97480  0.66220  Biso   1.000  C
  C147     1.0000 0.42840  0.47480  0.83780  Biso   1.000  C
  C148     1.0000 0.07160  0.52520  0.33780  Biso   1.000  C
  C149     1.0000 0.07160  0.97480  0.83780  Biso   1.000  C
  C150     1.0000 0.42840  0.02520  0.33780  Biso   1.000  C
  C151     1.0000 0.57160  0.52520  0.16220  Biso   1.000  C
  C152     1.0000 0.92840  0.47480  0.66220  Biso   1.000  C
  C153     1.0000 0.80640  0.04520  0.16380  Biso   1.000  C
  C154     1.0000 0.69360  0.95480  0.66380  Biso   1.000  C
  C155     1.0000 0.30640  0.45480  0.83620  Biso   1.000  C
  C156     1.0000 0.19360  0.54520  0.33620  Biso   1.000  C
  C157     1.0000 0.19360  0.95480  0.83620  Biso   1.000  C
  C158     1.0000 0.30640  0.04520  0.33620  Biso   1.000  C
  C159     1.0000 0.69360  0.54520  0.16380  Biso   1.000  C
  C160     1.0000 0.80640  0.45480  0.66380  Biso   1.000  C
  C161     1.0000 0.83290  0.26000  0.99130  Biso   1.000  C
  C162     1.0000 0.66710  0.74000  0.49130  Biso   1.000  C
  C163     1.0000 0.33290  0.24000  0.00870  Biso   1.000  C
  C164     1.0000 0.16710  0.76000  0.50870  Biso   1.000  C
  C165     1.0000 0.16710  0.74000  0.00870  Biso   1.000  C
  C166     1.0000 0.33290  0.26000  0.50870  Biso   1.000  C
  C167     1.0000 0.66710  0.76000  0.99130  Biso   1.000  C
  C168     1.0000 0.83290  0.24000  0.49130  Biso   1.000  C
  H9       1.0000 0.94800  0.98400  0.09090  Biso   1.000  H
  H10      1.0000 0.55200  0.01600  0.59090  Biso   1.000  H
  H11      1.0000 0.44800  0.51600  0.90910  Biso   1.000  H
  H12      1.0000 0.05200  0.48400  0.40910  Biso   1.000  H
  H13      1.0000 0.05200  0.01600  0.90910  Biso   1.000  H
  H14      1.0000 0.44800  0.98400  0.40910  Biso   1.000  H
  H15      1.0000 0.55200  0.48400  0.09090  Biso   1.000  H
  H16      1.0000 0.94800  0.51600  0.59090  Biso   1.000  H
  H17      1.0000 0.91190  0.09480  0.00350  Biso   1.000  H
  H18      1.0000 0.58810  0.90520  0.50350  Biso   1.000  H
  H19      1.0000 0.41190  0.40520  0.99650  Biso   1.000  H
  H20      1.0000 0.08810  0.59480  0.49650  Biso   1.000  H
  H21      1.0000 0.08810  0.90520  0.99650  Biso   1.000  H
  H22      1.0000 0.41190  0.09480  0.49650  Biso   1.000  H
  H23      1.0000 0.58810  0.59480  0.00350  Biso   1.000  H
  H24      1.0000 0.91190  0.40520  0.50350  Biso   1.000  H
  H25      1.0000 0.72850  0.26670  0.00700  Biso   1.000  H
  H26      1.0000 0.77150  0.73330  0.50700  Biso   1.000  H
  H27      1.0000 0.22850  0.23330  0.99300  Biso   1.000  H
  H28      1.0000 0.27150  0.76670  0.49300  Biso   1.000  H
  H29      1.0000 0.27150  0.73330  0.99300  Biso   1.000  H
  H30      1.0000 0.22850  0.26670  0.49300  Biso   1.000  H
  H31      1.0000 0.77150  0.76670  0.00700  Biso   1.000  H
  H32      1.0000 0.72850  0.23330  0.50700  Biso   1.000  H
  H33      1.0000 0.98690  0.15310  0.97320  Biso   1.000  H
  H34      1.0000 0.51310  0.84690  0.47320  Biso   1.000  H
  H35      1.0000 0.48690  0.34690  0.02680  Biso   1.000  H
  H36      1.0000 0.01310  0.65310  0.52680  Biso   1.000  H
  H37      1.0000 0.01310  0.84690  0.02680  Biso   1.000  H
  H38      1.0000 0.48690  0.15310  0.52680  Biso   1.000  H
  H39      1.0000 0.51310  0.65310  0.97320  Biso   1.000  H
  H40      1.0000 0.98690  0.34690  0.47320  Biso   1.000  H
  H41      1.0000 0.03460  0.41280  0.81030  Biso   1.000  H
  H42      1.0000 0.46540  0.58720  0.31030  Biso   1.000  H
  H43      1.0000 0.53460  0.08720  0.18970  Biso   1.000  H
  H44      1.0000 0.96540  0.91280  0.68970  Biso   1.000  H
  H45      1.0000 0.96540  0.58720  0.18970  Biso   1.000  H
  H46      1.0000 0.53460  0.41280  0.68970  Biso   1.000  H
  H47      1.0000 0.46540  0.91280  0.81030  Biso   1.000  H
  H48      1.0000 0.03460  0.08720  0.31030  Biso   1.000  H
  H49      1.0000 0.98250  0.54950  0.78730  Biso   1.000  H
  H50      1.0000 0.51750  0.45050  0.28730  Biso   1.000  H
  H51      1.0000 0.48250  0.95050  0.21270  Biso   1.000  H
  H52      1.0000 0.01750  0.04950  0.71270  Biso   1.000  H
  H53      1.0000 0.01750  0.45050  0.21270  Biso   1.000  H
  H54      1.0000 0.48250  0.54950  0.71270  Biso   1.000  H
  H55      1.0000 0.51750  0.04950  0.78730  Biso   1.000  H
  H56      1.0000 0.98250  0.95050  0.28730  Biso   1.000  H
  H57      1.0000 0.80780  0.60200  0.81300  Biso   1.000  H
  H58      1.0000 0.69220  0.39800  0.31300  Biso   1.000  H
  H59      1.0000 0.30780  0.89800  0.18700  Biso   1.000  H
  H60      1.0000 0.19220  0.10200  0.68700  Biso   1.000  H
  H61      1.0000 0.19220  0.39800  0.18700  Biso   1.000  H
  H62      1.0000 0.30780  0.60200  0.68700  Biso   1.000  H
  H63      1.0000 0.69220  0.10200  0.81300  Biso   1.000  H
  H64      1.0000 0.80780  0.89800  0.31300  Biso   1.000  H
  H65      1.0000 0.67310  0.52360  0.86030  Biso   1.000  H
  H66      1.0000 0.82690  0.47640  0.36030  Biso   1.000  H
  H67      1.0000 0.17310  0.97640  0.13970  Biso   1.000  H
  H68      1.0000 0.32690  0.02360  0.63970  Biso   1.000  H
  H69      1.0000 0.32690  0.47640  0.13970  Biso   1.000  H
  H70      1.0000 0.17310  0.52360  0.63970  Biso   1.000  H
  H71      1.0000 0.82690  0.02360  0.86030  Biso   1.000  H
  H72      1.0000 0.67310  0.97640  0.36030  Biso   1.000  H
  H73      1.0000 0.76040  0.29770  0.10070  Biso   1.000  H
  H74      1.0000 0.73960  0.70230  0.60070  Biso   1.000  H
  H75      1.0000 0.26040  0.20230  0.89930  Biso   1.000  H
  H76      1.0000 0.23960  0.79770  0.39930  Biso   1.000  H
  H77      1.0000 0.23960  0.70230  0.89930  Biso   1.000  H
  H78      1.0000 0.26040  0.29770  0.39930  Biso   1.000  H
  H79      1.0000 0.73960  0.79770  0.10070  Biso   1.000  H
  H80      1.0000 0.76040  0.20230  0.60070  Biso   1.000  H
  H81      1.0000 0.77300  0.34570  0.21250  Biso   1.000  H
  H82      1.0000 0.72700  0.65430  0.71250  Biso   1.000  H
  H83      1.0000 0.27300  0.15430  0.78750  Biso   1.000  H
  H84      1.0000 0.22700  0.84570  0.28750  Biso   1.000  H
  H85      1.0000 0.22700  0.65430  0.78750  Biso   1.000  H
  H86      1.0000 0.27300  0.34570  0.28750  Biso   1.000  H
  H87      1.0000 0.72700  0.84570  0.21250  Biso   1.000  H
  H88      1.0000 0.77300  0.15430  0.71250  Biso   1.000  H
  H89      1.0000 0.89980  0.33540  0.28610  Biso   1.000  H
  H90      1.0000 0.60020  0.66460  0.78610  Biso   1.000  H
  H91      1.0000 0.39980  0.16460  0.71390  Biso   1.000  H
  H92      1.0000 0.10020  0.83540  0.21390  Biso   1.000  H
  H93      1.0000 0.10020  0.66460  0.71390  Biso   1.000  H
  H94      1.0000 0.39980  0.33540  0.21390  Biso   1.000  H
  H95      1.0000 0.60020  0.83540  0.28610  Biso   1.000  H
  H96      1.0000 0.89980  0.16460  0.78610  Biso   1.000  H
  H97      1.0000 0.07070  0.26470  0.27810  Biso   1.000  H
  H98      1.0000 0.42930  0.73530  0.77810  Biso   1.000  H
  H99      1.0000 0.57070  0.23530  0.72190  Biso   1.000  H
  H100     1.0000 0.92930  0.76470  0.22190  Biso   1.000  H
  H101     1.0000 0.92930  0.73530  0.72190  Biso   1.000  H
  H102     1.0000 0.57070  0.26470  0.22190  Biso   1.000  H
  H103     1.0000 0.42930  0.76470  0.27810  Biso   1.000  H
  H104     1.0000 0.07070  0.23530  0.77810  Biso   1.000  H
  H105     1.0000 0.12700  0.20580  0.19610  Biso   1.000  H
  H106     1.0000 0.37300  0.79420  0.69610  Biso   1.000  H
  H107     1.0000 0.62700  0.29420  0.80390  Biso   1.000  H
  H108     1.0000 0.87300  0.70580  0.30390  Biso   1.000  H
  H109     1.0000 0.87300  0.79420  0.80390  Biso   1.000  H
  H110     1.0000 0.62700  0.20580  0.30390  Biso   1.000  H
  H111     1.0000 0.37300  0.70580  0.19610  Biso   1.000  H
  H112     1.0000 0.12700  0.29420  0.69610  Biso   1.000  H
  H113     1.0000 0.97090  0.06600  0.18450  Biso   1.000  H
  H114     1.0000 0.52910  0.93400  0.68450  Biso   1.000  H
  H115     1.0000 0.47090  0.43400  0.81550  Biso   1.000  H
  H116     1.0000 0.02910  0.56600  0.31550  Biso   1.000  H
  H117     1.0000 0.02910  0.93400  0.81550  Biso   1.000  H
  H118     1.0000 0.47090  0.06600  0.31550  Biso   1.000  H
  H119     1.0000 0.52910  0.56600  0.18450  Biso   1.000  H
  H120     1.0000 0.97090  0.43400  0.68450  Biso   1.000  H
  H121     1.0000 0.94040  0.96980  0.17870  Biso   1.000  H
  H122     1.0000 0.55960  0.03020  0.67870  Biso   1.000  H
  H123     1.0000 0.44040  0.53020  0.82130  Biso   1.000  H
  H124     1.0000 0.05960  0.46980  0.32130  Biso   1.000  H
  H125     1.0000 0.05960  0.03020  0.82130  Biso   1.000  H
  H126     1.0000 0.44040  0.96980  0.32130  Biso   1.000  H
  H127     1.0000 0.55960  0.46980  0.17870  Biso   1.000  H
  H128     1.0000 0.94040  0.53020  0.67870  Biso   1.000  H
  H129     1.0000 0.77960  0.04430  0.20170  Biso   1.000  H
  H130     1.0000 0.72040  0.95570  0.70170  Biso   1.000  H
  H131     1.0000 0.27960  0.45570  0.79830  Biso   1.000  H
  H132     1.0000 0.22040  0.54430  0.29830  Biso   1.000  H
  H133     1.0000 0.22040  0.95570  0.79830  Biso   1.000  H
  H134     1.0000 0.27960  0.04430  0.29830  Biso   1.000  H
  H135     1.0000 0.72040  0.54430  0.20170  Biso   1.000  H
  H136     1.0000 0.77960  0.45570  0.70170  Biso   1.000  H
  H137     1.0000 0.76360  0.00430  0.14250  Biso   1.000  H
  H138     1.0000 0.73640  0.99570  0.64250  Biso   1.000  H
  H139     1.0000 0.26360  0.49570  0.85750  Biso   1.000  H
  H140     1.0000 0.23640  0.50430  0.35750  Biso   1.000  H
  H141     1.0000 0.23640  0.99570  0.85750  Biso   1.000  H
  H142     1.0000 0.26360  0.00430  0.35750  Biso   1.000  H
  H143     1.0000 0.73640  0.50430  0.14250  Biso   1.000  H
  H144     1.0000 0.76360  0.49570  0.64250  Biso   1.000  H
  H145     1.0000 0.79420  0.10050  0.14840  Biso   1.000  H
  H146     1.0000 0.70580  0.89950  0.64840  Biso   1.000  H
  H147     1.0000 0.29420  0.39950  0.85160  Biso   1.000  H
  H148     1.0000 0.20580  0.60050  0.35160  Biso   1.000  H
  H149     1.0000 0.20580  0.89950  0.85160  Biso   1.000  H
  H150     1.0000 0.29420  0.10050  0.35160  Biso   1.000  H
  H151     1.0000 0.70580  0.60050  0.14840  Biso   1.000  H
  H152     1.0000 0.79420  0.39950  0.64840  Biso   1.000  H
  H153     1.0000 0.94400  0.27720  0.87170  Biso   1.000  H
  H154     1.0000 0.55600  0.72280  0.37170  Biso   1.000  H
  H155     1.0000 0.44400  0.22280  0.12830  Biso   1.000  H
  H156     1.0000 0.05600  0.77720  0.62830  Biso   1.000  H
  H157     1.0000 0.05600  0.72280  0.12830  Biso   1.000  H
  H158     1.0000 0.44400  0.27720  0.62830  Biso   1.000  H
  H159     1.0000 0.55600  0.77720  0.87170  Biso   1.000  H
  H160     1.0000 0.94400  0.22280  0.37170  Biso   1.000  H
  H161     1.0000 0.89260  0.29980  0.97950  Biso   1.000  H
  H162     1.0000 0.60740  0.70020  0.47950  Biso   1.000  H
  H163     1.0000 0.39260  0.20020  0.02050  Biso   1.000  H
  H164     1.0000 0.10740  0.79980  0.52050  Biso   1.000  H
  H165     1.0000 0.10740  0.70020  0.02050  Biso   1.000  H
  H166     1.0000 0.39260  0.29980  0.52050  Biso   1.000  H
  H167     1.0000 0.60740  0.79980  0.97950  Biso   1.000  H
  H168     1.0000 0.89260  0.20020  0.47950  Biso   1.000  H
  H169     1.0000 0.80160  0.17160  0.91770  Biso   1.000  H
  H170     1.0000 0.69840  0.82840  0.41770  Biso   1.000  H
  H171     1.0000 0.30160  0.32840  0.08230  Biso   1.000  H
  H172     1.0000 0.19840  0.67160  0.58230  Biso   1.000  H
  H173     1.0000 0.19840  0.82840  0.08230  Biso   1.000  H
  H174     1.0000 0.30160  0.17160  0.58230  Biso   1.000  H
  H175     1.0000 0.69840  0.67160  0.91770  Biso   1.000  H
  H176     1.0000 0.80160  0.32840  0.41770  Biso   1.000  H
  H177     1.0000 0.68110  0.21120  0.93860  Biso   1.000  H
  H178     1.0000 0.81890  0.78880  0.43860  Biso   1.000  H
  H179     1.0000 0.18110  0.28880  0.06140  Biso   1.000  H
  H180     1.0000 0.31890  0.71120  0.56140  Biso   1.000  H
  H181     1.0000 0.31890  0.78880  0.06140  Biso   1.000  H
  H182     1.0000 0.18110  0.21120  0.56140  Biso   1.000  H
  H183     1.0000 0.81890  0.71120  0.93860  Biso   1.000  H
  H184     1.0000 0.68110  0.28880  0.43860  Biso   1.000  H
  C169     1.0000 0.76770  0.21690  0.99270  Biso   1.000  C
  C170     1.0000 0.73230  0.78310  0.49270  Biso   1.000  C
  C171     1.0000 0.26770  0.28310  0.00730  Biso   1.000  C
  C172     1.0000 0.23230  0.71690  0.50730  Biso   1.000  C
  C173     1.0000 0.23230  0.78310  0.00730  Biso   1.000  C
  C174     1.0000 0.26770  0.21690  0.50730  Biso   1.000  C
  C175     1.0000 0.73230  0.71690  0.99270  Biso   1.000  C
  C176     1.0000 0.76770  0.28310  0.49270  Biso   1.000  C
  O17      1.0000 0.40800  0.92300  0.01590  Biso   1.000  O
  O18      1.0000 0.09200  0.07700  0.51590  Biso   1.000  O
  O19      1.0000 0.90800  0.57700  0.98410  Biso   1.000  O
  O20      1.0000 0.59200  0.42300  0.48410  Biso   1.000  O
  O21      1.0000 0.59200  0.07700  0.98410  Biso   1.000  O
  O22      1.0000 0.90800  0.92300  0.48410  Biso   1.000  O
  O23      1.0000 0.09200  0.42300  0.01590  Biso   1.000  O
  O24      1.0000 0.40800  0.57700  0.51590  Biso   1.000  O
  H185     1.0000 0.91700  0.25740  0.00100  Biso   1.000  H
  H186     1.0000 0.58300  0.74260  0.50100  Biso   1.000  H
  H187     1.0000 0.41700  0.24260  0.99900  Biso   1.000  H
  H188     1.0000 0.08300  0.75740  0.49900  Biso   1.000  H
  H189     1.0000 0.08300  0.74260  0.99900  Biso   1.000  H
  H190     1.0000 0.41700  0.25740  0.49900  Biso   1.000  H
  H191     1.0000 0.58300  0.75740  0.00100  Biso   1.000  H
  H192     1.0000 0.91700  0.24260  0.50100  Biso   1.000  H
  H193     1.0000 0.72150  0.16840  0.00390  Biso   1.000  H
  H194     1.0000 0.77850  0.83160  0.50390  Biso   1.000  H
  H195     1.0000 0.22150  0.33160  0.99610  Biso   1.000  H
  H196     1.0000 0.27850  0.66840  0.49610  Biso   1.000  H
  H197     1.0000 0.27850  0.83160  0.99610  Biso   1.000  H
  H198     1.0000 0.22150  0.16840  0.49610  Biso   1.000  H
  H199     1.0000 0.77850  0.66840  0.00390  Biso   1.000  H
  H200     1.0000 0.72150  0.33160  0.50390  Biso   1.000  H
  H201     1.0000 0.68640  0.20280  0.92210  Biso   1.000  H
  H202     1.0000 0.81360  0.79720  0.42210  Biso   1.000  H
  H203     1.0000 0.18640  0.29720  0.07790  Biso   1.000  H
  H204     1.0000 0.31360  0.70280  0.57790  Biso   1.000  H
  H205     1.0000 0.31360  0.79720  0.07790  Biso   1.000  H
  H206     1.0000 0.18640  0.20280  0.57790  Biso   1.000  H
  H207     1.0000 0.81360  0.70280  0.92210  Biso   1.000  H
  H208     1.0000 0.68640  0.29720  0.42210  Biso   1.000  H
  H209     1.0000 0.81810  0.17890  0.91940  Biso   1.000  H
  H210     1.0000 0.68190  0.82110  0.41940  Biso   1.000  H
  H211     1.0000 0.31810  0.32110  0.08060  Biso   1.000  H
  H212     1.0000 0.18190  0.67890  0.58060  Biso   1.000  H
  H213     1.0000 0.18190  0.82110  0.08060  Biso   1.000  H
  H214     1.0000 0.31810  0.17890  0.58060  Biso   1.000  H
  H215     1.0000 0.68190  0.67890  0.91940  Biso   1.000  H
  H216     1.0000 0.81810  0.32110  0.41940  Biso   1.000  H
  H217     1.0000 0.80590  0.17640  0.02600  Biso   1.000  H
  H218     1.0000 0.69410  0.82360  0.52600  Biso   1.000  H
  H219     1.0000 0.30590  0.32360  0.97400  Biso   1.000  H
  H220     1.0000 0.19410  0.67640  0.47400  Biso   1.000  H
  H221     1.0000 0.19410  0.82360  0.97400  Biso   1.000  H
  H222     1.0000 0.30590  0.17640  0.47400  Biso   1.000  H
  H223     1.0000 0.69410  0.67640  0.02600  Biso   1.000  H
  H224     1.0000 0.80590  0.32360  0.52600  Biso   1.000  H
  H225     1.0000 0.77600  0.29130  0.01310  Biso   1.000  H
  H226     1.0000 0.72400  0.70870  0.51310  Biso   1.000  H
  H227     1.0000 0.27600  0.20870  0.98690  Biso   1.000  H
  H228     1.0000 0.22400  0.79130  0.48690  Biso   1.000  H
  H229     1.0000 0.22400  0.70870  0.98690  Biso   1.000  H
  H230     1.0000 0.27600  0.29130  0.48690  Biso   1.000  H
  H231     1.0000 0.72400  0.79130  0.01310  Biso   1.000  H
  H232     1.0000 0.77600  0.20870  0.51310  Biso   1.000  H
  H233     1.0000 0.52800  0.08020  0.98750  Biso   1.000  H
  H234     1.0000 0.97200  0.91980  0.48750  Biso   1.000  H
  H235     1.0000 0.02800  0.41980  0.01250  Biso   1.000  H
  H236     1.0000 0.47200  0.58020  0.51250  Biso   1.000  H
  H237     1.0000 0.47200  0.91980  0.01250  Biso   1.000  H
  H238     1.0000 0.02800  0.08020  0.51250  Biso   1.000  H
  H239     1.0000 0.97200  0.58020  0.98750  Biso   1.000  H
  H240     1.0000 0.52800  0.41980  0.48750  Biso   1.000  H
  H241     1.0000 0.34200  0.93200  0.00370  Biso   1.000  H
  H242     1.0000 0.15800  0.06800  0.50370  Biso   1.000  H
  H243     1.0000 0.84200  0.56800  0.99630  Biso   1.000  H
  H244     1.0000 0.65800  0.43200  0.49630  Biso   1.000  H
  H245     1.0000 0.65800  0.06800  0.99630  Biso   1.000  H
  H246     1.0000 0.84200  0.93200  0.49630  Biso   1.000  H
  H247     1.0000 0.15800  0.43200  0.00370  Biso   1.000  H
  H248     1.0000 0.34200  0.56800  0.50370  Biso   1.000  H
  H249     1.0000 0.50700  0.08310  0.98970  Biso   1.000  H
  H250     1.0000 0.99300  0.91690  0.48970  Biso   1.000  H
  H251     1.0000 0.00700  0.41690  0.01030  Biso   1.000  H
  H252     1.0000 0.49300  0.58310  0.51030  Biso   1.000  H
  H253     1.0000 0.49300  0.91690  0.01030  Biso   1.000  H
  H254     1.0000 0.00700  0.08310  0.51030  Biso   1.000  H
  H255     1.0000 0.99300  0.58310  0.98970  Biso   1.000  H
  H256     1.0000 0.50700  0.41690  0.48970  Biso   1.000  H
  H257     1.0000 0.43000  0.93440  0.96350  Biso   1.000  H
  H258     1.0000 0.07000  0.06560  0.46350  Biso   1.000  H
  H259     1.0000 0.93000  0.56560  0.03650  Biso   1.000  H
  H260     1.0000 0.57000  0.43440  0.53650  Biso   1.000  H
  H261     1.0000 0.57000  0.06560  0.03650  Biso   1.000  H
  H262     1.0000 0.93000  0.93440  0.53650  Biso   1.000  H
  H263     1.0000 0.07000  0.43440  0.96350  Biso   1.000  H
  H264     1.0000 0.43000  0.56560  0.46350  Biso   1.000  H
  H265     1.0000 0.44500  0.97680  0.02110  Biso   1.000  H
  H266     1.0000 0.05500  0.02320  0.52110  Biso   1.000  H
  H267     1.0000 0.94500  0.52320  0.97890  Biso   1.000  H
  H268     1.0000 0.55500  0.47680  0.47890  Biso   1.000  H
  H269     1.0000 0.55500  0.02320  0.97890  Biso   1.000  H
  H270     1.0000 0.94500  0.97680  0.47890  Biso   1.000  H
  H271     1.0000 0.05500  0.47680  0.02110  Biso   1.000  H
  H272     1.0000 0.44500  0.52320  0.52110  Biso   1.000  H
  H273     1.0000 0.55400  0.96450  0.00990  Biso   1.000  H
  H274     1.0000 0.94600  0.03550  0.50990  Biso   1.000  H
  H275     1.0000 0.05400  0.53550  0.99010  Biso   1.000  H
  H276     1.0000 0.44600  0.46450  0.49010  Biso   1.000  H
  H277     1.0000 0.44600  0.03550  0.99010  Biso   1.000  H
  H278     1.0000 0.05400  0.96450  0.49010  Biso   1.000  H
  H279     1.0000 0.94600  0.46450  0.00990  Biso   1.000  H
  H280     1.0000 0.55400  0.53550  0.50990  Biso   1.000  H
  H281     1.0000 0.50200  0.92720  0.95610  Biso   1.000  H
  H282     1.0000 0.99800  0.07280  0.45610  Biso   1.000  H
  H283     1.0000 0.00200  0.57280  0.04390  Biso   1.000  H
  H284     1.0000 0.49800  0.42720  0.54390  Biso   1.000  H
  H285     1.0000 0.49800  0.07280  0.04390  Biso   1.000  H
  H286     1.0000 0.00200  0.92720  0.54390  Biso   1.000  H
  H287     1.0000 0.99800  0.42720  0.95610  Biso   1.000  H
  H288     1.0000 0.50200  0.57280  0.45610  Biso   1.000  H
  H289     1.0000 0.41700  0.05980  0.95130  Biso   1.000  H
  H290     1.0000 0.08300  0.94020  0.45130  Biso   1.000  H
  H291     1.0000 0.91700  0.44020  0.04870  Biso   1.000  H
  H292     1.0000 0.58300  0.55980  0.54870  Biso   1.000  H
  H293     1.0000 0.58300  0.94020  0.04870  Biso   1.000  H
  H294     1.0000 0.91700  0.05980  0.54870  Biso   1.000  H
  H295     1.0000 0.08300  0.55980  0.95130  Biso   1.000  H
  H296     1.0000 0.41700  0.44020  0.45130  Biso   1.000  H
  H297     1.0000 0.54200  0.03570  0.92960  Biso   1.000  H
  H298     1.0000 0.95800  0.96430  0.42960  Biso   1.000  H
  H299     1.0000 0.04200  0.46430  0.07040  Biso   1.000  H
  H300     1.0000 0.45800  0.53570  0.57040  Biso   1.000  H
  H301     1.0000 0.45800  0.96430  0.07040  Biso   1.000  H
  H302     1.0000 0.04200  0.03570  0.57040  Biso   1.000  H
  H303     1.0000 0.95800  0.53570  0.92960  Biso   1.000  H
  H304     1.0000 0.54200  0.46430  0.42960  Biso   1.000  H
  H305     1.0000 0.55800  0.03970  0.93620  Biso   1.000  H
  H306     1.0000 0.94200  0.96030  0.43620  Biso   1.000  H
  H307     1.0000 0.05800  0.46030  0.06380  Biso   1.000  H
  H308     1.0000 0.44200  0.53970  0.56380  Biso   1.000  H
  H309     1.0000 0.44200  0.96030  0.06380  Biso   1.000  H
  H310     1.0000 0.05800  0.03970  0.56380  Biso   1.000  H
  H311     1.0000 0.94200  0.53970  0.93620  Biso   1.000  H
  H312     1.0000 0.55800  0.46030  0.43620  Biso   1.000  H
  H313     1.0000 0.42200  0.05280  0.94250  Biso   1.000  H
  H314     1.0000 0.07800  0.94720  0.44250  Biso   1.000  H
  H315     1.0000 0.92200  0.44720  0.05750  Biso   1.000  H
  H316     1.0000 0.57800  0.55280  0.55750  Biso   1.000  H
  H317     1.0000 0.57800  0.94720  0.05750  Biso   1.000  H
  H318     1.0000 0.92200  0.05280  0.55750  Biso   1.000  H
  H319     1.0000 0.07800  0.55280  0.94250  Biso   1.000  H
  H320     1.0000 0.42200  0.44720  0.44250  Biso   1.000  H
