data_image0
_cell_length_a       8.932
_cell_length_b       19.899
_cell_length_c       26.163
_cell_angle_alpha    77.07
_cell_angle_beta     87.49
_cell_angle_gamma    86.4

_symmetry_space_group_name_H-M    "P 1"
_symmetry_int_tables_number       1

loop_
  _symmetry_equiv_pos_as_xyz
  'x, y, z'

loop_
  _atom_site_label
  _atom_site_occupancy
  _atom_site_fract_x
  _atom_site_fract_y
  _atom_site_fract_z
  _atom_site_thermal_displace_type
  _atom_site_B_iso_or_equiv
  _atom_site_type_symbol
  Cu1      1.0000 0.08900  0.41244  0.63006  Biso   1.000  Cu
  Cu2      1.0000 0.91100  0.58756  0.36994  Biso   1.000  Cu
  Br1      1.0000 0.00792  0.35718  0.72084  Biso   1.000  Br
  Br2      1.0000 0.99208  0.64282  0.27916  Biso   1.000  Br
  Br3      1.0000 0.20905  0.41170  0.54351  Biso   1.000  Br
  Br4      1.0000 0.79095  0.58830  0.45649  Biso   1.000  Br
  Cu3      1.0000 0.81417  0.52270  0.86501  Biso   1.000  Cu
  Cu4      1.0000 0.18583  0.47730  0.13499  Biso   1.000  Cu
  Br5      1.0000 0.89017  0.58595  0.93035  Biso   1.000  Br
  Br6      1.0000 0.10983  0.41405  0.06965  Biso   1.000  Br
  Br7      1.0000 0.68418  0.51692  0.78571  Biso   1.000  Br
  Br8      1.0000 0.31582  0.48308  0.21429  Biso   1.000  Br
  N1       1.0000 0.01270  0.52420  0.62490  Biso   1.000  N
  N2       1.0000 0.98730  0.47580  0.37510  Biso   1.000  N
  C1       1.0000 0.02560  0.57270  0.58060  Biso   1.000  C
  C2       1.0000 0.97440  0.42730  0.41940  Biso   1.000  C
  H1       1.0000 0.07320  0.56030  0.55150  Biso   1.000  H
  H2       1.0000 0.92680  0.43970  0.44850  Biso   1.000  H
  C3       1.0000 0.97160  0.64010  0.57600  Biso   1.000  C
  C4       1.0000 0.02840  0.35990  0.42400  Biso   1.000  C
  C5       1.0000 0.89750  0.65680  0.61980  Biso   1.000  C
  C6       1.0000 0.10250  0.34320  0.38020  Biso   1.000  C
  H3       1.0000 0.85920  0.70170  0.61850  Biso   1.000  H
  H4       1.0000 0.14080  0.29830  0.38150  Biso   1.000  H
  C7       1.0000 0.88120  0.60690  0.66490  Biso   1.000  C
  C8       1.0000 0.11880  0.39310  0.33510  Biso   1.000  C
  H5       1.0000 0.82910  0.61750  0.69390  Biso   1.000  H
  H6       1.0000 0.17090  0.38250  0.30610  Biso   1.000  H
  C9       1.0000 0.94180  0.54170  0.66710  Biso   1.000  C
  C10      1.0000 0.05820  0.45830  0.33290  Biso   1.000  C
  H7       1.0000 0.93410  0.50860  0.69830  Biso   1.000  H
  H8       1.0000 0.06590  0.49140  0.30170  Biso   1.000  H
  C11      1.0000 0.99000  0.69110  0.52520  Biso   1.000  C
  C12      1.0000 0.01000  0.30890  0.47480  Biso   1.000  C
  H9       1.0000 0.07540  0.67740  0.50480  Biso   1.000  H
  H10      1.0000 0.92460  0.32260  0.49520  Biso   1.000  H
  H11      1.0000 0.90070  0.69540  0.50460  Biso   1.000  H
  H12      1.0000 0.09930  0.30460  0.49540  Biso   1.000  H
  H13      1.0000 0.92940  0.67700  0.50040  Biso   1.000  H
  H14      1.0000 0.07060  0.32300  0.49960  Biso   1.000  H
  H15      1.0000 0.09250  0.68730  0.51290  Biso   1.000  H
  H16      1.0000 0.90750  0.31270  0.48710  Biso   1.000  H
  O1       1.0000 0.01490  0.75720  0.54050  Biso   1.000  O
  O2       1.0000 0.98510  0.24280  0.45950  Biso   1.000  O
  Si1      1.0000 0.17960  0.79030  0.53014  Biso   1.000  Si
  Si2      1.0000 0.82040  0.20970  0.46986  Biso   1.000  Si
  O3       1.0000 0.20000  0.81920  0.46690  Biso   1.000  O
  O4       1.0000 0.80000  0.18080  0.53310  Biso   1.000  O
  Si3      1.0000 0.16680  0.86100  0.40788  Biso   1.000  Si
  Si4      1.0000 0.83320  0.13900  0.59212  Biso   1.000  Si
  O5       1.0000 0.23260  0.81410  0.36750  Biso   1.000  O
  O6       1.0000 0.76740  0.18590  0.63250  Biso   1.000  O
  O7       1.0000 0.95110  0.75880  0.52240  Biso   1.000  O
  O8       1.0000 0.04890  0.24120  0.47760  Biso   1.000  O
  Si5      1.0000 0.98640  0.83020  0.48140  Biso   1.000  Si
  Si6      1.0000 0.01360  0.16980  0.51860  Biso   1.000  Si
  O9       1.0000 0.16530  0.83550  0.46950  Biso   1.000  O
  O10      1.0000 0.83470  0.16450  0.53050  Biso   1.000  O
  Si7      1.0000 0.34450  0.83600  0.46430  Biso   1.000  Si
  Si8      1.0000 0.65550  0.16400  0.53570  Biso   1.000  Si
  O11      1.0000 0.41100  0.78030  0.43060  Biso   1.000  O
  O12      1.0000 0.58900  0.21970  0.56940  Biso   1.000  O
  C13      1.0000 0.35160  0.76240  0.38160  Biso   1.000  C
  C14      1.0000 0.64840  0.23760  0.61840  Biso   1.000  C
  H17      1.0000 0.40750  0.77320  0.40940  Biso   1.000  H
  H18      1.0000 0.59250  0.22680  0.59060  Biso   1.000  H
  H19      1.0000 0.41970  0.76340  0.35150  Biso   1.000  H
  H20      1.0000 0.58030  0.23660  0.64850  Biso   1.000  H
  H21      1.0000 0.43080  0.76330  0.35550  Biso   1.000  H
  H22      1.0000 0.56920  0.23670  0.64450  Biso   1.000  H
  H23      1.0000 0.27210  0.79500  0.36720  Biso   1.000  H
  H24      1.0000 0.72790  0.20500  0.63280  Biso   1.000  H
  C15      1.0000 0.29530  0.69070  0.39970  Biso   1.000  C
  C16      1.0000 0.70470  0.30930  0.60030  Biso   1.000  C
  C17      1.0000 0.16400  0.67240  0.38150  Biso   1.000  C
  C18      1.0000 0.83600  0.32760  0.61850  Biso   1.000  C
  H25      1.0000 0.11160  0.70520  0.35680  Biso   1.000  H
  H26      1.0000 0.88840  0.29480  0.64320  Biso   1.000  H
  N3       1.0000 0.10860  0.61040  0.39760  Biso   1.000  N
  N4       1.0000 0.89140  0.38960  0.60240  Biso   1.000  N
  C19      1.0000 0.18320  0.56390  0.43360  Biso   1.000  C
  C20      1.0000 0.81680  0.43610  0.56640  Biso   1.000  C
  H27      1.0000 0.14280  0.52130  0.44640  Biso   1.000  H
  H28      1.0000 0.85720  0.47870  0.55360  Biso   1.000  H
  C21      1.0000 0.31690  0.57630  0.45260  Biso   1.000  C
  C22      1.0000 0.68310  0.42370  0.54740  Biso   1.000  C
  H29      1.0000 0.36790  0.54210  0.47670  Biso   1.000  H
  H30      1.0000 0.63210  0.45790  0.52330  Biso   1.000  H
  C23      1.0000 0.37420  0.64010  0.43530  Biso   1.000  C
  C24      1.0000 0.62580  0.35990  0.56470  Biso   1.000  C
  H31      1.0000 0.46540  0.64940  0.44740  Biso   1.000  H
  H32      1.0000 0.53460  0.35060  0.55260  Biso   1.000  H
  C25      1.0000 0.32690  0.72030  0.55200  Biso   1.000  C
  C26      1.0000 0.67310  0.27970  0.44800  Biso   1.000  C
  H33      1.0000 0.30590  0.68240  0.53550  Biso   1.000  H
  H34      1.0000 0.69410  0.31760  0.46450  Biso   1.000  H
  C27      1.0000 0.32390  0.69060  0.61130  Biso   1.000  C
  C28      1.0000 0.67610  0.30940  0.38870  Biso   1.000  C
  H35      1.0000 0.22430  0.67750  0.62280  Biso   1.000  H
  H36      1.0000 0.77570  0.32250  0.37720  Biso   1.000  H
  H37      1.0000 0.35290  0.72500  0.62890  Biso   1.000  H
  H38      1.0000 0.64710  0.27500  0.37110  Biso   1.000  H
  H39      1.0000 0.39260  0.65090  0.61920  Biso   1.000  H
  H40      1.0000 0.60740  0.34910  0.38080  Biso   1.000  H
  C29      1.0000 0.48520  0.74120  0.53360  Biso   1.000  C
  C30      1.0000 0.51480  0.25880  0.46640  Biso   1.000  C
  H41      1.0000 0.48720  0.75980  0.49650  Biso   1.000  H
  H42      1.0000 0.51280  0.24020  0.50350  Biso   1.000  H
  H43      1.0000 0.55390  0.70150  0.54160  Biso   1.000  H
  H44      1.0000 0.44610  0.29850  0.45840  Biso   1.000  H
  H45      1.0000 0.51420  0.77550  0.55130  Biso   1.000  H
  H46      1.0000 0.48580  0.22450  0.44870  Biso   1.000  H
  C31      1.0000 0.17180  0.86190  0.56490  Biso   1.000  C
  C32      1.0000 0.82820  0.13810  0.43510  Biso   1.000  C
  H47      1.0000 0.20690  0.83230  0.59790  Biso   1.000  H
  H48      1.0000 0.79310  0.16770  0.40210  Biso   1.000  H
  C33      1.0000 0.29930  0.90540  0.55850  Biso   1.000  C
  C34      1.0000 0.70070  0.09460  0.44150  Biso   1.000  C
  H49      1.0000 0.38260  0.88370  0.54270  Biso   1.000  H
  H50      1.0000 0.61740  0.11630  0.45730  Biso   1.000  H
  H51      1.0000 0.32670  0.91150  0.59210  Biso   1.000  H
  H52      1.0000 0.67330  0.08850  0.40790  Biso   1.000  H
  H53      1.0000 0.27280  0.94950  0.53630  Biso   1.000  H
  H54      1.0000 0.72720  0.05050  0.46370  Biso   1.000  H
  C35      1.0000 0.02830  0.87890  0.58740  Biso   1.000  C
  C36      1.0000 0.97170  0.12110  0.41260  Biso   1.000  C
  H55      1.0000 0.96160  0.84280  0.58770  Biso   1.000  H
  H56      1.0000 0.03840  0.15720  0.41230  Biso   1.000  H
  H57      1.0000 0.98680  0.92160  0.56690  Biso   1.000  H
  H58      1.0000 0.01320  0.07840  0.43310  Biso   1.000  H
  H59      1.0000 0.04070  0.88360  0.62270  Biso   1.000  H
  H60      1.0000 0.95930  0.11640  0.37730  Biso   1.000  H
  C37      1.0000 0.25980  0.94530  0.39420  Biso   1.000  C
  C38      1.0000 0.74020  0.05470  0.60580  Biso   1.000  C
  H61      1.0000 0.21690  0.97140  0.41950  Biso   1.000  H
  H62      1.0000 0.78310  0.02860  0.58050  Biso   1.000  H
  C39      1.0000 0.42670  0.93450  0.40330  Biso   1.000  C
  C40      1.0000 0.57330  0.06550  0.59670  Biso   1.000  C
  H63      1.0000 0.44300  0.90690  0.43790  Biso   1.000  H
  H64      1.0000 0.55700  0.09310  0.56210  Biso   1.000  H
  H65      1.0000 0.46930  0.97840  0.40000  Biso   1.000  H
  H66      1.0000 0.53070  0.02160  0.60000  Biso   1.000  H
  H67      1.0000 0.47370  0.91140  0.37780  Biso   1.000  H
  H68      1.0000 0.52630  0.08860  0.62220  Biso   1.000  H
  C41      1.0000 0.22930  0.98830  0.34050  Biso   1.000  C
  C42      1.0000 0.77070  0.01170  0.65950  Biso   1.000  C
  H69      1.0000 0.12290  0.99440  0.33580  Biso   1.000  H
  H70      1.0000 0.87710  0.00560  0.66420  Biso   1.000  H
  H71      1.0000 0.27480  0.96560  0.31460  Biso   1.000  H
  H72      1.0000 0.72520  0.03440  0.68540  Biso   1.000  H
  H73      1.0000 0.27050  0.03260  0.33670  Biso   1.000  H
  H74      1.0000 0.72950  0.96740  0.66330  Biso   1.000  H
  C43      1.0000 0.96260  0.87790  0.39330  Biso   1.000  C
  C44      1.0000 0.03740  0.12210  0.60670  Biso   1.000  C
  H75      1.0000 0.95690  0.90550  0.35730  Biso   1.000  H
  H76      1.0000 0.04310  0.09450  0.64270  Biso   1.000  H
  C45      1.0000 0.88200  0.92040  0.42850  Biso   1.000  C
  C46      1.0000 0.11800  0.07960  0.57150  Biso   1.000  C
  H77      1.0000 0.93420  0.96160  0.42680  Biso   1.000  H
  H78      1.0000 0.06580  0.03840  0.57320  Biso   1.000  H
  H79      1.0000 0.87940  0.89380  0.46400  Biso   1.000  H
  H80      1.0000 0.12060  0.10620  0.53600  Biso   1.000  H
  H81      1.0000 0.78130  0.93270  0.41710  Biso   1.000  H
  H82      1.0000 0.21870  0.06730  0.58290  Biso   1.000  H
  C47      1.0000 0.88270  0.81150  0.39480  Biso   1.000  C
  C48      1.0000 0.11730  0.18850  0.60520  Biso   1.000  C
  H83      1.0000 0.93590  0.78560  0.37220  Biso   1.000  H
  H84      1.0000 0.06410  0.21440  0.62780  Biso   1.000  H
  H85      1.0000 0.78200  0.82310  0.38310  Biso   1.000  H
  H86      1.0000 0.21800  0.17690  0.61690  Biso   1.000  H
  H87      1.0000 0.88010  0.78430  0.43010  Biso   1.000  H
  H88      1.0000 0.11990  0.21570  0.56990  Biso   1.000  H
  C49      1.0000 0.89170  0.83930  0.42080  Biso   1.000  C
  C50      1.0000 0.10830  0.16070  0.57920  Biso   1.000  C
  H89      1.0000 0.97050  0.81710  0.40200  Biso   1.000  H
  H90      1.0000 0.02950  0.18290  0.59800  Biso   1.000  H
  C51      1.0000 0.77070  0.79550  0.41610  Biso   1.000  C
  C52      1.0000 0.22930  0.20450  0.58390  Biso   1.000  C
  H91      1.0000 0.78360  0.75220  0.44090  Biso   1.000  H
  H92      1.0000 0.21640  0.24780  0.55910  Biso   1.000  H
  H93      1.0000 0.77280  0.78750  0.38120  Biso   1.000  H
  H94      1.0000 0.22720  0.21250  0.61880  Biso   1.000  H
  H95      1.0000 0.67610  0.81790  0.42310  Biso   1.000  H
  H96      1.0000 0.32390  0.18210  0.57690  Biso   1.000  H
  C53      1.0000 0.88490  0.90980  0.38350  Biso   1.000  C
  C54      1.0000 0.11510  0.09020  0.61650  Biso   1.000  C
  H97      1.0000 0.96840  0.93510  0.38920  Biso   1.000  H
  H98      1.0000 0.03160  0.06490  0.61080  Biso   1.000  H
  H99      1.0000 0.79280  0.93460  0.38990  Biso   1.000  H
  H100     1.0000 0.20720  0.06540  0.61010  Biso   1.000  H
  H101     1.0000 0.88940  0.90420  0.34800  Biso   1.000  H
  H102     1.0000 0.11060  0.09580  0.65200  Biso   1.000  H
  C55      1.0000 0.91440  0.89860  0.51770  Biso   1.000  C
  C56      1.0000 0.08560  0.10140  0.48230  Biso   1.000  C
  H103     1.0000 0.92940  0.94330  0.49380  Biso   1.000  H
  H104     1.0000 0.07060  0.05670  0.50620  Biso   1.000  H
  C57      1.0000 0.74940  0.89650  0.53110  Biso   1.000  C
  C58      1.0000 0.25060  0.10350  0.46890  Biso   1.000  C
  H105     1.0000 0.69500  0.89860  0.49980  Biso   1.000  H
  H106     1.0000 0.30500  0.10140  0.50020  Biso   1.000  H
  H107     1.0000 0.71760  0.93510  0.54600  Biso   1.000  H
  H108     1.0000 0.28240  0.06490  0.45400  Biso   1.000  H
  H109     1.0000 0.73000  0.85430  0.55600  Biso   1.000  H
  H110     1.0000 0.27000  0.14570  0.44400  Biso   1.000  H
  C59      1.0000 0.01030  0.89540  0.56430  Biso   1.000  C
  C60      1.0000 0.98970  0.10460  0.43570  Biso   1.000  C
  H111     1.0000 0.11400  0.89700  0.55310  Biso   1.000  H
  H112     1.0000 0.88600  0.10300  0.44690  Biso   1.000  H
  H113     1.0000 0.99510  0.85320  0.58970  Biso   1.000  H
  H114     1.0000 0.00490  0.14680  0.41030  Biso   1.000  H
  H115     1.0000 0.98270  0.93400  0.57980  Biso   1.000  H
  H116     1.0000 0.01730  0.06600  0.42020  Biso   1.000  H
  C61      1.0000 0.39830  0.92570  0.43190  Biso   1.000  C
  C62      1.0000 0.60170  0.07430  0.56810  Biso   1.000  C
  H117     1.0000 0.50650  0.92690  0.43620  Biso   1.000  H
  H118     1.0000 0.49350  0.07310  0.56380  Biso   1.000  H
  C63      1.0000 0.32310  0.98040  0.45780  Biso   1.000  C
  C64      1.0000 0.67690  0.01960  0.54220  Biso   1.000  C
  H119     1.0000 0.34100  0.96840  0.49470  Biso   1.000  H
  H120     1.0000 0.65900  0.03160  0.50530  Biso   1.000  H
  H121     1.0000 0.21710  0.98320  0.45240  Biso   1.000  H
  H122     1.0000 0.78290  0.01680  0.54760  Biso   1.000  H
  H123     1.0000 0.36360  0.02420  0.44270  Biso   1.000  H
  H124     1.0000 0.63640  0.97580  0.55730  Biso   1.000  H
  C65      1.0000 0.37290  0.94260  0.37340  Biso   1.000  C
  C66      1.0000 0.62710  0.05740  0.62660  Biso   1.000  C
  H125     1.0000 0.42170  0.90720  0.35800  Biso   1.000  H
  H126     1.0000 0.57830  0.09280  0.64200  Biso   1.000  H
  H127     1.0000 0.41370  0.98620  0.35770  Biso   1.000  H
  H128     1.0000 0.58630  0.01380  0.64230  Biso   1.000  H
  H129     1.0000 0.26720  0.94520  0.36740  Biso   1.000  H
  H130     1.0000 0.73280  0.05480  0.63260  Biso   1.000  H
  C67      1.0000 0.42600  0.80750  0.53130  Biso   1.000  C
  C68      1.0000 0.57400  0.19250  0.46870  Biso   1.000  C
  H131     1.0000 0.38970  0.84240  0.55070  Biso   1.000  H
  H132     1.0000 0.61030  0.15760  0.44930  Biso   1.000  H
  C69      1.0000 0.59530  0.81010  0.52810  Biso   1.000  C
  C70      1.0000 0.40470  0.18990  0.47190  Biso   1.000  C
  H133     1.0000 0.62260  0.85440  0.50790  Biso   1.000  H
  H134     1.0000 0.37740  0.14560  0.49210  Biso   1.000  H
  H135     1.0000 0.63770  0.77450  0.51150  Biso   1.000  H
  H136     1.0000 0.36230  0.22550  0.48850  Biso   1.000  H
  H137     1.0000 0.63300  0.80310  0.56280  Biso   1.000  H
  H138     1.0000 0.36700  0.19690  0.43720  Biso   1.000  H
  C71      1.0000 0.37150  0.74150  0.56160  Biso   1.000  C
  C72      1.0000 0.62850  0.25850  0.43840  Biso   1.000  C
  H139     1.0000 0.26380  0.74360  0.56200  Biso   1.000  H
  H140     1.0000 0.73620  0.25640  0.43800  Biso   1.000  H
  H141     1.0000 0.40530  0.73330  0.59690  Biso   1.000  H
  H142     1.0000 0.59470  0.26670  0.40310  Biso   1.000  H
  H143     1.0000 0.41000  0.70470  0.54570  Biso   1.000  H
  H144     1.0000 0.59000  0.29530  0.45430  Biso   1.000  H
  N5       1.0000 0.29550  0.42430  0.65520  Biso   1.000  N
  N6       1.0000 0.70450  0.57570  0.34480  Biso   1.000  N
  C73      1.0000 0.36920  0.37240  0.68820  Biso   1.000  C
  C74      1.0000 0.63080  0.62760  0.31180  Biso   1.000  C
  H145     1.0000 0.32170  0.33130  0.70060  Biso   1.000  H
  H146     1.0000 0.67830  0.66870  0.29940  Biso   1.000  H
  C75      1.0000 0.51330  0.37750  0.70470  Biso   1.000  C
  C76      1.0000 0.48670  0.62250  0.29530  Biso   1.000  C
  C77      1.0000 0.58370  0.43810  0.68560  Biso   1.000  C
  C78      1.0000 0.41630  0.56190  0.31440  Biso   1.000  C
  H147     1.0000 0.68010  0.44320  0.69560  Biso   1.000  H
  H148     1.0000 0.31990  0.55680  0.30440  Biso   1.000  H
  C79      1.0000 0.50970  0.49060  0.65170  Biso   1.000  C
  C80      1.0000 0.49030  0.50940  0.34830  Biso   1.000  C
  H149     1.0000 0.55620  0.53180  0.63840  Biso   1.000  H
  H150     1.0000 0.44380  0.46820  0.36160  Biso   1.000  H
  C81      1.0000 0.36590  0.48290  0.63690  Biso   1.000  C
  C82      1.0000 0.63410  0.51710  0.36310  Biso   1.000  C
  H151     1.0000 0.31690  0.51910  0.61380  Biso   1.000  H
  H152     1.0000 0.68310  0.48090  0.38620  Biso   1.000  H
  C83      1.0000 0.58950  0.31940  0.74300  Biso   1.000  C
  C84      1.0000 0.41050  0.68060  0.25700  Biso   1.000  C
  H153     1.0000 0.68550  0.30660  0.72810  Biso   1.000  H
  H154     1.0000 0.31450  0.69340  0.27190  Biso   1.000  H
  H155     1.0000 0.60840  0.33470  0.77470  Biso   1.000  H
  H156     1.0000 0.39160  0.66530  0.22530  Biso   1.000  H
  O13      1.0000 0.50160  0.26080  0.75610  Biso   1.000  O
  O14      1.0000 0.49840  0.73920  0.24390  Biso   1.000  O
  Si9      1.0000 0.46210  0.21463  0.81443  Biso   1.000  Si
  Si10     1.0000 0.53790  0.78537  0.18557  Biso   1.000  Si
  O15      1.0000 0.60620  0.16600  0.83770  Biso   1.000  O
  O16      1.0000 0.39380  0.83400  0.16230  Biso   1.000  O
  Si11     1.0000 0.75970  0.12606  0.86131  Biso   1.000  Si
  Si12     1.0000 0.24030  0.87394  0.13869  Biso   1.000  Si
  O17      1.0000 0.86080  0.18050  0.88150  Biso   1.000  O
  O18      1.0000 0.13920  0.81950  0.11850  Biso   1.000  O
  C85      1.0000 0.89760  0.24600  0.85140  Biso   1.000  C
  C86      1.0000 0.10240  0.75400  0.14860  Biso   1.000  C
  H157     1.0000 0.81890  0.26410  0.82690  Biso   1.000  H
  H158     1.0000 0.18110  0.73590  0.17310  Biso   1.000  H
  H159     1.0000 0.99020  0.24130  0.83140  Biso   1.000  H
  H160     1.0000 0.00980  0.75870  0.16860  Biso   1.000  H
  C87      1.0000 0.91610  0.29560  0.88630  Biso   1.000  C
  C88      1.0000 0.08390  0.70440  0.11370  Biso   1.000  C
  C89      1.0000 0.87800  0.36500  0.86850  Biso   1.000  C
  C90      1.0000 0.12200  0.63500  0.13150  Biso   1.000  C
  H161     1.0000 0.83630  0.37890  0.83560  Biso   1.000  H
  H162     1.0000 0.16370  0.62110  0.16440  Biso   1.000  H
  N7       1.0000 0.89690  0.41390  0.89540  Biso   1.000  N
  N8       1.0000 0.10310  0.58610  0.10460  Biso   1.000  N
  C91      1.0000 0.95860  0.39340  0.94250  Biso   1.000  C
  C92      1.0000 0.04140  0.60660  0.05750  Biso   1.000  C
  H163     1.0000 0.97440  0.42660  0.96150  Biso   1.000  H
  H164     1.0000 0.02560  0.57340  0.03850  Biso   1.000  H
  C93      1.0000 0.00000  0.32500  0.96430  Biso   1.000  C
  C94      1.0000 0.00000  0.67500  0.03570  Biso   1.000  C
  H165     1.0000 0.04200  0.31250  0.99720  Biso   1.000  H
  H166     1.0000 0.95800  0.68750  0.00280  Biso   1.000  H
  C95      1.0000 0.97720  0.27540  0.93570  Biso   1.000  C
  C96      1.0000 0.02280  0.72460  0.06430  Biso   1.000  C
  H167     1.0000 0.00260  0.22910  0.94970  Biso   1.000  H
  H168     1.0000 0.99740  0.77090  0.05030  Biso   1.000  H
  C97      1.0000 0.39570  0.26870  0.86140  Biso   1.000  C
  C98      1.0000 0.60430  0.73130  0.13860  Biso   1.000  C
  H169     1.0000 0.32360  0.23970  0.88410  Biso   1.000  H
  H170     1.0000 0.67640  0.76030  0.11590  Biso   1.000  H
  C99      1.0000 0.49990  0.28170  0.89830  Biso   1.000  C
  C100     1.0000 0.50010  0.71830  0.10170  Biso   1.000  C
  H171     1.0000 0.55780  0.24000  0.91250  Biso   1.000  H
  H172     1.0000 0.44220  0.76000  0.08750  Biso   1.000  H
  H173     1.0000 0.44530  0.29750  0.92620  Biso   1.000  H
  H174     1.0000 0.55470  0.70250  0.07380  Biso   1.000  H
  H175     1.0000 0.56580  0.31650  0.88070  Biso   1.000  H
  H176     1.0000 0.43420  0.68350  0.11930  Biso   1.000  H
  C101     1.0000 0.29950  0.33230  0.83710  Biso   1.000  C
  C102     1.0000 0.70050  0.66770  0.16290  Biso   1.000  C
  H177     1.0000 0.23250  0.32080  0.81300  Biso   1.000  H
  H178     1.0000 0.76750  0.67920  0.18700  Biso   1.000  H
  H179     1.0000 0.36270  0.36770  0.81870  Biso   1.000  H
  H180     1.0000 0.63730  0.63230  0.18130  Biso   1.000  H
  H181     1.0000 0.24220  0.34870  0.86420  Biso   1.000  H
  H182     1.0000 0.75780  0.65130  0.13580  Biso   1.000  H
  C103     1.0000 0.31390  0.15890  0.80230  Biso   1.000  C
  C104     1.0000 0.68610  0.84110  0.19770  Biso   1.000  C
  H183     1.0000 0.22070  0.18810  0.79810  Biso   1.000  H
  H184     1.0000 0.77930  0.81190  0.20190  Biso   1.000  H
  C105     1.0000 0.34000  0.13430  0.75190  Biso   1.000  C
  C106     1.0000 0.66000  0.86570  0.24810  Biso   1.000  C
  H185     1.0000 0.35750  0.17310  0.72350  Biso   1.000  H
  H186     1.0000 0.64250  0.82690  0.27650  Biso   1.000  H
  H187     1.0000 0.25320  0.11190  0.74510  Biso   1.000  H
  H188     1.0000 0.74680  0.88810  0.25490  Biso   1.000  H
  H189     1.0000 0.42580  0.10230  0.75510  Biso   1.000  H
  H190     1.0000 0.57420  0.89770  0.24490  Biso   1.000  H
  C107     1.0000 0.28540  0.09910  0.84890  Biso   1.000  C
  C108     1.0000 0.71460  0.90090  0.15110  Biso   1.000  C
  H191     1.0000 0.26930  0.11650  0.88020  Biso   1.000  H
  H192     1.0000 0.73070  0.88350  0.11980  Biso   1.000  H
  H193     1.0000 0.37080  0.06680  0.85290  Biso   1.000  H
  H194     1.0000 0.62920  0.93320  0.14710  Biso   1.000  H
  H195     1.0000 0.19820  0.07640  0.84290  Biso   1.000  H
  H196     1.0000 0.80180  0.92360  0.15710  Biso   1.000  H
  C109     1.0000 0.86180  0.09120  0.80820  Biso   1.000  C
  C110     1.0000 0.13820  0.90880  0.19180  Biso   1.000  C
  H197     1.0000 0.96430  0.07740  0.81980  Biso   1.000  H
  H198     1.0000 0.03570  0.92260  0.18020  Biso   1.000  H
  C111     1.0000 0.87370  0.14450  0.75630  Biso   1.000  C
  C112     1.0000 0.12630  0.85550  0.24370  Biso   1.000  C
  H199     1.0000 0.91750  0.18490  0.76200  Biso   1.000  H
  H200     1.0000 0.08250  0.81510  0.23800  Biso   1.000  H
  H201     1.0000 0.77540  0.15690  0.74250  Biso   1.000  H
  H202     1.0000 0.22460  0.84310  0.25750  Biso   1.000  H
  H203     1.0000 0.93560  0.12530  0.73160  Biso   1.000  H
  H204     1.0000 0.06440  0.87470  0.26840  Biso   1.000  H
  C113     1.0000 0.79170  0.02630  0.79920  Biso   1.000  C
  C114     1.0000 0.20830  0.97370  0.20080  Biso   1.000  C
  H205     1.0000 0.78450  0.99290  0.83190  Biso   1.000  H
  H206     1.0000 0.21550  0.00710  0.16810  Biso   1.000  H
  H207     1.0000 0.85360  0.00690  0.77460  Biso   1.000  H
  H208     1.0000 0.14640  0.99310  0.22540  Biso   1.000  H
  H209     1.0000 0.69330  0.03850  0.78550  Biso   1.000  H
  H210     1.0000 0.30670  0.96150  0.21450  Biso   1.000  H
  C115     1.0000 0.71870  0.05790  0.92150  Biso   1.000  C
  C116     1.0000 0.28130  0.94210  0.07850  Biso   1.000  C
  H211     1.0000 0.66190  0.02310  0.91070  Biso   1.000  H
  H212     1.0000 0.33810  0.97690  0.08930  Biso   1.000  H
  C117     1.0000 0.86400  0.02150  0.94560  Biso   1.000  C
  C118     1.0000 0.13600  0.97850  0.05440  Biso   1.000  C
  H213     1.0000 0.92340  0.00410  0.91940  Biso   1.000  H
  H214     1.0000 0.07660  0.99590  0.08060  Biso   1.000  H
  H215     1.0000 0.83960  0.98380  0.97420  Biso   1.000  H
  H216     1.0000 0.16040  0.01620  0.02580  Biso   1.000  H
  H217     1.0000 0.91970  0.05370  0.95840  Biso   1.000  H
  H218     1.0000 0.08030  0.94630  0.04160  Biso   1.000  H
  C119     1.0000 0.62260  0.08590  0.96220  Biso   1.000  C
  C120     1.0000 0.37740  0.91410  0.03780  Biso   1.000  C
  H219     1.0000 0.53230  0.10850  0.94650  Biso   1.000  H
  H220     1.0000 0.46770  0.89150  0.05350  Biso   1.000  H
  H221     1.0000 0.67740  0.11840  0.97500  Biso   1.000  H
  H222     1.0000 0.32260  0.88160  0.02500  Biso   1.000  H
  H223     1.0000 0.59730  0.04850  0.99080  Biso   1.000  H
  H224     1.0000 0.40270  0.95150  0.00920  Biso   1.000  H
  N9       1.0000 0.61070  0.51330  0.90300  Biso   1.000  N
  N10      1.0000 0.38930  0.48670  0.09700  Biso   1.000  N
  C121     1.0000 0.52510  0.57220  0.89830  Biso   1.000  C
  C122     1.0000 0.47490  0.42780  0.10170  Biso   1.000  C
  H225     1.0000 0.56450  0.61290  0.87950  Biso   1.000  H
  H226     1.0000 0.43550  0.38710  0.12050  Biso   1.000  H
  C123     1.0000 0.38120  0.57550  0.92010  Biso   1.000  C
  C124     1.0000 0.61880  0.42450  0.07990  Biso   1.000  C
  C125     1.0000 0.32490  0.51390  0.94800  Biso   1.000  C
  C126     1.0000 0.67510  0.48610  0.05200  Biso   1.000  C
  H227     1.0000 0.22860  0.51350  0.96310  Biso   1.000  H
  H228     1.0000 0.77140  0.48650  0.03690  Biso   1.000  H
  C127     1.0000 0.41260  0.45370  0.95320  Biso   1.000  C
  C128     1.0000 0.58740  0.54630  0.04680  Biso   1.000  C
  H229     1.0000 0.37690  0.41220  0.97210  Biso   1.000  H
  H230     1.0000 0.62310  0.58780  0.02790  Biso   1.000  H
  C129     1.0000 0.55430  0.45570  0.92990  Biso   1.000  C
  C130     1.0000 0.44570  0.54430  0.07010  Biso   1.000  C
  H231     1.0000 0.61270  0.41470  0.93330  Biso   1.000  H
  H232     1.0000 0.38730  0.58530  0.06670  Biso   1.000  H
  C131     1.0000 0.29150  0.64150  0.91490  Biso   1.000  C
  C132     1.0000 0.70850  0.35850  0.08510  Biso   1.000  C
  H233     1.0000 0.19850  0.63810  0.89810  Biso   1.000  H
  H234     1.0000 0.80150  0.36190  0.10190  Biso   1.000  H
  H235     1.0000 0.26620  0.64920  0.94960  Biso   1.000  H
  H236     1.0000 0.73380  0.35080  0.05040  Biso   1.000  H
  O19      1.0000 0.36220  0.69520  0.88740  Biso   1.000  O
  O20      1.0000 0.63780  0.30480  0.11260  Biso   1.000  O
  Si13     1.0000 0.35920  0.77782  0.87917  Biso   1.000  Si
  Si14     1.0000 0.64080  0.22218  0.12083  Biso   1.000  Si
  O21      1.0000 0.35780  0.80770  0.81700  Biso   1.000  O
  O22      1.0000 0.64220  0.19230  0.18300  Biso   1.000  O
  Si15     1.0000 0.38100  0.80697  0.75554  Biso   1.000  Si
  Si16     1.0000 0.61900  0.19303  0.24446  Biso   1.000  Si
  O23      1.0000 0.30200  0.74080  0.74220  Biso   1.000  O
  O24      1.0000 0.69800  0.25920  0.25780  Biso   1.000  O
  C133     1.0000 0.15420  0.72190  0.75420  Biso   1.000  C
  C134     1.0000 0.84580  0.27810  0.24580  Biso   1.000  C
  H237     1.0000 0.09470  0.73730  0.72320  Biso   1.000  H
  H238     1.0000 0.90530  0.26270  0.27680  Biso   1.000  H
  H239     1.0000 0.11180  0.74470  0.78100  Biso   1.000  H
  H240     1.0000 0.88820  0.25530  0.21900  Biso   1.000  H
  C135     1.0000 0.14610  0.64440  0.77340  Biso   1.000  C
  C136     1.0000 0.85390  0.35560  0.22660  Biso   1.000  C
  C137     1.0000 0.02340  0.61890  0.80330  Biso   1.000  C
  C138     1.0000 0.97660  0.38110  0.19670  Biso   1.000  C
  H241     1.0000 0.95030  0.65030  0.81180  Biso   1.000  H
  H242     1.0000 0.04970  0.34970  0.18820  Biso   1.000  H
  N11      1.0000 0.00290  0.55160  0.82080  Biso   1.000  N
  N12      1.0000 0.99710  0.44840  0.17920  Biso   1.000  N
  C139     1.0000 0.10770  0.50710  0.80750  Biso   1.000  C
  C140     1.0000 0.89230  0.49290  0.19250  Biso   1.000  C
  H243     1.0000 0.09310  0.46010  0.81760  Biso   1.000  H
  H244     1.0000 0.90690  0.53990  0.18240  Biso   1.000  H
  C141     1.0000 0.23640  0.52850  0.77930  Biso   1.000  C
  C142     1.0000 0.76360  0.47150  0.22070  Biso   1.000  C
  H245     1.0000 0.30940  0.49640  0.77170  Biso   1.000  H
  H246     1.0000 0.69060  0.50360  0.22830  Biso   1.000  H
  C143     1.0000 0.25550  0.59790  0.76250  Biso   1.000  C
  C144     1.0000 0.74450  0.40210  0.23750  Biso   1.000  C
  H247     1.0000 0.34240  0.61320  0.74380  Biso   1.000  H
  H248     1.0000 0.65760  0.38680  0.25620  Biso   1.000  H
  C145     1.0000 0.54580  0.79750  0.90410  Biso   1.000  C
  C146     1.0000 0.45420  0.20250  0.09590  Biso   1.000  C
  H249     1.0000 0.61870  0.77590  0.88280  Biso   1.000  H
  H250     1.0000 0.38130  0.22410  0.11720  Biso   1.000  H
  C147     1.0000 0.58430  0.76570  0.95360  Biso   1.000  C
  C148     1.0000 0.41570  0.23430  0.04640  Biso   1.000  C
  H251     1.0000 0.55760  0.71850  0.96070  Biso   1.000  H
  H252     1.0000 0.44240  0.28150  0.03930  Biso   1.000  H
  H253     1.0000 0.53200  0.78880  0.97820  Biso   1.000  H
  H254     1.0000 0.46800  0.21120  0.02180  Biso   1.000  H
  H255     1.0000 0.69050  0.76730  0.95690  Biso   1.000  H
  H256     1.0000 0.30950  0.23270  0.04310  Biso   1.000  H
  C149     1.0000 0.58130  0.87160  0.88800  Biso   1.000  C
  C150     1.0000 0.41870  0.12840  0.11200  Biso   1.000  C
  H257     1.0000 0.55060  0.89000  0.85270  Biso   1.000  H
  H258     1.0000 0.44940  0.11000  0.14730  Biso   1.000  H
  H259     1.0000 0.68740  0.87550  0.88990  Biso   1.000  H
  H260     1.0000 0.31260  0.12450  0.11010  Biso   1.000  H
  H261     1.0000 0.52890  0.89700  0.91110  Biso   1.000  H
  H262     1.0000 0.47110  0.10300  0.08890  Biso   1.000  H
  C151     1.0000 0.18740  0.81040  0.91100  Biso   1.000  C
  C152     1.0000 0.81260  0.18960  0.08900  Biso   1.000  C
  H263     1.0000 0.18940  0.78880  0.94860  Biso   1.000  H
  H264     1.0000 0.81060  0.21120  0.05140  Biso   1.000  H
  C153     1.0000 0.18610  0.88880  0.90540  Biso   1.000  C
  C154     1.0000 0.81390  0.11120  0.09460  Biso   1.000  C
  H265     1.0000 0.27710  0.90040  0.91880  Biso   1.000  H
  H266     1.0000 0.72290  0.09960  0.08120  Biso   1.000  H
  H267     1.0000 0.10150  0.90350  0.92490  Biso   1.000  H
  H268     1.0000 0.89850  0.09650  0.07510  Biso   1.000  H
  H269     1.0000 0.17900  0.91140  0.86910  Biso   1.000  H
  H270     1.0000 0.82100  0.08860  0.13090  Biso   1.000  H
  C155     1.0000 0.04820  0.79130  0.89060  Biso   1.000  C
  C156     1.0000 0.95180  0.20870  0.10940  Biso   1.000  C
  H271     1.0000 0.05040  0.74220  0.89430  Biso   1.000  H
  H272     1.0000 0.94960  0.25780  0.10570  Biso   1.000  H
  H273     1.0000 0.04060  0.81360  0.85420  Biso   1.000  H
  H274     1.0000 0.95940  0.18640  0.14580  Biso   1.000  H
  H275     1.0000 0.96310  0.80580  0.91000  Biso   1.000  H
  H276     1.0000 0.03690  0.19420  0.09000  Biso   1.000  H
  C157     1.0000 0.29650  0.89150  0.71650  Biso   1.000  C
  C158     1.0000 0.70350  0.10850  0.28350  Biso   1.000  C
  H277     1.0000 0.31270  0.89470  0.67880  Biso   1.000  H
  H278     1.0000 0.68730  0.10530  0.32120  Biso   1.000  H
  C159     1.0000 0.36490  0.95000  0.73280  Biso   1.000  C
  C160     1.0000 0.63510  0.05000  0.26720  Biso   1.000  C
  H279     1.0000 0.47140  0.94760  0.72610  Biso   1.000  H
  H280     1.0000 0.52860  0.05240  0.27390  Biso   1.000  H
  H281     1.0000 0.34480  0.94690  0.76960  Biso   1.000  H
  H282     1.0000 0.65520  0.05310  0.23040  Biso   1.000  H
  H283     1.0000 0.32230  0.99310  0.71320  Biso   1.000  H
  H284     1.0000 0.67770  0.00690  0.28680  Biso   1.000  H
  C161     1.0000 0.12950  0.90380  0.73000  Biso   1.000  C
  C162     1.0000 0.87050  0.09620  0.27000  Biso   1.000  C
  H285     1.0000 0.07350  0.86870  0.72100  Biso   1.000  H
  H286     1.0000 0.92650  0.13130  0.27900  Biso   1.000  H
  H287     1.0000 0.09410  0.94830  0.71050  Biso   1.000  H
  H288     1.0000 0.90590  0.05170  0.28950  Biso   1.000  H
  H289     1.0000 0.11660  0.90210  0.76690  Biso   1.000  H
  H290     1.0000 0.88340  0.09790  0.23310  Biso   1.000  H
  C163     1.0000 0.58180  0.79470  0.73810  Biso   1.000  C
  C164     1.0000 0.41820  0.20530  0.26190  Biso   1.000  C
  H291     1.0000 0.63600  0.83050  0.74870  Biso   1.000  H
  H292     1.0000 0.36400  0.16950  0.25130  Biso   1.000  H
  C165     1.0000 0.61470  0.79840  0.68310  Biso   1.000  C
  C166     1.0000 0.38530  0.20160  0.31690  Biso   1.000  C
  H293     1.0000 0.57410  0.84160  0.66290  Biso   1.000  H
  H294     1.0000 0.42590  0.15840  0.33710  Biso   1.000  H
  H295     1.0000 0.57040  0.76100  0.67270  Biso   1.000  H
  H296     1.0000 0.42960  0.23900  0.32730  Biso   1.000  H
  H297     1.0000 0.72140  0.79520  0.67710  Biso   1.000  H
  H298     1.0000 0.27860  0.20480  0.32290  Biso   1.000  H
  C167     1.0000 0.64780  0.72890  0.76290  Biso   1.000  C
  C168     1.0000 0.35220  0.27110  0.23710  Biso   1.000  C
  H299     1.0000 0.63150  0.72170  0.80020  Biso   1.000  H
  H300     1.0000 0.36850  0.27830  0.19980  Biso   1.000  H
  H301     1.0000 0.75370  0.72750  0.75480  Biso   1.000  H
  H302     1.0000 0.24630  0.27250  0.24520  Biso   1.000  H
  H303     1.0000 0.60270  0.69340  0.75050  Biso   1.000  H
  H304     1.0000 0.39730  0.30660  0.24950  Biso   1.000  H
