data_image0
_cell_length_a       9.1829
_cell_length_b       9.5695
_cell_length_c       21.3
_cell_angle_alpha    99.987
_cell_angle_beta     95.106
_cell_angle_gamma    111.587

_symmetry_space_group_name_H-M    "P 1"
_symmetry_int_tables_number       1

loop_
  _symmetry_equiv_pos_as_xyz
  'x, y, z'

loop_
  _atom_site_label
  _atom_site_occupancy
  _atom_site_fract_x
  _atom_site_fract_y
  _atom_site_fract_z
  _atom_site_thermal_displace_type
  _atom_site_B_iso_or_equiv
  _atom_site_type_symbol
  Cu1      1.0000 0.00000  0.00000  0.50000  Biso   1.000  Cu
  N1       1.0000 0.01370  0.88550  0.41340  Biso   1.000  N
  N2       1.0000 0.98630  0.11450  0.58660  Biso   1.000  N
  C1       1.0000 0.88350  0.81090  0.36880  Biso   1.000  C
  C2       1.0000 0.11650  0.18910  0.63120  Biso   1.000  C
  H1       1.0000 0.79040  0.82200  0.37750  Biso   1.000  H
  H2       1.0000 0.20960  0.17800  0.62250  Biso   1.000  H
  C3       1.0000 0.87830  0.71830  0.31070  Biso   1.000  C
  C4       1.0000 0.12170  0.28170  0.68930  Biso   1.000  C
  C5       1.0000 0.01870  0.70780  0.29790  Biso   1.000  C
  C6       1.0000 0.98130  0.29220  0.70210  Biso   1.000  C
  H3       1.0000 0.02200  0.65000  0.25860  Biso   1.000  H
  H4       1.0000 0.97800  0.35000  0.74140  Biso   1.000  H
  C7       1.0000 0.15370  0.78310  0.34340  Biso   1.000  C
  C8       1.0000 0.84630  0.21690  0.65660  Biso   1.000  C
  H5       1.0000 0.24860  0.77530  0.33530  Biso   1.000  H
  H6       1.0000 0.75140  0.22470  0.66470  Biso   1.000  H
  C9       1.0000 0.14820  0.87000  0.40090  Biso   1.000  C
  C10      1.0000 0.85180  0.13000  0.59910  Biso   1.000  C
  H7       1.0000 0.23970  0.91920  0.43190  Biso   1.000  H
  H8       1.0000 0.76030  0.08080  0.56810  Biso   1.000  H
  C11      1.0000 0.72420  0.63220  0.26310  Biso   1.000  C
  C12      1.0000 0.27580  0.36780  0.73690  Biso   1.000  C
  H9       1.0000 0.72190  0.53280  0.24200  Biso   1.000  H
  H10      1.0000 0.27810  0.46720  0.75800  Biso   1.000  H
  H11      1.0000 0.63570  0.61360  0.28660  Biso   1.000  H
  H12      1.0000 0.36430  0.38640  0.71340  Biso   1.000  H
  C13      1.0000 0.70350  0.71760  0.21260  Biso   1.000  C
  C14      1.0000 0.29650  0.28240  0.78740  Biso   1.000  C
  H13      1.0000 0.79850  0.74910  0.19300  Biso   1.000  H
  H14      1.0000 0.20150  0.25090  0.80700  Biso   1.000  H
  H15      1.0000 0.68970  0.80980  0.23280  Biso   1.000  H
  H16      1.0000 0.31030  0.19020  0.76720  Biso   1.000  H
  C15      1.0000 0.56020  0.61830  0.16010  Biso   1.000  C
  C16      1.0000 0.43980  0.38170  0.83990  Biso   1.000  C
  H17      1.0000 0.46640  0.57850  0.17980  Biso   1.000  H
  H18      1.0000 0.53360  0.42150  0.82020  Biso   1.000  H
  H19      1.0000 0.54130  0.68030  0.13130  Biso   1.000  H
  H20      1.0000 0.45870  0.31970  0.86870  Biso   1.000  H
  O1       1.0000 0.58870  0.49640  0.12510  Biso   1.000  O
  O2       1.0000 0.41130  0.50360  0.87490  Biso   1.000  O
  Si1      1.0000 0.47290  0.31530  0.09761  Biso   1.000  Si
  Si2      1.0000 0.52710  0.68470  0.90239  Biso   1.000  Si
  O3       1.0000 0.37620  0.24570  0.15250  Biso   1.000  O
  O4       1.0000 0.62380  0.75430  0.84750  Biso   1.000  O
  Si3      1.0000 0.30550  0.18040  0.21257  Biso   1.000  Si
  Si4      1.0000 0.69450  0.81960  0.78743  Biso   1.000  Si
  O5       1.0000 0.44590  0.27180  0.27480  Biso   1.000  O
  O6       1.0000 0.55410  0.72820  0.72520  Biso   1.000  O
  C17      1.0000 0.44060  0.29110  0.34120  Biso   1.000  C
  C18      1.0000 0.55940  0.70890  0.65880  Biso   1.000  C
  H21      1.0000 0.37190  0.19380  0.34950  Biso   1.000  H
  H22      1.0000 0.62810  0.80620  0.65050  Biso   1.000  H
  H23      1.0000 0.39380  0.36550  0.35350  Biso   1.000  H
  H24      1.0000 0.60620  0.63450  0.64650  Biso   1.000  H
  C19      1.0000 0.60030  0.34450  0.38260  Biso   1.000  C
  C20      1.0000 0.39970  0.65550  0.61740  Biso   1.000  C
  H25      1.0000 0.65770  0.45310  0.38420  Biso   1.000  H
  H26      1.0000 0.34230  0.54690  0.61580  Biso   1.000  H
  H27      1.0000 0.58490  0.33400  0.42630  Biso   1.000  H
  H28      1.0000 0.41510  0.66600  0.57370  Biso   1.000  H
  C21      1.0000 0.42360  0.22860  0.33480  Biso   1.000  C
  C22      1.0000 0.57640  0.77140  0.66520  Biso   1.000  C
  H29      1.0000 0.32620  0.13680  0.32560  Biso   1.000  H
  H30      1.0000 0.67380  0.86320  0.67440  Biso   1.000  H
  H31      1.0000 0.40110  0.30900  0.36120  Biso   1.000  H
  H32      1.0000 0.59890  0.69100  0.63880  Biso   1.000  H
  C23      1.0000 0.53960  0.19600  0.37800  Biso   1.000  C
  C24      1.0000 0.46040  0.80400  0.62200  Biso   1.000  C
  H33      1.0000 0.54240  0.24120  0.42270  Biso   1.000  H
  H34      1.0000 0.45760  0.75880  0.57730  Biso   1.000  H
  H35      1.0000 0.50690  0.08560  0.37320  Biso   1.000  H
  H36      1.0000 0.49310  0.91440  0.62680  Biso   1.000  H
  C25      1.0000 0.69740  0.26140  0.36050  Biso   1.000  C
  C26      1.0000 0.30260  0.73860  0.63950  Biso   1.000  C
  H37      1.0000 0.72580  0.28540  0.31970  Biso   1.000  H
  H38      1.0000 0.27420  0.71460  0.68030  Biso   1.000  H
  H39      1.0000 0.63270  0.15190  0.35200  Biso   1.000  H
  H40      1.0000 0.36730  0.84810  0.64800  Biso   1.000  H
  H41      1.0000 0.68760  0.17680  0.32650  Biso   1.000  H
  H42      1.0000 0.31240  0.82320  0.67350  Biso   1.000  H
  H43      1.0000 0.71770  0.34890  0.34130  Biso   1.000  H
  H44      1.0000 0.28230  0.65110  0.65870  Biso   1.000  H
  C27      1.0000 0.84930  0.29290  0.40570  Biso   1.000  C
  C28      1.0000 0.15070  0.70710  0.59430  Biso   1.000  C
  C29      1.0000 0.86010  0.17600  0.43260  Biso   1.000  C
  C30      1.0000 0.13990  0.82400  0.56740  Biso   1.000  C
  H45      1.0000 0.76740  0.09030  0.43030  Biso   1.000  H
  H46      1.0000 0.23260  0.90970  0.56970  Biso   1.000  H
  N3       1.0000 0.99580  0.17790  0.46170  Biso   1.000  N
  N4       1.0000 0.00420  0.82210  0.53830  Biso   1.000  N
  C31      1.0000 0.12770  0.30220  0.46500  Biso   1.000  C
  C32      1.0000 0.87230  0.69780  0.53500  Biso   1.000  C
  H47      1.0000 0.22420  0.30590  0.48450  Biso   1.000  H
  H48      1.0000 0.77580  0.69410  0.51550  Biso   1.000  H
  C33      1.0000 0.12460  0.42450  0.44030  Biso   1.000  C
  C34      1.0000 0.87540  0.57550  0.55970  Biso   1.000  C
  H49      1.0000 0.21780  0.51030  0.44320  Biso   1.000  H
  H50      1.0000 0.78220  0.48970  0.55680  Biso   1.000  H
  C35      1.0000 0.98380  0.41890  0.41150  Biso   1.000  C
  C36      1.0000 0.01620  0.58110  0.58850  Biso   1.000  C
  H51      1.0000 0.98010  0.50240  0.39560  Biso   1.000  H
  H52      1.0000 0.01990  0.49760  0.60440  Biso   1.000  H
  C37      1.0000 0.61120  0.22020  0.07610  Biso   1.000  C
  C38      1.0000 0.38880  0.77980  0.92390  Biso   1.000  C
  H53      1.0000 0.54760  0.10930  0.06160  Biso   1.000  H
  H54      1.0000 0.45240  0.89070  0.93840  Biso   1.000  H
  C39      1.0000 0.73250  0.24250  0.13460  Biso   1.000  C
  C40      1.0000 0.26750  0.75750  0.86540  Biso   1.000  C
  H55      1.0000 0.67820  0.20890  0.16910  Biso   1.000  H
  H56      1.0000 0.32180  0.79110  0.83090  Biso   1.000  H
  H57      1.0000 0.80120  0.34960  0.14840  Biso   1.000  H
  H58      1.0000 0.19880  0.65040  0.85160  Biso   1.000  H
  H59      1.0000 0.79440  0.18300  0.12310  Biso   1.000  H
  H60      1.0000 0.20560  0.81700  0.87690  Biso   1.000  H
  C41      1.0000 0.69480  0.27240  0.02160  Biso   1.000  C
  C42      1.0000 0.30520  0.72760  0.97840  Biso   1.000  C
  H61      1.0000 0.61770  0.25800  0.98500  Biso   1.000  H
  H62      1.0000 0.38230  0.74200  0.01500  Biso   1.000  H
  H63      1.0000 0.75670  0.21300  0.00990  Biso   1.000  H
  H64      1.0000 0.24330  0.78700  0.99010  Biso   1.000  H
  H65      1.0000 0.76350  0.37960  0.03520  Biso   1.000  H
  H66      1.0000 0.23650  0.62040  0.96480  Biso   1.000  H
  C43      1.0000 0.32550  0.29410  0.02630  Biso   1.000  C
  C44      1.0000 0.67450  0.70590  0.97370  Biso   1.000  C
  H67      1.0000 0.38420  0.36060  0.99920  Biso   1.000  H
  H68      1.0000 0.61580  0.63940  0.00080  Biso   1.000  H
  C45      1.0000 0.19780  0.35140  0.04580  Biso   1.000  C
  C46      1.0000 0.80220  0.64860  0.95420  Biso   1.000  C
  H69      1.0000 0.24730  0.45440  0.07180  Biso   1.000  H
  H70      1.0000 0.75270  0.54560  0.92820  Biso   1.000  H
  H71      1.0000 0.13260  0.28500  0.07020  Biso   1.000  H
  H72      1.0000 0.86740  0.71500  0.92980  Biso   1.000  H
  H73      1.0000 0.13320  0.35070  0.00770  Biso   1.000  H
  H74      1.0000 0.86680  0.64930  0.99230  Biso   1.000  H
  C47      1.0000 0.25300  0.13040  0.98490  Biso   1.000  C
  C48      1.0000 0.74700  0.86960  0.01510  Biso   1.000  C
  H75      1.0000 0.33630  0.09800  0.97350  Biso   1.000  H
  H76      1.0000 0.66370  0.90200  0.02650  Biso   1.000  H
  H77      1.0000 0.18880  0.12800  0.94620  Biso   1.000  H
  H78      1.0000 0.81120  0.87200  0.05380  Biso   1.000  H
  H79      1.0000 0.18830  0.06220  0.00870  Biso   1.000  H
  H80      1.0000 0.81170  0.93780  0.99130  Biso   1.000  H
  C49      1.0000 0.12580  0.22110  0.22260  Biso   1.000  C
  C50      1.0000 0.87420  0.77890  0.77740  Biso   1.000  C
  H81      1.0000 0.05770  0.18220  0.18010  Biso   1.000  H
  H82      1.0000 0.94230  0.81780  0.81990  Biso   1.000  H
  C51      1.0000 0.16020  0.39170  0.24130  Biso   1.000  C
  C52      1.0000 0.83980  0.60830  0.75870  Biso   1.000  C
  H83      1.0000 0.22220  0.44370  0.21210  Biso   1.000  H
  H84      1.0000 0.77780  0.55630  0.78790  Biso   1.000  H
  H85      1.0000 0.21830  0.43320  0.28460  Biso   1.000  H
  H86      1.0000 0.78170  0.56680  0.71540  Biso   1.000  H
  H87      1.0000 0.06200  0.40620  0.23910  Biso   1.000  H
  H88      1.0000 0.93800  0.59380  0.76090  Biso   1.000  H
  C53      1.0000 0.02750  0.13840  0.26890  Biso   1.000  C
  C54      1.0000 0.97250  0.86160  0.73110  Biso   1.000  C
  H89      1.0000 0.00580  0.03040  0.25700  Biso   1.000  H
  H90      1.0000 0.99420  0.96960  0.74300  Biso   1.000  H
  H91      1.0000 0.92930  0.15290  0.26670  Biso   1.000  H
  H92      1.0000 0.07070  0.84710  0.73330  Biso   1.000  H
  H93      1.0000 0.08550  0.17990  0.31220  Biso   1.000  H
  H94      1.0000 0.91450  0.82010  0.68780  Biso   1.000  H
  C55      1.0000 0.25350  0.96800  0.19760  Biso   1.000  C
  C56      1.0000 0.74650  0.03200  0.80240  Biso   1.000  C
  H95      1.0000 0.20560  0.93380  0.23440  Biso   1.000  H
  H96      1.0000 0.79440  0.06620  0.76560  Biso   1.000  H
  C57      1.0000 0.12820  0.87940  0.13750  Biso   1.000  C
  C58      1.0000 0.87180  0.12060  0.86250  Biso   1.000  C
  H97      1.0000 0.03920  0.90890  0.13960  Biso   1.000  H
  H98      1.0000 0.96080  0.09110  0.86040  Biso   1.000  H
  H99      1.0000 0.09360  0.77080  0.13530  Biso   1.000  H
  H100     1.0000 0.90640  0.22920  0.86470  Biso   1.000  H
  H101     1.0000 0.17290  0.90270  0.09960  Biso   1.000  H
  H102     1.0000 0.82710  0.09730  0.90040  Biso   1.000  H
  C59      1.0000 0.39650  0.92340  0.19550  Biso   1.000  C
  C60      1.0000 0.60350  0.07660  0.80450  Biso   1.000  C
  H103     1.0000 0.47400  0.98030  0.23360  Biso   1.000  H
  H104     1.0000 0.52600  0.01970  0.76640  Biso   1.000  H
  H105     1.0000 0.44240  0.94690  0.15790  Biso   1.000  H
  H106     1.0000 0.55760  0.05310  0.84210  Biso   1.000  H
  H107     1.0000 0.36310  0.81500  0.19360  Biso   1.000  H
  H108     1.0000 0.63690  0.18500  0.80640  Biso   1.000  H
  N5       1.0000 0.44780  0.19670  0.55760  Biso   1.000  N
  N6       1.0000 0.55220  0.80330  0.44240  Biso   1.000  N
  O7       1.0000 0.31890  0.13350  0.52140  Biso   1.000  O
  O8       1.0000 0.68110  0.86650  0.47860  Biso   1.000  O
  O9       1.0000 0.47950  0.23430  0.61490  Biso   1.000  O
  O10      1.0000 0.52050  0.76570  0.38510  Biso   1.000  O
  O11      1.0000 0.57550  0.22070  0.53070  Biso   1.000  O
  O12      1.0000 0.42450  0.77930  0.46930  Biso   1.000  O
  O13      1.0000 0.47040  0.14680  0.60630  Biso   1.000  O
  O14      1.0000 0.52960  0.85320  0.39370  Biso   1.000  O
  O15      1.0000 0.53410  0.31190  0.54360  Biso   1.000  O
  O16      1.0000 0.46590  0.68810  0.45640  Biso   1.000  O
