data_image0
_cell_length_a       11.429
_cell_length_b       6.8709
_cell_length_c       19.916
_cell_angle_alpha    90
_cell_angle_beta     90
_cell_angle_gamma    90

_symmetry_space_group_name_H-M    "P 1"
_symmetry_int_tables_number       1

loop_
  _symmetry_equiv_pos_as_xyz
  'x, y, z'

loop_
  _atom_site_label
  _atom_site_occupancy
  _atom_site_fract_x
  _atom_site_fract_y
  _atom_site_fract_z
  _atom_site_thermal_displace_type
  _atom_site_B_iso_or_equiv
  _atom_site_type_symbol
  O1       1.0000 0.80150  0.61320  0.98830  Biso   1.000  O
  O2       1.0000 0.69850  0.38680  0.48830  Biso   1.000  O
  O3       1.0000 0.19850  0.11320  0.51170  Biso   1.000  O
  O4       1.0000 0.30150  0.88680  0.01170  Biso   1.000  O
  O5       1.0000 0.19850  0.38680  0.01170  Biso   1.000  O
  O6       1.0000 0.30150  0.61320  0.51170  Biso   1.000  O
  O7       1.0000 0.80150  0.88680  0.48830  Biso   1.000  O
  O8       1.0000 0.69850  0.11320  0.98830  Biso   1.000  O
  O9       1.0000 0.91950  0.46990  0.06250  Biso   1.000  O
  O10      1.0000 0.58050  0.53010  0.56250  Biso   1.000  O
  O11      1.0000 0.08050  0.96990  0.43750  Biso   1.000  O
  O12      1.0000 0.41950  0.03010  0.93750  Biso   1.000  O
  O13      1.0000 0.08050  0.53010  0.93750  Biso   1.000  O
  O14      1.0000 0.41950  0.46990  0.43750  Biso   1.000  O
  O15      1.0000 0.91950  0.03010  0.56250  Biso   1.000  O
  O16      1.0000 0.58050  0.96990  0.06250  Biso   1.000  O
  C1       1.0000 0.82520  0.53310  0.04450  Biso   1.000  C
  C2       1.0000 0.67480  0.46690  0.54450  Biso   1.000  C
  C3       1.0000 0.17480  0.03310  0.45550  Biso   1.000  C
  C4       1.0000 0.32520  0.96690  0.95550  Biso   1.000  C
  C5       1.0000 0.17480  0.46690  0.95550  Biso   1.000  C
  C6       1.0000 0.32520  0.53310  0.45550  Biso   1.000  C
  C7       1.0000 0.82520  0.96690  0.54450  Biso   1.000  C
  C8       1.0000 0.67480  0.03310  0.04450  Biso   1.000  C
  O17      1.0000 0.56850  0.43160  0.31150  Biso   1.000  O
  O18      1.0000 0.93150  0.56840  0.81150  Biso   1.000  O
  O19      1.0000 0.43150  0.93160  0.18850  Biso   1.000  O
  O20      1.0000 0.06850  0.06840  0.68850  Biso   1.000  O
  O21      1.0000 0.43150  0.56840  0.68850  Biso   1.000  O
  O22      1.0000 0.06850  0.43160  0.18850  Biso   1.000  O
  O23      1.0000 0.56850  0.06840  0.81150  Biso   1.000  O
  O24      1.0000 0.93150  0.93160  0.31150  Biso   1.000  O
  C9       1.0000 0.65810  0.41000  0.27430  Biso   1.000  C
  C10      1.0000 0.84190  0.59000  0.77430  Biso   1.000  C
  C11      1.0000 0.34190  0.91000  0.22570  Biso   1.000  C
  C12      1.0000 0.15810  0.09000  0.72570  Biso   1.000  C
  C13      1.0000 0.34190  0.59000  0.72570  Biso   1.000  C
  C14      1.0000 0.15810  0.41000  0.22570  Biso   1.000  C
  C15      1.0000 0.65810  0.09000  0.77430  Biso   1.000  C
  C16      1.0000 0.84190  0.91000  0.27430  Biso   1.000  C
  C17      1.0000 0.64370  0.46500  0.20200  Biso   1.000  C
  C18      1.0000 0.85630  0.53500  0.70200  Biso   1.000  C
  C19      1.0000 0.35630  0.96500  0.29800  Biso   1.000  C
  C20      1.0000 0.14370  0.03500  0.79800  Biso   1.000  C
  C21      1.0000 0.35630  0.53500  0.79800  Biso   1.000  C
  C22      1.0000 0.14370  0.46500  0.29800  Biso   1.000  C
  C23      1.0000 0.64370  0.03500  0.70200  Biso   1.000  C
  C24      1.0000 0.85630  0.96500  0.20200  Biso   1.000  C
  Cu1      1.0000 0.89694  0.58745  0.90720  Biso   1.000  Cu
  Cu2      1.0000 0.60306  0.41255  0.40720  Biso   1.000  Cu
  Cu3      1.0000 0.10306  0.08745  0.59280  Biso   1.000  Cu
  Cu4      1.0000 0.39694  0.91255  0.09280  Biso   1.000  Cu
  Cu5      1.0000 0.10306  0.41255  0.09280  Biso   1.000  Cu
  Cu6      1.0000 0.39694  0.58745  0.59280  Biso   1.000  Cu
  Cu7      1.0000 0.89694  0.91255  0.40720  Biso   1.000  Cu
  Cu8      1.0000 0.60306  0.08745  0.90720  Biso   1.000  Cu
  O25      1.0000 0.41780  0.62980  0.09010  Biso   1.000  O
  O26      1.0000 0.08220  0.37020  0.59010  Biso   1.000  O
  O27      1.0000 0.58220  0.12980  0.40990  Biso   1.000  O
  O28      1.0000 0.91780  0.87020  0.90990  Biso   1.000  O
  O29      1.0000 0.58220  0.37020  0.90990  Biso   1.000  O
  O30      1.0000 0.91780  0.62980  0.40990  Biso   1.000  O
  O31      1.0000 0.41780  0.87020  0.59010  Biso   1.000  O
  O32      1.0000 0.08220  0.12980  0.09010  Biso   1.000  O
  O33      1.0000 0.85700  0.30900  0.90370  Biso   1.000  O
  O34      1.0000 0.64300  0.69100  0.40370  Biso   1.000  O
  O35      1.0000 0.14300  0.80900  0.59630  Biso   1.000  O
  O36      1.0000 0.35700  0.19100  0.09630  Biso   1.000  O
  O37      1.0000 0.14300  0.69100  0.09630  Biso   1.000  O
  O38      1.0000 0.35700  0.30900  0.59630  Biso   1.000  O
  O39      1.0000 0.85700  0.19100  0.40370  Biso   1.000  O
  O40      1.0000 0.64300  0.80900  0.90370  Biso   1.000  O
  H1       1.0000 0.92770  0.23380  0.90100  Biso   1.000  H
  H2       1.0000 0.57230  0.76620  0.40100  Biso   1.000  H
  H3       1.0000 0.07230  0.73380  0.59900  Biso   1.000  H
  H4       1.0000 0.42770  0.26620  0.09900  Biso   1.000  H
  H5       1.0000 0.07230  0.76620  0.09900  Biso   1.000  H
  H6       1.0000 0.42770  0.23380  0.59900  Biso   1.000  H
  H7       1.0000 0.92770  0.26620  0.40100  Biso   1.000  H
  H8       1.0000 0.57230  0.73380  0.90100  Biso   1.000  H
  H9       1.0000 0.81480  0.27400  0.94360  Biso   1.000  H
  H10      1.0000 0.68520  0.72600  0.44360  Biso   1.000  H
  H11      1.0000 0.18520  0.77400  0.55640  Biso   1.000  H
  H12      1.0000 0.31480  0.22600  0.05640  Biso   1.000  H
  H13      1.0000 0.18520  0.72600  0.05640  Biso   1.000  H
  H14      1.0000 0.31480  0.27400  0.55640  Biso   1.000  H
  H15      1.0000 0.81480  0.22600  0.44360  Biso   1.000  H
  H16      1.0000 0.68520  0.77400  0.94360  Biso   1.000  H
  N1       1.0000 0.52140  0.56970  0.11300  Biso   1.000  N
  N2       1.0000 0.97860  0.43030  0.61300  Biso   1.000  N
  N3       1.0000 0.47860  0.06970  0.38700  Biso   1.000  N
  N4       1.0000 0.02140  0.93030  0.88700  Biso   1.000  N
  N5       1.0000 0.47860  0.43030  0.88700  Biso   1.000  N
  N6       1.0000 0.02140  0.56970  0.38700  Biso   1.000  N
  N7       1.0000 0.52140  0.93030  0.61300  Biso   1.000  N
  N8       1.0000 0.97860  0.06970  0.11300  Biso   1.000  N
  C25      1.0000 0.61210  0.56560  0.07090  Biso   1.000  C
  C26      1.0000 0.88790  0.43440  0.57090  Biso   1.000  C
  C27      1.0000 0.38790  0.06560  0.42910  Biso   1.000  C
  C28      1.0000 0.11210  0.93440  0.92910  Biso   1.000  C
  C29      1.0000 0.38790  0.43440  0.92910  Biso   1.000  C
  C30      1.0000 0.11210  0.56560  0.42910  Biso   1.000  C
  C31      1.0000 0.61210  0.93440  0.57090  Biso   1.000  C
  C32      1.0000 0.88790  0.06560  0.07090  Biso   1.000  C
  H17      1.0000 0.60010  0.59350  0.02570  Biso   1.000  H
  H18      1.0000 0.89990  0.40650  0.52570  Biso   1.000  H
  H19      1.0000 0.39990  0.09350  0.47430  Biso   1.000  H
  H20      1.0000 0.10010  0.90650  0.97430  Biso   1.000  H
  H21      1.0000 0.39990  0.40650  0.97430  Biso   1.000  H
  H22      1.0000 0.10010  0.59350  0.47430  Biso   1.000  H
  H23      1.0000 0.60010  0.90650  0.52570  Biso   1.000  H
  H24      1.0000 0.89990  0.09350  0.02570  Biso   1.000  H
  O41      1.0000 0.75740  0.35650  0.29340  Biso   1.000  O
  O42      1.0000 0.74260  0.64350  0.79340  Biso   1.000  O
  O43      1.0000 0.24260  0.85650  0.20660  Biso   1.000  O
  O44      1.0000 0.25740  0.14350  0.70660  Biso   1.000  O
  O45      1.0000 0.24260  0.64350  0.70660  Biso   1.000  O
  O46      1.0000 0.25740  0.35650  0.20660  Biso   1.000  O
  O47      1.0000 0.75740  0.14350  0.79340  Biso   1.000  O
  O48      1.0000 0.74260  0.85650  0.29340  Biso   1.000  O
  H25      1.0000 0.75460  0.32960  0.33500  Biso   1.000  H
  H26      1.0000 0.74540  0.67040  0.83500  Biso   1.000  H
  H27      1.0000 0.24540  0.82960  0.16500  Biso   1.000  H
  H28      1.0000 0.25460  0.17040  0.66500  Biso   1.000  H
  H29      1.0000 0.24540  0.67040  0.66500  Biso   1.000  H
  H30      1.0000 0.25460  0.32960  0.16500  Biso   1.000  H
  H31      1.0000 0.75460  0.17040  0.83500  Biso   1.000  H
  H32      1.0000 0.74540  0.82960  0.33500  Biso   1.000  H
  C33      1.0000 0.73810  0.46910  0.15920  Biso   1.000  C
  C34      1.0000 0.76190  0.53090  0.65920  Biso   1.000  C
  C35      1.0000 0.26190  0.96910  0.34080  Biso   1.000  C
  C36      1.0000 0.23810  0.03090  0.84080  Biso   1.000  C
  C37      1.0000 0.26190  0.53090  0.84080  Biso   1.000  C
  C38      1.0000 0.23810  0.46910  0.34080  Biso   1.000  C
  C39      1.0000 0.73810  0.03090  0.65920  Biso   1.000  C
  C40      1.0000 0.76190  0.96910  0.15920  Biso   1.000  C
  H33      1.0000 0.81200  0.43540  0.17500  Biso   1.000  H
  H34      1.0000 0.68800  0.56460  0.67500  Biso   1.000  H
  H35      1.0000 0.18800  0.93540  0.32500  Biso   1.000  H
  H36      1.0000 0.31200  0.06460  0.82500  Biso   1.000  H
  H37      1.0000 0.18800  0.56460  0.82500  Biso   1.000  H
  H38      1.0000 0.31200  0.43540  0.32500  Biso   1.000  H
  H39      1.0000 0.81200  0.06460  0.67500  Biso   1.000  H
  H40      1.0000 0.68800  0.93540  0.17500  Biso   1.000  H
  C41      1.0000 0.72330  0.52170  0.09280  Biso   1.000  C
  C42      1.0000 0.77670  0.47830  0.59280  Biso   1.000  C
  C43      1.0000 0.27670  0.02170  0.40720  Biso   1.000  C
  C44      1.0000 0.22330  0.97830  0.90720  Biso   1.000  C
  C45      1.0000 0.27670  0.47830  0.90720  Biso   1.000  C
  C46      1.0000 0.22330  0.52170  0.40720  Biso   1.000  C
  C47      1.0000 0.72330  0.97830  0.59280  Biso   1.000  C
  C48      1.0000 0.77670  0.02170  0.09280  Biso   1.000  C
  C49      1.0000 0.53510  0.51560  0.17800  Biso   1.000  C
  C50      1.0000 0.96490  0.48440  0.67800  Biso   1.000  C
  C51      1.0000 0.46490  0.01560  0.32200  Biso   1.000  C
  C52      1.0000 0.03510  0.98440  0.82200  Biso   1.000  C
  C53      1.0000 0.46490  0.48440  0.82200  Biso   1.000  C
  C54      1.0000 0.03510  0.51560  0.32200  Biso   1.000  C
  C55      1.0000 0.53510  0.98440  0.67800  Biso   1.000  C
  C56      1.0000 0.96490  0.01560  0.17800  Biso   1.000  C
  H41      1.0000 0.47070  0.51300  0.20650  Biso   1.000  H
  H42      1.0000 0.02930  0.48700  0.70650  Biso   1.000  H
  H43      1.0000 0.52930  0.01300  0.29350  Biso   1.000  H
  H44      1.0000 0.97070  0.98700  0.79350  Biso   1.000  H
  H45      1.0000 0.52930  0.48700  0.79350  Biso   1.000  H
  H46      1.0000 0.97070  0.51300  0.29350  Biso   1.000  H
  H47      1.0000 0.47070  0.98700  0.70650  Biso   1.000  H
  H48      1.0000 0.02930  0.01300  0.20650  Biso   1.000  H
