data_image0
_cell_length_a       7.537
_cell_length_b       8.782
_cell_length_c       10.623
_cell_angle_alpha    66.624
_cell_angle_beta     71.966
_cell_angle_gamma    83.973

_symmetry_space_group_name_H-M    "P 1"
_symmetry_int_tables_number       1

loop_
  _symmetry_equiv_pos_as_xyz
  'x, y, z'

loop_
  _atom_site_label
  _atom_site_occupancy
  _atom_site_fract_x
  _atom_site_fract_y
  _atom_site_fract_z
  _atom_site_thermal_displace_type
  _atom_site_B_iso_or_equiv
  _atom_site_type_symbol
  Cu1      1.0000 0.22127  0.45090  0.42210  Biso   1.000  Cu
  Cu2      1.0000 0.77873  0.54910  0.57790  Biso   1.000  Cu
  Cl1      1.0000 0.02231  0.63303  0.31739  Biso   1.000  Cl
  Cl2      1.0000 0.97769  0.36697  0.68261  Biso   1.000  Cl
  O1       1.0000 0.43520  0.32395  0.48739  Biso   1.000  O
  O2       1.0000 0.56480  0.67605  0.51261  Biso   1.000  O
  O3       1.0000 0.67090  0.36635  0.55600  Biso   1.000  O
  O4       1.0000 0.32910  0.63365  0.44400  Biso   1.000  O
  N1       1.0000 0.17480  0.27160  0.37050  Biso   1.000  N
  N2       1.0000 0.82520  0.72840  0.62950  Biso   1.000  N
  N3       1.0000 0.05820  0.12600  0.28700  Biso   1.000  N
  N4       1.0000 0.94180  0.87400  0.71300  Biso   1.000  N
  C1       1.0000 0.25860  0.11900  0.39830  Biso   1.000  C
  C2       1.0000 0.74140  0.88100  0.60170  Biso   1.000  C
  H1       1.0000 0.35030  0.08370  0.44490  Biso   1.000  H
  H2       1.0000 0.64970  0.91630  0.55510  Biso   1.000  H
  C3       1.0000 0.18710  0.02950  0.34770  Biso   1.000  C
  C4       1.0000 0.81290  0.97050  0.65230  Biso   1.000  C
  H3       1.0000 0.21920  0.92240  0.35300  Biso   1.000  H
  H4       1.0000 0.78080  0.07760  0.64700  Biso   1.000  H
  C5       1.0000 0.94760  0.07750  0.21590  Biso   1.000  C
  C6       1.0000 0.05240  0.92250  0.78410  Biso   1.000  C
  H5       1.0000 0.87960  0.97520  0.28300  Biso   1.000  H
  H6       1.0000 0.12040  0.02480  0.71700  Biso   1.000  H
  H7       1.0000 0.03220  0.05540  0.13550  Biso   1.000  H
  H8       1.0000 0.96780  0.94460  0.86450  Biso   1.000  H
  C7       1.0000 0.81140  0.20520  0.16220  Biso   1.000  C
  C8       1.0000 0.18860  0.79480  0.83780  Biso   1.000  C
  H9       1.0000 0.87800  0.30840  0.09560  Biso   1.000  H
  H10      1.0000 0.12200  0.69160  0.90440  Biso   1.000  H
  H11      1.0000 0.72390  0.22590  0.24230  Biso   1.000  H
  H12      1.0000 0.27610  0.77410  0.75770  Biso   1.000  H
  C9       1.0000 0.70370  0.14870  0.08710  Biso   1.000  C
  C10      1.0000 0.29630  0.85130  0.91290  Biso   1.000  C
  H13      1.0000 0.79200  0.12090  0.01130  Biso   1.000  H
  H14      1.0000 0.20800  0.87910  0.98870  Biso   1.000  H
  H15      1.0000 0.63160  0.04900  0.15570  Biso   1.000  H
  H16      1.0000 0.36840  0.95100  0.84430  Biso   1.000  H
  C11      1.0000 0.57440  0.27820  0.02390  Biso   1.000  C
  C12      1.0000 0.42560  0.72180  0.97610  Biso   1.000  C
  H17      1.0000 0.64680  0.37790  0.95590  Biso   1.000  H
  H18      1.0000 0.35320  0.62210  0.04410  Biso   1.000  H
  H19      1.0000 0.48620  0.30560  0.09990  Biso   1.000  H
  H20      1.0000 0.51380  0.69440  0.90010  Biso   1.000  H
  C13      1.0000 0.46660  0.22480  0.94820  Biso   1.000  C
  C14      1.0000 0.53340  0.77520  0.05180  Biso   1.000  C
  H21      1.0000 0.55460  0.19940  0.87090  Biso   1.000  H
  H22      1.0000 0.44540  0.80060  0.12910  Biso   1.000  H
  H23      1.0000 0.39580  0.12400  0.01560  Biso   1.000  H
  H24      1.0000 0.60420  0.87600  0.98440  Biso   1.000  H
  C15      1.0000 0.05460  0.27000  0.30330  Biso   1.000  C
  C16      1.0000 0.94540  0.73000  0.69670  Biso   1.000  C
  H25      1.0000 0.97750  0.35750  0.27140  Biso   1.000  H
  H26      1.0000 0.02250  0.64250  0.72860  Biso   1.000  H
  C17      1.0000 0.33400  0.35520  0.88700  Biso   1.000  C
  C18      1.0000 0.66600  0.64480  0.11300  Biso   1.000  C
  H27      1.0000 0.24210  0.37670  0.96350  Biso   1.000  H
  H28      1.0000 0.75790  0.62330  0.03650  Biso   1.000  H
  H29      1.0000 0.27310  0.31570  0.83840  Biso   1.000  H
  H30      1.0000 0.72690  0.68430  0.16160  Biso   1.000  H
  H31      1.0000 0.40290  0.45570  0.82050  Biso   1.000  H
  H32      1.0000 0.59710  0.54430  0.17950  Biso   1.000  H
  C19      1.0000 0.53090  0.41060  0.51260  Biso   1.000  C
  C20      1.0000 0.46910  0.58940  0.48740  Biso   1.000  C
