data_image0
_cell_length_a       23.936
_cell_length_b       8.079
_cell_length_c       17.441
_cell_angle_alpha    90
_cell_angle_beta     112.98
_cell_angle_gamma    90

_symmetry_space_group_name_H-M    "P 1"
_symmetry_int_tables_number       1

loop_
  _symmetry_equiv_pos_as_xyz
  'x, y, z'

loop_
  _atom_site_label
  _atom_site_occupancy
  _atom_site_fract_x
  _atom_site_fract_y
  _atom_site_fract_z
  _atom_site_thermal_displace_type
  _atom_site_B_iso_or_equiv
  _atom_site_type_symbol
  C1       1.0000 0.74537  0.42200  0.58357  Biso   1.000  C
  C2       1.0000 0.24537  0.92200  0.58357  Biso   1.000  C
  C3       1.0000 0.25463  0.42200  0.91643  Biso   1.000  C
  C4       1.0000 0.75463  0.92200  0.91643  Biso   1.000  C
  C5       1.0000 0.25463  0.57800  0.41643  Biso   1.000  C
  C6       1.0000 0.75463  0.07800  0.41643  Biso   1.000  C
  C7       1.0000 0.74537  0.57800  0.08357  Biso   1.000  C
  C8       1.0000 0.24537  0.07800  0.08357  Biso   1.000  C
  C9       1.0000 0.85440  0.47440  0.63158  Biso   1.000  C
  C10      1.0000 0.35440  0.97440  0.63158  Biso   1.000  C
  C11      1.0000 0.14560  0.47440  0.86842  Biso   1.000  C
  C12      1.0000 0.64560  0.97440  0.86842  Biso   1.000  C
  C13      1.0000 0.14560  0.52560  0.36842  Biso   1.000  C
  C14      1.0000 0.64560  0.02560  0.36842  Biso   1.000  C
  C15      1.0000 0.85440  0.52560  0.13158  Biso   1.000  C
  C16      1.0000 0.35440  0.02560  0.13158  Biso   1.000  C
  C17      1.0000 0.84736  0.59080  0.68856  Biso   1.000  C
  C18      1.0000 0.34736  0.09080  0.68856  Biso   1.000  C
  C19      1.0000 0.15264  0.59080  0.81144  Biso   1.000  C
  C20      1.0000 0.65264  0.09080  0.81144  Biso   1.000  C
  C21      1.0000 0.15264  0.40920  0.31144  Biso   1.000  C
  C22      1.0000 0.65264  0.90920  0.31144  Biso   1.000  C
  C23      1.0000 0.84736  0.40920  0.18856  Biso   1.000  C
  C24      1.0000 0.34736  0.90920  0.18856  Biso   1.000  C
  H1       1.0000 0.88060  0.64970  0.72460  Biso   1.000  H
  H2       1.0000 0.38060  0.14970  0.72460  Biso   1.000  H
  H3       1.0000 0.11940  0.64970  0.77540  Biso   1.000  H
  H4       1.0000 0.61940  0.14970  0.77540  Biso   1.000  H
  H5       1.0000 0.11940  0.35030  0.27540  Biso   1.000  H
  H6       1.0000 0.61940  0.85030  0.27540  Biso   1.000  H
  H7       1.0000 0.88060  0.35030  0.22460  Biso   1.000  H
  H8       1.0000 0.38060  0.85030  0.22460  Biso   1.000  H
  C25      1.0000 0.79164  0.61450  0.68955  Biso   1.000  C
  C26      1.0000 0.29164  0.11450  0.68955  Biso   1.000  C
  C27      1.0000 0.20836  0.61450  0.81045  Biso   1.000  C
  C28      1.0000 0.70836  0.11450  0.81045  Biso   1.000  C
  C29      1.0000 0.20836  0.38550  0.31045  Biso   1.000  C
  C30      1.0000 0.70836  0.88550  0.31045  Biso   1.000  C
  C31      1.0000 0.79164  0.38550  0.18955  Biso   1.000  C
  C32      1.0000 0.29164  0.88550  0.18955  Biso   1.000  C
  C33      1.0000 0.78127  0.73240  0.75119  Biso   1.000  C
  C34      1.0000 0.28127  0.23240  0.75119  Biso   1.000  C
  C35      1.0000 0.21873  0.73240  0.74881  Biso   1.000  C
  C36      1.0000 0.71873  0.23240  0.74881  Biso   1.000  C
  C37      1.0000 0.21873  0.26760  0.24881  Biso   1.000  C
  C38      1.0000 0.71873  0.76760  0.24881  Biso   1.000  C
  C39      1.0000 0.78127  0.26760  0.25119  Biso   1.000  C
  C40      1.0000 0.28127  0.76760  0.25119  Biso   1.000  C
  C41      1.0000 0.61169  0.57400  0.78084  Biso   1.000  C
  C42      1.0000 0.11169  0.07400  0.78084  Biso   1.000  C
  C43      1.0000 0.38831  0.57400  0.71916  Biso   1.000  C
  C44      1.0000 0.88831  0.07400  0.71916  Biso   1.000  C
  C45      1.0000 0.38831  0.42600  0.21916  Biso   1.000  C
  C46      1.0000 0.88831  0.92600  0.21916  Biso   1.000  C
  C47      1.0000 0.61169  0.42600  0.28084  Biso   1.000  C
  C48      1.0000 0.11169  0.92600  0.28084  Biso   1.000  C
  H9       1.0000 0.64720  0.63970  0.80910  Biso   1.000  H
  H10      1.0000 0.14720  0.13970  0.80910  Biso   1.000  H
  H11      1.0000 0.35280  0.63970  0.69090  Biso   1.000  H
  H12      1.0000 0.85280  0.13970  0.69090  Biso   1.000  H
  H13      1.0000 0.35280  0.36030  0.19090  Biso   1.000  H
  H14      1.0000 0.85280  0.86030  0.19090  Biso   1.000  H
  H15      1.0000 0.64720  0.36030  0.30910  Biso   1.000  H
  H16      1.0000 0.14720  0.86030  0.30910  Biso   1.000  H
  H17      1.0000 0.62010  0.46050  0.79770  Biso   1.000  H
  H18      1.0000 0.12010  0.96050  0.79770  Biso   1.000  H
  H19      1.0000 0.37990  0.46050  0.70230  Biso   1.000  H
  H20      1.0000 0.87990  0.96050  0.70230  Biso   1.000  H
  H21      1.0000 0.37990  0.53950  0.20230  Biso   1.000  H
  H22      1.0000 0.87990  0.03950  0.20230  Biso   1.000  H
  H23      1.0000 0.62010  0.53950  0.29770  Biso   1.000  H
  H24      1.0000 0.12010  0.03950  0.29770  Biso   1.000  H
  H25      1.0000 0.57900  0.61340  0.79480  Biso   1.000  H
  H26      1.0000 0.07900  0.11340  0.79480  Biso   1.000  H
  H27      1.0000 0.42100  0.61340  0.70520  Biso   1.000  H
  H28      1.0000 0.92100  0.11340  0.70520  Biso   1.000  H
  H29      1.0000 0.42100  0.38660  0.20520  Biso   1.000  H
  H30      1.0000 0.92100  0.88660  0.20520  Biso   1.000  H
  H31      1.0000 0.57900  0.38660  0.29480  Biso   1.000  H
  H32      1.0000 0.07900  0.88660  0.29480  Biso   1.000  H
  C49      1.0000 0.54598  0.46460  0.64798  Biso   1.000  C
  C50      1.0000 0.04598  0.96460  0.64798  Biso   1.000  C
  C51      1.0000 0.45402  0.46460  0.85202  Biso   1.000  C
  C52      1.0000 0.95402  0.96460  0.85202  Biso   1.000  C
  C53      1.0000 0.45402  0.53540  0.35202  Biso   1.000  C
  C54      1.0000 0.95402  0.03540  0.35202  Biso   1.000  C
  C55      1.0000 0.54598  0.53540  0.14798  Biso   1.000  C
  C56      1.0000 0.04598  0.03540  0.14798  Biso   1.000  C
  H33      1.0000 0.51080  0.49010  0.65940  Biso   1.000  H
  H34      1.0000 0.01080  0.99010  0.65940  Biso   1.000  H
  H35      1.0000 0.48920  0.49010  0.84060  Biso   1.000  H
  H36      1.0000 0.98920  0.99010  0.84060  Biso   1.000  H
  H37      1.0000 0.48920  0.50990  0.34060  Biso   1.000  H
  H38      1.0000 0.98920  0.00990  0.34060  Biso   1.000  H
  H39      1.0000 0.51080  0.50990  0.15940  Biso   1.000  H
  H40      1.0000 0.01080  0.00990  0.15940  Biso   1.000  H
  H41      1.0000 0.56020  0.35560  0.66830  Biso   1.000  H
  H42      1.0000 0.06020  0.85560  0.66830  Biso   1.000  H
  H43      1.0000 0.43980  0.35560  0.83170  Biso   1.000  H
  H44      1.0000 0.93980  0.85560  0.83170  Biso   1.000  H
  H45      1.0000 0.43980  0.64440  0.33170  Biso   1.000  H
  H46      1.0000 0.93980  0.14440  0.33170  Biso   1.000  H
  H47      1.0000 0.56020  0.64440  0.16830  Biso   1.000  H
  H48      1.0000 0.06020  0.14440  0.16830  Biso   1.000  H
  H49      1.0000 0.53560  0.46870  0.58900  Biso   1.000  H
  H50      1.0000 0.03560  0.96870  0.58900  Biso   1.000  H
  H51      1.0000 0.46440  0.46870  0.91100  Biso   1.000  H
  H52      1.0000 0.96440  0.96870  0.91100  Biso   1.000  H
  H53      1.0000 0.46440  0.53130  0.41100  Biso   1.000  H
  H54      1.0000 0.96440  0.03130  0.41100  Biso   1.000  H
  H55      1.0000 0.53560  0.53130  0.08900  Biso   1.000  H
  H56      1.0000 0.03560  0.03130  0.08900  Biso   1.000  H
  C57      1.0000 0.57325  0.75730  0.66177  Biso   1.000  C
  C58      1.0000 0.07325  0.25730  0.66177  Biso   1.000  C
  C59      1.0000 0.42675  0.75730  0.83823  Biso   1.000  C
  C60      1.0000 0.92675  0.25730  0.83823  Biso   1.000  C
  C61      1.0000 0.42675  0.24270  0.33823  Biso   1.000  C
  C62      1.0000 0.92675  0.74270  0.33823  Biso   1.000  C
  C63      1.0000 0.57325  0.24270  0.16177  Biso   1.000  C
  C64      1.0000 0.07325  0.74270  0.16177  Biso   1.000  C
  H57      1.0000 0.60120  0.83700  0.69870  Biso   1.000  H
  H58      1.0000 0.10120  0.33700  0.69870  Biso   1.000  H
  H59      1.0000 0.39880  0.83700  0.80130  Biso   1.000  H
  H60      1.0000 0.89880  0.33700  0.80130  Biso   1.000  H
  H61      1.0000 0.39880  0.16300  0.30130  Biso   1.000  H
  H62      1.0000 0.89880  0.66300  0.30130  Biso   1.000  H
  H63      1.0000 0.60120  0.16300  0.19870  Biso   1.000  H
  H64      1.0000 0.10120  0.66300  0.19870  Biso   1.000  H
  H65      1.0000 0.53360  0.77490  0.66340  Biso   1.000  H
  H66      1.0000 0.03360  0.27490  0.66340  Biso   1.000  H
  H67      1.0000 0.46640  0.77490  0.83660  Biso   1.000  H
  H68      1.0000 0.96640  0.27490  0.83660  Biso   1.000  H
  H69      1.0000 0.46640  0.22510  0.33660  Biso   1.000  H
  H70      1.0000 0.96640  0.72510  0.33660  Biso   1.000  H
  H71      1.0000 0.53360  0.22510  0.16340  Biso   1.000  H
  H72      1.0000 0.03360  0.72510  0.16340  Biso   1.000  H
  C65      1.0000 0.56950  0.78220  0.57495  Biso   1.000  C
  C66      1.0000 0.06950  0.28220  0.57495  Biso   1.000  C
  C67      1.0000 0.43050  0.78220  0.92505  Biso   1.000  C
  C68      1.0000 0.93050  0.28220  0.92505  Biso   1.000  C
  C69      1.0000 0.43050  0.21780  0.42505  Biso   1.000  C
  C70      1.0000 0.93050  0.71780  0.42505  Biso   1.000  C
  C71      1.0000 0.56950  0.21780  0.07495  Biso   1.000  C
  C72      1.0000 0.06950  0.71780  0.07495  Biso   1.000  C
  H73      1.0000 0.53800  0.71190  0.53690  Biso   1.000  H
  H74      1.0000 0.03800  0.21190  0.53690  Biso   1.000  H
  H75      1.0000 0.46200  0.71190  0.96310  Biso   1.000  H
  H76      1.0000 0.96200  0.21190  0.96310  Biso   1.000  H
  H77      1.0000 0.46200  0.28810  0.46310  Biso   1.000  H
  H78      1.0000 0.96200  0.78810  0.46310  Biso   1.000  H
  H79      1.0000 0.53800  0.28810  0.03690  Biso   1.000  H
  H80      1.0000 0.03800  0.78810  0.03690  Biso   1.000  H
  H81      1.0000 0.55920  0.89640  0.55830  Biso   1.000  H
  H82      1.0000 0.05920  0.39640  0.55830  Biso   1.000  H
  H83      1.0000 0.44080  0.89640  0.94170  Biso   1.000  H
  H84      1.0000 0.94080  0.39640  0.94170  Biso   1.000  H
  H85      1.0000 0.44080  0.10360  0.44170  Biso   1.000  H
  H86      1.0000 0.94080  0.60360  0.44170  Biso   1.000  H
  H87      1.0000 0.55920  0.10360  0.05830  Biso   1.000  H
  H88      1.0000 0.05920  0.60360  0.05830  Biso   1.000  H
  C73      1.0000 0.61856  0.68460  0.48613  Biso   1.000  C
  C74      1.0000 0.11856  0.18460  0.48613  Biso   1.000  C
  C75      1.0000 0.38144  0.68460  0.01387  Biso   1.000  C
  C76      1.0000 0.88144  0.18460  0.01387  Biso   1.000  C
  C77      1.0000 0.38144  0.31540  0.51387  Biso   1.000  C
  C78      1.0000 0.88144  0.81540  0.51387  Biso   1.000  C
  C79      1.0000 0.61856  0.31540  0.98613  Biso   1.000  C
  C80      1.0000 0.11856  0.81540  0.98613  Biso   1.000  C
  H89      1.0000 0.59570  0.58340  0.47430  Biso   1.000  H
  H90      1.0000 0.09570  0.08340  0.47430  Biso   1.000  H
  H91      1.0000 0.40430  0.58340  0.02570  Biso   1.000  H
  H92      1.0000 0.90430  0.08340  0.02570  Biso   1.000  H
  H93      1.0000 0.40430  0.41660  0.52570  Biso   1.000  H
  H94      1.0000 0.90430  0.91660  0.52570  Biso   1.000  H
  H95      1.0000 0.59570  0.41660  0.97430  Biso   1.000  H
  H96      1.0000 0.09570  0.91660  0.97430  Biso   1.000  H
  H97      1.0000 0.65700  0.66610  0.48220  Biso   1.000  H
  H98      1.0000 0.15700  0.16610  0.48220  Biso   1.000  H
  H99      1.0000 0.34300  0.66610  0.01780  Biso   1.000  H
  H100     1.0000 0.84300  0.16610  0.01780  Biso   1.000  H
  H101     1.0000 0.34300  0.33390  0.51780  Biso   1.000  H
  H102     1.0000 0.84300  0.83390  0.51780  Biso   1.000  H
  H103     1.0000 0.65700  0.33390  0.98220  Biso   1.000  H
  H104     1.0000 0.15700  0.83390  0.98220  Biso   1.000  H
  H105     1.0000 0.59640  0.76780  0.44660  Biso   1.000  H
  H106     1.0000 0.09640  0.26780  0.44660  Biso   1.000  H
  H107     1.0000 0.40360  0.76780  0.05340  Biso   1.000  H
  H108     1.0000 0.90360  0.26780  0.05340  Biso   1.000  H
  H109     1.0000 0.40360  0.23220  0.55340  Biso   1.000  H
  H110     1.0000 0.90360  0.73220  0.55340  Biso   1.000  H
  H111     1.0000 0.59640  0.23220  0.94660  Biso   1.000  H
  H112     1.0000 0.09640  0.73220  0.94660  Biso   1.000  H
  C81      1.0000 0.66793  0.89030  0.59072  Biso   1.000  C
  C82      1.0000 0.16793  0.39030  0.59072  Biso   1.000  C
  C83      1.0000 0.33207  0.89030  0.90928  Biso   1.000  C
  C84      1.0000 0.83207  0.39030  0.90928  Biso   1.000  C
  C85      1.0000 0.33207  0.10970  0.40928  Biso   1.000  C
  C86      1.0000 0.83207  0.60970  0.40928  Biso   1.000  C
  C87      1.0000 0.66793  0.10970  0.09072  Biso   1.000  C
  C88      1.0000 0.16793  0.60970  0.09072  Biso   1.000  C
  H113     1.0000 0.64890  0.97470  0.55010  Biso   1.000  H
  H114     1.0000 0.14890  0.47470  0.55010  Biso   1.000  H
  H115     1.0000 0.35110  0.97470  0.94990  Biso   1.000  H
  H116     1.0000 0.85110  0.47470  0.94990  Biso   1.000  H
  H117     1.0000 0.35110  0.02530  0.44990  Biso   1.000  H
  H118     1.0000 0.85110  0.52530  0.44990  Biso   1.000  H
  H119     1.0000 0.64890  0.02530  0.05010  Biso   1.000  H
  H120     1.0000 0.14890  0.52530  0.05010  Biso   1.000  H
  H121     1.0000 0.70660  0.86250  0.58950  Biso   1.000  H
  H122     1.0000 0.20660  0.36250  0.58950  Biso   1.000  H
  H123     1.0000 0.29340  0.86250  0.91050  Biso   1.000  H
  H124     1.0000 0.79340  0.36250  0.91050  Biso   1.000  H
  H125     1.0000 0.29340  0.13750  0.41050  Biso   1.000  H
  H126     1.0000 0.79340  0.63750  0.41050  Biso   1.000  H
  H127     1.0000 0.70660  0.13750  0.08950  Biso   1.000  H
  H128     1.0000 0.20660  0.63750  0.08950  Biso   1.000  H
  H129     1.0000 0.67360  0.93030  0.64510  Biso   1.000  H
  H130     1.0000 0.17360  0.43030  0.64510  Biso   1.000  H
  H131     1.0000 0.32640  0.93030  0.85490  Biso   1.000  H
  H132     1.0000 0.82640  0.43030  0.85490  Biso   1.000  H
  H133     1.0000 0.32640  0.06970  0.35490  Biso   1.000  H
  H134     1.0000 0.82640  0.56970  0.35490  Biso   1.000  H
  H135     1.0000 0.67360  0.06970  0.14510  Biso   1.000  H
  H136     1.0000 0.17360  0.56970  0.14510  Biso   1.000  H
  N1       1.0000 0.74092  0.53539  0.63833  Biso   1.000  N
  N2       1.0000 0.24092  0.03539  0.63833  Biso   1.000  N
  N3       1.0000 0.25908  0.53539  0.86167  Biso   1.000  N
  N4       1.0000 0.75908  0.03539  0.86167  Biso   1.000  N
  N5       1.0000 0.25908  0.46461  0.36167  Biso   1.000  N
  N6       1.0000 0.75908  0.96461  0.36167  Biso   1.000  N
  N7       1.0000 0.74092  0.46461  0.13833  Biso   1.000  N
  N8       1.0000 0.24092  0.96461  0.13833  Biso   1.000  N
  N9       1.0000 0.80142  0.39830  0.58104  Biso   1.000  N
  N10      1.0000 0.30142  0.89830  0.58104  Biso   1.000  N
  N11      1.0000 0.19858  0.39830  0.91896  Biso   1.000  N
  N12      1.0000 0.69858  0.89830  0.91896  Biso   1.000  N
  N13      1.0000 0.19858  0.60170  0.41896  Biso   1.000  N
  N14      1.0000 0.69858  0.10170  0.41896  Biso   1.000  N
  N15      1.0000 0.80142  0.60170  0.08104  Biso   1.000  N
  N16      1.0000 0.30142  0.10170  0.08104  Biso   1.000  N
  H137     1.0000 0.80360  0.32970  0.54460  Biso   1.000  H
  H138     1.0000 0.30360  0.82970  0.54460  Biso   1.000  H
  H139     1.0000 0.19640  0.32970  0.95540  Biso   1.000  H
  H140     1.0000 0.69640  0.82970  0.95540  Biso   1.000  H
  H141     1.0000 0.19640  0.67030  0.45540  Biso   1.000  H
  H142     1.0000 0.69640  0.17030  0.45540  Biso   1.000  H
  H143     1.0000 0.80360  0.67030  0.04460  Biso   1.000  H
  H144     1.0000 0.30360  0.17030  0.04460  Biso   1.000  H
  N17      1.0000 0.59442  0.58700  0.69012  Biso   1.000  N
  N18      1.0000 0.09442  0.08700  0.69012  Biso   1.000  N
  N19      1.0000 0.40558  0.58700  0.80988  Biso   1.000  N
  N20      1.0000 0.90558  0.08700  0.80988  Biso   1.000  N
  N21      1.0000 0.40558  0.41300  0.30988  Biso   1.000  N
  N22      1.0000 0.90558  0.91300  0.30988  Biso   1.000  N
  N23      1.0000 0.59442  0.41300  0.19012  Biso   1.000  N
  N24      1.0000 0.09442  0.91300  0.19012  Biso   1.000  N
  N25      1.0000 0.62866  0.74070  0.57119  Biso   1.000  N
  N26      1.0000 0.12866  0.24070  0.57119  Biso   1.000  N
  N27      1.0000 0.37134  0.74070  0.92881  Biso   1.000  N
  N28      1.0000 0.87134  0.24070  0.92881  Biso   1.000  N
  N29      1.0000 0.37134  0.25930  0.42881  Biso   1.000  N
  N30      1.0000 0.87134  0.75930  0.42881  Biso   1.000  N
  N31      1.0000 0.62866  0.25930  0.07119  Biso   1.000  N
  N32      1.0000 0.12866  0.75930  0.07119  Biso   1.000  N
  O1       1.0000 0.70089  0.34291  0.53673  Biso   1.000  O
  O2       1.0000 0.20089  0.84291  0.53673  Biso   1.000  O
  O3       1.0000 0.29911  0.34291  0.96327  Biso   1.000  O
  O4       1.0000 0.79911  0.84291  0.96327  Biso   1.000  O
  O5       1.0000 0.29911  0.65709  0.46327  Biso   1.000  O
  O6       1.0000 0.79911  0.15709  0.46327  Biso   1.000  O
  O7       1.0000 0.70089  0.65709  0.03673  Biso   1.000  O
  O8       1.0000 0.20089  0.15709  0.03673  Biso   1.000  O
  O9       1.0000 0.90299  0.43881  0.62604  Biso   1.000  O
  O10      1.0000 0.40299  0.93881  0.62604  Biso   1.000  O
  O11      1.0000 0.09701  0.43881  0.87396  Biso   1.000  O
  O12      1.0000 0.59701  0.93881  0.87396  Biso   1.000  O
  O13      1.0000 0.09701  0.56119  0.37396  Biso   1.000  O
  O14      1.0000 0.59701  0.06119  0.37396  Biso   1.000  O
  O15      1.0000 0.90299  0.56119  0.12604  Biso   1.000  O
  O16      1.0000 0.40299  0.06119  0.12604  Biso   1.000  O
  O17      1.0000 0.82423  0.83182  0.78688  Biso   1.000  O
  O18      1.0000 0.32423  0.33182  0.78688  Biso   1.000  O
  O19      1.0000 0.17577  0.83182  0.71312  Biso   1.000  O
  O20      1.0000 0.67577  0.33182  0.71312  Biso   1.000  O
  O21      1.0000 0.17577  0.16818  0.21312  Biso   1.000  O
  O22      1.0000 0.67577  0.66818  0.21312  Biso   1.000  O
  O23      1.0000 0.82423  0.16818  0.28688  Biso   1.000  O
  O24      1.0000 0.32423  0.66818  0.28688  Biso   1.000  O
  O25      1.0000 0.73274  0.71953  0.76012  Biso   1.000  O
  O26      1.0000 0.23274  0.21953  0.76012  Biso   1.000  O
  O27      1.0000 0.26726  0.71953  0.73988  Biso   1.000  O
  O28      1.0000 0.76726  0.21953  0.73988  Biso   1.000  O
  O29      1.0000 0.26726  0.28047  0.23988  Biso   1.000  O
  O30      1.0000 0.76726  0.78047  0.23988  Biso   1.000  O
  O31      1.0000 0.73274  0.28047  0.26012  Biso   1.000  O
  O32      1.0000 0.23274  0.78047  0.26012  Biso   1.000  O
  O33      1.0000 0.92417  0.23940  0.50477  Biso   1.000  O
  O34      1.0000 0.42417  0.73940  0.50477  Biso   1.000  O
  O35      1.0000 0.07583  0.23940  0.99523  Biso   1.000  O
  O36      1.0000 0.57583  0.73940  0.99523  Biso   1.000  O
  O37      1.0000 0.07583  0.76060  0.49523  Biso   1.000  O
  O38      1.0000 0.57583  0.26060  0.49523  Biso   1.000  O
  O39      1.0000 0.92417  0.76060  0.00477  Biso   1.000  O
  O40      1.0000 0.42417  0.26060  0.00477  Biso   1.000  O
  O41      1.0000 0.50000  0.87320  0.25000  Biso   1.000  O
  O42      1.0000 0.00000  0.37320  0.25000  Biso   1.000  O
  O43      1.0000 0.50000  0.12680  0.75000  Biso   1.000  O
  O44      1.0000 0.00000  0.62680  0.75000  Biso   1.000  O
  Cu1      1.0000 0.66732  0.55456  0.66060  Biso   1.000  Cu
  Cu2      1.0000 0.16732  0.05456  0.66060  Biso   1.000  Cu
  Cu3      1.0000 0.33268  0.55456  0.83940  Biso   1.000  Cu
  Cu4      1.0000 0.83268  0.05456  0.83940  Biso   1.000  Cu
  Cu5      1.0000 0.33268  0.44544  0.33940  Biso   1.000  Cu
  Cu6      1.0000 0.83268  0.94544  0.33940  Biso   1.000  Cu
  Cu7      1.0000 0.66732  0.44544  0.16060  Biso   1.000  Cu
  Cu8      1.0000 0.16732  0.94544  0.16060  Biso   1.000  Cu
  H145     1.0000 0.88980  0.22700  0.47300  Biso   1.000  H
  H146     1.0000 0.38980  0.72700  0.47300  Biso   1.000  H
  H147     1.0000 0.11020  0.22700  0.02700  Biso   1.000  H
  H148     1.0000 0.61020  0.72700  0.02700  Biso   1.000  H
  H149     1.0000 0.11020  0.77300  0.52700  Biso   1.000  H
  H150     1.0000 0.61020  0.27300  0.52700  Biso   1.000  H
  H151     1.0000 0.88980  0.77300  0.97300  Biso   1.000  H
  H152     1.0000 0.38980  0.27300  0.97300  Biso   1.000  H
  H153     1.0000 0.92210  0.29000  0.54570  Biso   1.000  H
  H154     1.0000 0.42210  0.79000  0.54570  Biso   1.000  H
  H155     1.0000 0.07790  0.29000  0.95430  Biso   1.000  H
  H156     1.0000 0.57790  0.79000  0.95430  Biso   1.000  H
  H157     1.0000 0.07790  0.71000  0.45430  Biso   1.000  H
  H158     1.0000 0.57790  0.21000  0.45430  Biso   1.000  H
  H159     1.0000 0.92210  0.71000  0.04570  Biso   1.000  H
  H160     1.0000 0.42210  0.21000  0.04570  Biso   1.000  H
  H161     1.0000 0.49100  0.93700  0.20900  Biso   1.000  H
  H162     1.0000 0.99100  0.43700  0.20900  Biso   1.000  H
  H163     1.0000 0.50900  0.93700  0.29100  Biso   1.000  H
  H164     1.0000 0.00900  0.43700  0.29100  Biso   1.000  H
  H165     1.0000 0.50900  0.06300  0.79100  Biso   1.000  H
  H166     1.0000 0.00900  0.56300  0.79100  Biso   1.000  H
  H167     1.0000 0.49100  0.06300  0.70900  Biso   1.000  H
  H168     1.0000 0.99100  0.56300  0.70900  Biso   1.000  H
