data_image0
_cell_length_a       7.527
_cell_length_b       13.411
_cell_length_c       16.895
_cell_angle_alpha    90
_cell_angle_beta     102.586
_cell_angle_gamma    90

_symmetry_space_group_name_H-M    "P 1"
_symmetry_int_tables_number       1

loop_
  _symmetry_equiv_pos_as_xyz
  'x, y, z'

loop_
  _atom_site_label
  _atom_site_occupancy
  _atom_site_fract_x
  _atom_site_fract_y
  _atom_site_fract_z
  _atom_site_thermal_displace_type
  _atom_site_B_iso_or_equiv
  _atom_site_type_symbol
  Cu1      1.0000 0.03722  0.44483  0.07812  Biso   1.000  Cu
  Cu2      1.0000 0.46278  0.94483  0.42188  Biso   1.000  Cu
  Cu3      1.0000 0.96278  0.55517  0.92188  Biso   1.000  Cu
  Cu4      1.0000 0.53722  0.05517  0.57812  Biso   1.000  Cu
  O1       1.0000 0.98490  0.57650  0.03556  Biso   1.000  O
  O2       1.0000 0.51510  0.07650  0.46444  Biso   1.000  O
  O3       1.0000 0.01510  0.42350  0.96444  Biso   1.000  O
  O4       1.0000 0.48490  0.92350  0.53556  Biso   1.000  O
  H1       1.0000 0.05340  0.62570  0.05330  Biso   1.000  H
  H2       1.0000 0.44660  0.12570  0.44670  Biso   1.000  H
  H3       1.0000 0.94660  0.37430  0.94670  Biso   1.000  H
  H4       1.0000 0.55340  0.87430  0.55330  Biso   1.000  H
  N1       1.0000 0.02960  0.30100  0.10220  Biso   1.000  N
  N2       1.0000 0.47040  0.80100  0.39780  Biso   1.000  N
  N3       1.0000 0.97040  0.69900  0.89780  Biso   1.000  N
  N4       1.0000 0.52960  0.19900  0.60220  Biso   1.000  N
  N5       1.0000 0.92810  0.15540  0.14160  Biso   1.000  N
  N6       1.0000 0.57190  0.65540  0.35840  Biso   1.000  N
  N7       1.0000 0.07190  0.84460  0.85840  Biso   1.000  N
  N8       1.0000 0.42810  0.34460  0.64160  Biso   1.000  N
  N9       1.0000 0.07370  0.14120  0.10590  Biso   1.000  N
  N10      1.0000 0.42630  0.64120  0.39410  Biso   1.000  N
  N11      1.0000 0.92630  0.85880  0.89410  Biso   1.000  N
  N12      1.0000 0.57370  0.35880  0.60590  Biso   1.000  N
  N13      1.0000 0.28310  0.02900  0.18430  Biso   1.000  N
  N14      1.0000 0.21690  0.52900  0.31570  Biso   1.000  N
  N15      1.0000 0.71690  0.97100  0.81570  Biso   1.000  N
  N16      1.0000 0.78310  0.47100  0.68430  Biso   1.000  N
  N17      1.0000 0.44730  0.07800  0.19810  Biso   1.000  N
  N18      1.0000 0.05270  0.57800  0.30190  Biso   1.000  N
  N19      1.0000 0.55270  0.92200  0.80190  Biso   1.000  N
  N20      1.0000 0.94730  0.42200  0.69810  Biso   1.000  N
  N21      1.0000 0.41760  0.99100  0.30701  Biso   1.000  N
  N22      1.0000 0.08240  0.49100  0.19299  Biso   1.000  N
  N23      1.0000 0.58240  0.00900  0.69299  Biso   1.000  N
  N24      1.0000 0.91760  0.50900  0.80701  Biso   1.000  N
  C1       1.0000 0.28240  0.23800  0.03940  Biso   1.000  C
  C2       1.0000 0.21760  0.73800  0.46060  Biso   1.000  C
  C3       1.0000 0.71760  0.76200  0.96060  Biso   1.000  C
  C4       1.0000 0.78240  0.26200  0.53940  Biso   1.000  C
  H5       1.0000 0.37540  0.19000  0.06020  Biso   1.000  H
  H6       1.0000 0.12460  0.69000  0.43980  Biso   1.000  H
  H7       1.0000 0.62460  0.81000  0.93980  Biso   1.000  H
  H8       1.0000 0.87540  0.31000  0.56020  Biso   1.000  H
  H9       1.0000 0.33250  0.30400  0.04780  Biso   1.000  H
  H10      1.0000 0.16750  0.80400  0.45220  Biso   1.000  H
  H11      1.0000 0.66750  0.69600  0.95220  Biso   1.000  H
  H12      1.0000 0.83250  0.19600  0.54780  Biso   1.000  H
  H13      1.0000 0.23710  0.22680  0.98250  Biso   1.000  H
  H14      1.0000 0.26290  0.72680  0.51750  Biso   1.000  H
  H15      1.0000 0.76290  0.77320  0.01750  Biso   1.000  H
  H16      1.0000 0.73710  0.27320  0.48250  Biso   1.000  H
  C5       1.0000 0.13170  0.22770  0.08230  Biso   1.000  C
  C6       1.0000 0.36830  0.72770  0.41770  Biso   1.000  C
  C7       1.0000 0.86830  0.77230  0.91770  Biso   1.000  C
  C8       1.0000 0.63170  0.27230  0.58230  Biso   1.000  C
  C9       1.0000 0.90590  0.25170  0.13800  Biso   1.000  C
  C10      1.0000 0.59410  0.75170  0.36200  Biso   1.000  C
  C11      1.0000 0.09410  0.74830  0.86200  Biso   1.000  C
  C12      1.0000 0.40590  0.24830  0.63800  Biso   1.000  C
  C13      1.0000 0.75920  0.30520  0.16780  Biso   1.000  C
  C14      1.0000 0.74080  0.80520  0.33220  Biso   1.000  C
  C15      1.0000 0.24080  0.69480  0.83220  Biso   1.000  C
  C16      1.0000 0.25920  0.19480  0.66780  Biso   1.000  C
  H17      1.0000 0.67310  0.25770  0.17960  Biso   1.000  H
  H18      1.0000 0.82690  0.75770  0.32040  Biso   1.000  H
  H19      1.0000 0.32690  0.74230  0.82040  Biso   1.000  H
  H20      1.0000 0.17310  0.24230  0.67960  Biso   1.000  H
  H21      1.0000 0.69840  0.35060  0.12680  Biso   1.000  H
  H22      1.0000 0.80160  0.85060  0.37320  Biso   1.000  H
  H23      1.0000 0.30160  0.64940  0.87320  Biso   1.000  H
  H24      1.0000 0.19840  0.14940  0.62680  Biso   1.000  H
  H25      1.0000 0.81170  0.34170  0.21610  Biso   1.000  H
  H26      1.0000 0.68830  0.84170  0.28390  Biso   1.000  H
  H27      1.0000 0.18830  0.65830  0.78390  Biso   1.000  H
  H28      1.0000 0.31170  0.15830  0.71610  Biso   1.000  H
  C17      1.0000 0.15520  0.04350  0.10770  Biso   1.000  C
  C18      1.0000 0.34480  0.54350  0.39230  Biso   1.000  C
  C19      1.0000 0.84480  0.95650  0.89230  Biso   1.000  C
  C20      1.0000 0.65520  0.45650  0.60770  Biso   1.000  C
  H29      1.0000 0.21770  0.03730  0.06340  Biso   1.000  H
  H30      1.0000 0.28230  0.53730  0.43660  Biso   1.000  H
  H31      1.0000 0.78230  0.96270  0.93660  Biso   1.000  H
  H32      1.0000 0.71770  0.46270  0.56340  Biso   1.000  H
  H33      1.0000 0.06110  0.99280  0.10090  Biso   1.000  H
  H34      1.0000 0.43890  0.49280  0.39910  Biso   1.000  H
  H35      1.0000 0.93890  0.00720  0.89910  Biso   1.000  H
  H36      1.0000 0.56110  0.50720  0.60090  Biso   1.000  H
  C21      1.0000 0.10880  0.91360  0.25550  Biso   1.000  C
  C22      1.0000 0.39120  0.41360  0.24450  Biso   1.000  C
  C23      1.0000 0.89120  0.08640  0.74450  Biso   1.000  C
  C24      1.0000 0.60880  0.58640  0.75550  Biso   1.000  C
  H37      1.0000 0.01130  0.92590  0.20940  Biso   1.000  H
  H38      1.0000 0.48870  0.42590  0.29060  Biso   1.000  H
  H39      1.0000 0.98870  0.07410  0.79060  Biso   1.000  H
  H40      1.0000 0.51130  0.57410  0.70940  Biso   1.000  H
  H41      1.0000 0.06920  0.92950  0.30430  Biso   1.000  H
  H42      1.0000 0.43080  0.42950  0.19570  Biso   1.000  H
  H43      1.0000 0.93080  0.07050  0.69570  Biso   1.000  H
  H44      1.0000 0.56920  0.57050  0.80430  Biso   1.000  H
  H45      1.0000 0.14310  0.84460  0.25630  Biso   1.000  H
  H46      1.0000 0.35690  0.34460  0.24370  Biso   1.000  H
  H47      1.0000 0.85690  0.15540  0.74370  Biso   1.000  H
  H48      1.0000 0.64310  0.65540  0.75630  Biso   1.000  H
  C25      1.0000 0.26680  0.97650  0.24980  Biso   1.000  C
  C26      1.0000 0.23320  0.47650  0.25020  Biso   1.000  C
  C27      1.0000 0.73320  0.02350  0.75020  Biso   1.000  C
  C28      1.0000 0.76680  0.52350  0.74980  Biso   1.000  C
  C29      1.0000 0.52300  0.05370  0.27240  Biso   1.000  C
  C30      1.0000 0.97700  0.55370  0.22760  Biso   1.000  C
  C31      1.0000 0.47700  0.94630  0.72760  Biso   1.000  C
  C32      1.0000 0.02300  0.44630  0.77240  Biso   1.000  C
  C33      1.0000 0.70710  0.09010  0.31420  Biso   1.000  C
  C34      1.0000 0.79290  0.59010  0.18580  Biso   1.000  C
  C35      1.0000 0.29290  0.90990  0.68580  Biso   1.000  C
  C36      1.0000 0.20710  0.40990  0.81420  Biso   1.000  C
  H49      1.0000 0.78020  0.10050  0.27490  Biso   1.000  H
  H50      1.0000 0.71980  0.60050  0.22510  Biso   1.000  H
  H51      1.0000 0.21980  0.89950  0.72510  Biso   1.000  H
  H52      1.0000 0.28020  0.39950  0.77490  Biso   1.000  H
  H53      1.0000 0.76440  0.04130  0.35310  Biso   1.000  H
  H54      1.0000 0.73560  0.54130  0.14690  Biso   1.000  H
  H55      1.0000 0.23560  0.95870  0.64690  Biso   1.000  H
  H56      1.0000 0.26440  0.45870  0.85310  Biso   1.000  H
  H57      1.0000 0.69510  0.15170  0.34140  Biso   1.000  H
  H58      1.0000 0.80490  0.65170  0.15860  Biso   1.000  H
  H59      1.0000 0.30490  0.84830  0.65860  Biso   1.000  H
  H60      1.0000 0.19510  0.34830  0.84140  Biso   1.000  H
  Cl1      1.0000 0.33653  0.76492  0.10394  Biso   1.000  Cl
  Cl2      1.0000 0.16347  0.26492  0.39606  Biso   1.000  Cl
  Cl3      1.0000 0.66347  0.23508  0.89606  Biso   1.000  Cl
  Cl4      1.0000 0.83653  0.73508  0.60394  Biso   1.000  Cl
  O5       1.0000 0.31620  0.69050  0.16540  Biso   1.000  O
  O6       1.0000 0.18380  0.19050  0.33460  Biso   1.000  O
  O7       1.0000 0.68380  0.30950  0.83460  Biso   1.000  O
  O8       1.0000 0.81620  0.80950  0.66540  Biso   1.000  O
  O9       1.0000 0.39210  0.71330  0.04040  Biso   1.000  O
  O10      1.0000 0.10790  0.21330  0.45960  Biso   1.000  O
  O11      1.0000 0.60790  0.28670  0.95960  Biso   1.000  O
  O12      1.0000 0.89210  0.78670  0.54040  Biso   1.000  O
  O13      1.0000 0.46670  0.83430  0.14390  Biso   1.000  O
  O14      1.0000 0.03330  0.33430  0.35610  Biso   1.000  O
  O15      1.0000 0.53330  0.16570  0.85610  Biso   1.000  O
  O16      1.0000 0.96670  0.66570  0.64390  Biso   1.000  O
  O17      1.0000 0.16450  0.80960  0.07520  Biso   1.000  O
  O18      1.0000 0.33550  0.30960  0.42480  Biso   1.000  O
  O19      1.0000 0.83550  0.19040  0.92480  Biso   1.000  O
  O20      1.0000 0.66450  0.69040  0.57520  Biso   1.000  O
  O21      1.0000 0.72060  0.96720  0.07830  Biso   1.000  O
  O22      1.0000 0.77940  0.46720  0.42170  Biso   1.000  O
  O23      1.0000 0.27940  0.03280  0.92170  Biso   1.000  O
  O24      1.0000 0.22060  0.53280  0.57830  Biso   1.000  O
  H61      1.0000 0.69930  0.02840  0.06650  Biso   1.000  H
  H62      1.0000 0.80070  0.52840  0.43350  Biso   1.000  H
  H63      1.0000 0.30070  0.97160  0.93350  Biso   1.000  H
  H64      1.0000 0.19930  0.47160  0.56650  Biso   1.000  H
  H65      1.0000 0.68910  0.94600  0.12070  Biso   1.000  H
  H66      1.0000 0.81090  0.44600  0.37930  Biso   1.000  H
  H67      1.0000 0.31090  0.05400  0.87930  Biso   1.000  H
  H68      1.0000 0.18910  0.55400  0.62070  Biso   1.000  H
  O25      1.0000 0.38690  0.49080  0.05600  Biso   1.000  O
  O26      1.0000 0.11310  0.99080  0.44400  Biso   1.000  O
  O27      1.0000 0.61310  0.50920  0.94400  Biso   1.000  O
  O28      1.0000 0.88690  0.00920  0.55600  Biso   1.000  O
  H69      1.0000 0.35360  0.53240  0.08790  Biso   1.000  H
  H70      1.0000 0.14640  0.03240  0.41210  Biso   1.000  H
  H71      1.0000 0.64640  0.46760  0.91210  Biso   1.000  H
  H72      1.0000 0.85360  0.96760  0.58790  Biso   1.000  H
  H73      1.0000 0.41640  0.51430  0.01400  Biso   1.000  H
  H74      1.0000 0.08360  0.01430  0.48600  Biso   1.000  H
  H75      1.0000 0.58360  0.48570  0.98600  Biso   1.000  H
  H76      1.0000 0.91640  0.98570  0.51400  Biso   1.000  H
  O29      1.0000 0.37700  0.85790  0.06490  Biso   1.000  O
  O30      1.0000 0.12300  0.35790  0.43510  Biso   1.000  O
  O31      1.0000 0.62300  0.14210  0.93510  Biso   1.000  O
  O32      1.0000 0.87700  0.64210  0.56490  Biso   1.000  O
  O33      1.0000 0.40100  0.68390  0.06360  Biso   1.000  O
  O34      1.0000 0.09900  0.18390  0.43640  Biso   1.000  O
  O35      1.0000 0.59900  0.31610  0.93640  Biso   1.000  O
  O36      1.0000 0.90100  0.81610  0.56360  Biso   1.000  O
  O37      1.0000 0.42500  0.76900  0.18720  Biso   1.000  O
  O38      1.0000 0.07500  0.26900  0.31280  Biso   1.000  O
  O39      1.0000 0.57500  0.23100  0.81280  Biso   1.000  O
  O40      1.0000 0.92500  0.73100  0.68720  Biso   1.000  O
  O41      1.0000 0.14410  0.76040  0.09430  Biso   1.000  O
  O42      1.0000 0.35590  0.26040  0.40570  Biso   1.000  O
  O43      1.0000 0.85590  0.23960  0.90570  Biso   1.000  O
  O44      1.0000 0.64410  0.73960  0.59430  Biso   1.000  O
