data_image0
_cell_length_a       15.267
_cell_length_b       17.771
_cell_length_c       19.039
_cell_angle_alpha    90
_cell_angle_beta     90
_cell_angle_gamma    90

_symmetry_space_group_name_H-M    "P 1"
_symmetry_int_tables_number       1

loop_
  _symmetry_equiv_pos_as_xyz
  'x, y, z'

loop_
  _atom_site_label
  _atom_site_occupancy
  _atom_site_fract_x
  _atom_site_fract_y
  _atom_site_fract_z
  _atom_site_thermal_displace_type
  _atom_site_B_iso_or_equiv
  _atom_site_type_symbol
  Cu1      1.0000 0.52470  0.49752  0.72692  Biso   1.000  Cu
  Cu2      1.0000 0.97530  0.50248  0.22692  Biso   1.000  Cu
  Cu3      1.0000 0.47530  0.99752  0.27308  Biso   1.000  Cu
  Cu4      1.0000 0.02470  0.00248  0.77308  Biso   1.000  Cu
  Cu5      1.0000 0.47530  0.50248  0.27308  Biso   1.000  Cu
  Cu6      1.0000 0.02470  0.49752  0.77308  Biso   1.000  Cu
  Cu7      1.0000 0.52470  0.00248  0.72692  Biso   1.000  Cu
  Cu8      1.0000 0.97530  0.99752  0.22692  Biso   1.000  Cu
  O1       1.0000 0.45730  0.47070  0.81090  Biso   1.000  O
  O2       1.0000 0.04270  0.52930  0.31090  Biso   1.000  O
  O3       1.0000 0.54270  0.97070  0.18910  Biso   1.000  O
  O4       1.0000 0.95730  0.02930  0.68910  Biso   1.000  O
  O5       1.0000 0.54270  0.52930  0.18910  Biso   1.000  O
  O6       1.0000 0.95730  0.47070  0.68910  Biso   1.000  O
  O7       1.0000 0.45730  0.02930  0.81090  Biso   1.000  O
  O8       1.0000 0.04270  0.97070  0.31090  Biso   1.000  O
  O9       1.0000 0.34650  0.54600  0.78470  Biso   1.000  O
  O10      1.0000 0.15350  0.45400  0.28470  Biso   1.000  O
  O11      1.0000 0.65350  0.04600  0.21530  Biso   1.000  O
  O12      1.0000 0.84650  0.95400  0.71530  Biso   1.000  O
  O13      1.0000 0.65350  0.45400  0.21530  Biso   1.000  O
  O14      1.0000 0.84650  0.54600  0.71530  Biso   1.000  O
  O15      1.0000 0.34650  0.95400  0.78470  Biso   1.000  O
  O16      1.0000 0.15350  0.04600  0.28470  Biso   1.000  O
  O17      1.0000 0.20780  0.42450  0.78150  Biso   1.000  O
  O18      1.0000 0.29220  0.57550  0.28150  Biso   1.000  O
  O19      1.0000 0.79220  0.92450  0.21850  Biso   1.000  O
  O20      1.0000 0.70780  0.07550  0.71850  Biso   1.000  O
  O21      1.0000 0.79220  0.57550  0.21850  Biso   1.000  O
  O22      1.0000 0.70780  0.42450  0.71850  Biso   1.000  O
  O23      1.0000 0.20780  0.07550  0.78150  Biso   1.000  O
  O24      1.0000 0.29220  0.92450  0.28150  Biso   1.000  O
  O25      1.0000 0.11940  0.49870  0.84270  Biso   1.000  O
  O26      1.0000 0.38060  0.50130  0.34270  Biso   1.000  O
  O27      1.0000 0.88060  0.99870  0.15730  Biso   1.000  O
  O28      1.0000 0.61940  0.00130  0.65730  Biso   1.000  O
  O29      1.0000 0.88060  0.50130  0.15730  Biso   1.000  O
  O30      1.0000 0.61940  0.49870  0.65730  Biso   1.000  O
  O31      1.0000 0.11940  0.00130  0.84270  Biso   1.000  O
  O32      1.0000 0.38060  0.99870  0.34270  Biso   1.000  O
  N1       1.0000 0.43770  0.31680  0.60950  Biso   1.000  N
  N2       1.0000 0.06230  0.68320  0.10950  Biso   1.000  N
  N3       1.0000 0.56230  0.81680  0.39050  Biso   1.000  N
  N4       1.0000 0.93770  0.18320  0.89050  Biso   1.000  N
  N5       1.0000 0.56230  0.68320  0.39050  Biso   1.000  N
  N6       1.0000 0.93770  0.31680  0.89050  Biso   1.000  N
  N7       1.0000 0.43770  0.18320  0.60950  Biso   1.000  N
  N8       1.0000 0.06230  0.81680  0.10950  Biso   1.000  N
  N9       1.0000 0.35690  0.34430  0.62950  Biso   1.000  N
  N10      1.0000 0.14310  0.65570  0.12950  Biso   1.000  N
  N11      1.0000 0.64310  0.84430  0.37050  Biso   1.000  N
  N12      1.0000 0.85690  0.15570  0.87050  Biso   1.000  N
  N13      1.0000 0.64310  0.65570  0.37050  Biso   1.000  N
  N14      1.0000 0.85690  0.34430  0.87050  Biso   1.000  N
  N15      1.0000 0.35690  0.15570  0.62950  Biso   1.000  N
  N16      1.0000 0.14310  0.84430  0.12950  Biso   1.000  N
  N17      1.0000 0.46610  0.41340  0.67530  Biso   1.000  N
  N18      1.0000 0.03390  0.58660  0.17530  Biso   1.000  N
  N19      1.0000 0.53390  0.91340  0.32470  Biso   1.000  N
  N20      1.0000 0.96610  0.08660  0.82470  Biso   1.000  N
  N21      1.0000 0.53390  0.58660  0.32470  Biso   1.000  N
  N22      1.0000 0.96610  0.41340  0.82470  Biso   1.000  N
  N23      1.0000 0.46610  0.08660  0.67530  Biso   1.000  N
  N24      1.0000 0.03390  0.91340  0.17530  Biso   1.000  N
  N25      1.0000 0.59870  0.68250  0.84270  Biso   1.000  N
  N26      1.0000 0.90130  0.31750  0.34270  Biso   1.000  N
  N27      1.0000 0.40130  0.18250  0.15730  Biso   1.000  N
  N28      1.0000 0.09870  0.81750  0.65730  Biso   1.000  N
  N29      1.0000 0.40130  0.31750  0.15730  Biso   1.000  N
  N30      1.0000 0.09870  0.68250  0.65730  Biso   1.000  N
  N31      1.0000 0.59870  0.81750  0.84270  Biso   1.000  N
  N32      1.0000 0.90130  0.18250  0.34270  Biso   1.000  N
  N33      1.0000 0.68210  0.65850  0.82770  Biso   1.000  N
  N34      1.0000 0.81790  0.34150  0.32770  Biso   1.000  N
  N35      1.0000 0.31790  0.15850  0.17230  Biso   1.000  N
  N36      1.0000 0.18210  0.84150  0.67230  Biso   1.000  N
  N37      1.0000 0.31790  0.34150  0.17230  Biso   1.000  N
  N38      1.0000 0.18210  0.65850  0.67230  Biso   1.000  N
  N39      1.0000 0.68210  0.84150  0.82770  Biso   1.000  N
  N40      1.0000 0.81790  0.15850  0.32770  Biso   1.000  N
  N41      1.0000 0.58180  0.58060  0.78130  Biso   1.000  N
  N42      1.0000 0.91820  0.41940  0.28130  Biso   1.000  N
  N43      1.0000 0.41820  0.08060  0.21870  Biso   1.000  N
  N44      1.0000 0.08180  0.91940  0.71870  Biso   1.000  N
  N45      1.0000 0.41820  0.41940  0.21870  Biso   1.000  N
  N46      1.0000 0.08180  0.58060  0.71870  Biso   1.000  N
  N47      1.0000 0.58180  0.91940  0.78130  Biso   1.000  N
  N48      1.0000 0.91820  0.08060  0.28130  Biso   1.000  N
  N49      1.0000 0.40020  0.68260  0.59890  Biso   1.000  N
  N50      1.0000 0.09980  0.31740  0.09890  Biso   1.000  N
  N51      1.0000 0.59980  0.18260  0.40110  Biso   1.000  N
  N52      1.0000 0.90020  0.81740  0.90110  Biso   1.000  N
  N53      1.0000 0.59980  0.31740  0.40110  Biso   1.000  N
  N54      1.0000 0.90020  0.68260  0.90110  Biso   1.000  N
  N55      1.0000 0.40020  0.81740  0.59890  Biso   1.000  N
  N56      1.0000 0.09980  0.18260  0.09890  Biso   1.000  N
  N57      1.0000 0.45680  0.65340  0.54990  Biso   1.000  N
  N58      1.0000 0.04320  0.34660  0.04990  Biso   1.000  N
  N59      1.0000 0.54320  0.15340  0.45010  Biso   1.000  N
  N60      1.0000 0.95680  0.84660  0.95010  Biso   1.000  N
  N61      1.0000 0.54320  0.34660  0.45010  Biso   1.000  N
  N62      1.0000 0.95680  0.65340  0.95010  Biso   1.000  N
  N63      1.0000 0.45680  0.84660  0.54990  Biso   1.000  N
  N64      1.0000 0.04320  0.15340  0.04990  Biso   1.000  N
  N65      1.0000 0.46040  0.58520  0.65000  Biso   1.000  N
  N66      1.0000 0.03960  0.41480  0.15000  Biso   1.000  N
  N67      1.0000 0.53960  0.08520  0.35000  Biso   1.000  N
  N68      1.0000 0.96040  0.91480  0.85000  Biso   1.000  N
  N69      1.0000 0.53960  0.41480  0.35000  Biso   1.000  N
  N70      1.0000 0.96040  0.58520  0.85000  Biso   1.000  N
  N71      1.0000 0.46040  0.91480  0.65000  Biso   1.000  N
  N72      1.0000 0.03960  0.08520  0.15000  Biso   1.000  N
  C1       1.0000 0.37860  0.40260  0.66770  Biso   1.000  C
  C2       1.0000 0.12140  0.59740  0.16770  Biso   1.000  C
  C3       1.0000 0.62140  0.90260  0.33230  Biso   1.000  C
  C4       1.0000 0.87860  0.09740  0.83230  Biso   1.000  C
  C5       1.0000 0.62140  0.59740  0.33230  Biso   1.000  C
  C6       1.0000 0.87860  0.40260  0.83230  Biso   1.000  C
  C7       1.0000 0.37860  0.09740  0.66770  Biso   1.000  C
  C8       1.0000 0.12140  0.90260  0.16770  Biso   1.000  C
  H1       1.0000 0.33730  0.43420  0.68800  Biso   1.000  H
  H2       1.0000 0.16270  0.56580  0.18800  Biso   1.000  H
  H3       1.0000 0.66270  0.93420  0.31200  Biso   1.000  H
  H4       1.0000 0.83730  0.06580  0.81200  Biso   1.000  H
  H5       1.0000 0.66270  0.56580  0.31200  Biso   1.000  H
  H6       1.0000 0.83730  0.43420  0.81200  Biso   1.000  H
  H7       1.0000 0.33730  0.06580  0.68800  Biso   1.000  H
  H8       1.0000 0.16270  0.93420  0.18800  Biso   1.000  H
  C9       1.0000 0.50030  0.35880  0.63790  Biso   1.000  C
  C10      1.0000 0.99970  0.64120  0.13790  Biso   1.000  C
  C11      1.0000 0.49970  0.85880  0.36210  Biso   1.000  C
  C12      1.0000 0.00030  0.14120  0.86210  Biso   1.000  C
  C13      1.0000 0.49970  0.64120  0.36210  Biso   1.000  C
  C14      1.0000 0.00030  0.35880  0.86210  Biso   1.000  C
  C15      1.0000 0.50030  0.14120  0.63790  Biso   1.000  C
  C16      1.0000 0.99970  0.85880  0.13790  Biso   1.000  C
  H9       1.0000 0.56010  0.35060  0.63210  Biso   1.000  H
  H10      1.0000 0.93990  0.64940  0.13210  Biso   1.000  H
  H11      1.0000 0.43990  0.85060  0.36790  Biso   1.000  H
  H12      1.0000 0.06010  0.14940  0.86790  Biso   1.000  H
  H13      1.0000 0.43990  0.64940  0.36790  Biso   1.000  H
  H14      1.0000 0.06010  0.35060  0.86790  Biso   1.000  H
  H15      1.0000 0.56010  0.14940  0.63210  Biso   1.000  H
  H16      1.0000 0.93990  0.85060  0.13210  Biso   1.000  H
  C17      1.0000 0.44500  0.25000  0.56740  Biso   1.000  C
  C18      1.0000 0.05500  0.75000  0.06740  Biso   1.000  C
  C19      1.0000 0.55500  0.75000  0.43260  Biso   1.000  C
  C20      1.0000 0.94500  0.25000  0.93260  Biso   1.000  C
  H17      1.0000 0.50100  0.25000  0.54340  Biso   1.000  H
  H18      1.0000 0.99900  0.75000  0.04340  Biso   1.000  H
  H19      1.0000 0.49900  0.75000  0.45660  Biso   1.000  H
  H20      1.0000 0.00100  0.25000  0.95660  Biso   1.000  H
  H21      1.0000 0.39920  0.25000  0.53210  Biso   1.000  H
  H22      1.0000 0.10080  0.75000  0.03210  Biso   1.000  H
  H23      1.0000 0.60080  0.75000  0.46790  Biso   1.000  H
  H24      1.0000 0.89920  0.25000  0.96790  Biso   1.000  H
  C21      1.0000 0.49070  0.59530  0.58360  Biso   1.000  C
  C22      1.0000 0.00930  0.40470  0.08360  Biso   1.000  C
  C23      1.0000 0.50930  0.09530  0.41640  Biso   1.000  C
  C24      1.0000 0.99070  0.90470  0.91640  Biso   1.000  C
  C25      1.0000 0.50930  0.40470  0.41640  Biso   1.000  C
  C26      1.0000 0.99070  0.59530  0.91640  Biso   1.000  C
  C27      1.0000 0.49070  0.90470  0.58360  Biso   1.000  C
  C28      1.0000 0.00930  0.09530  0.08360  Biso   1.000  C
  H25      1.0000 0.53220  0.56370  0.56340  Biso   1.000  H
  H26      1.0000 0.96780  0.43630  0.06340  Biso   1.000  H
  H27      1.0000 0.46780  0.06370  0.43660  Biso   1.000  H
  H28      1.0000 0.03220  0.93630  0.93660  Biso   1.000  H
  H29      1.0000 0.46780  0.43630  0.43660  Biso   1.000  H
  H30      1.0000 0.03220  0.56370  0.93660  Biso   1.000  H
  H31      1.0000 0.53220  0.93630  0.56340  Biso   1.000  H
  H32      1.0000 0.96780  0.06370  0.06340  Biso   1.000  H
  C29      1.0000 0.40360  0.64110  0.65700  Biso   1.000  C
  C30      1.0000 0.09640  0.35890  0.15700  Biso   1.000  C
  C31      1.0000 0.59640  0.14110  0.34300  Biso   1.000  C
  C32      1.0000 0.90360  0.85890  0.84300  Biso   1.000  C
  C33      1.0000 0.59640  0.35890  0.34300  Biso   1.000  C
  C34      1.0000 0.90360  0.64110  0.84300  Biso   1.000  C
  C35      1.0000 0.40360  0.85890  0.65700  Biso   1.000  C
  C36      1.0000 0.09640  0.14110  0.15700  Biso   1.000  C
  H33      1.0000 0.37060  0.65010  0.69710  Biso   1.000  H
  H34      1.0000 0.12940  0.34990  0.19710  Biso   1.000  H
  H35      1.0000 0.62940  0.15010  0.30290  Biso   1.000  H
  H36      1.0000 0.87060  0.84990  0.80290  Biso   1.000  H
  H37      1.0000 0.62940  0.34990  0.30290  Biso   1.000  H
  H38      1.0000 0.87060  0.65010  0.80290  Biso   1.000  H
  H39      1.0000 0.37060  0.84990  0.69710  Biso   1.000  H
  H40      1.0000 0.12940  0.15010  0.19710  Biso   1.000  H
  C37      1.0000 0.34920  0.75000  0.58480  Biso   1.000  C
  C38      1.0000 0.15080  0.25000  0.08480  Biso   1.000  C
  C39      1.0000 0.65080  0.25000  0.41520  Biso   1.000  C
  C40      1.0000 0.84920  0.75000  0.91520  Biso   1.000  C
  H41      1.0000 0.33070  0.75000  0.53610  Biso   1.000  H
  H42      1.0000 0.16930  0.25000  0.03610  Biso   1.000  H
  H43      1.0000 0.66930  0.25000  0.46390  Biso   1.000  H
  H44      1.0000 0.83070  0.75000  0.96390  Biso   1.000  H
  H45      1.0000 0.29710  0.75000  0.61400  Biso   1.000  H
  H46      1.0000 0.20290  0.25000  0.11400  Biso   1.000  H
  H47      1.0000 0.70290  0.25000  0.38600  Biso   1.000  H
  H48      1.0000 0.79710  0.75000  0.88600  Biso   1.000  H
  C41      1.0000 0.66780  0.59770  0.79080  Biso   1.000  C
  C42      1.0000 0.83220  0.40230  0.29080  Biso   1.000  C
  C43      1.0000 0.33220  0.09770  0.20920  Biso   1.000  C
  C44      1.0000 0.16780  0.90230  0.70920  Biso   1.000  C
  C45      1.0000 0.33220  0.40230  0.20920  Biso   1.000  C
  C46      1.0000 0.16780  0.59770  0.70920  Biso   1.000  C
  C47      1.0000 0.66780  0.90230  0.79080  Biso   1.000  C
  C48      1.0000 0.83220  0.09770  0.29080  Biso   1.000  C
  H49      1.0000 0.71290  0.56850  0.77240  Biso   1.000  H
  H50      1.0000 0.78710  0.43150  0.27240  Biso   1.000  H
  H51      1.0000 0.28710  0.06850  0.22760  Biso   1.000  H
  H52      1.0000 0.21290  0.93150  0.72760  Biso   1.000  H
  H53      1.0000 0.28710  0.43150  0.22760  Biso   1.000  H
  H54      1.0000 0.21290  0.56850  0.72760  Biso   1.000  H
  H55      1.0000 0.71290  0.93150  0.77240  Biso   1.000  H
  H56      1.0000 0.78710  0.06850  0.27240  Biso   1.000  H
  C49      1.0000 0.54000  0.63510  0.81420  Biso   1.000  C
  C50      1.0000 0.96000  0.36490  0.31420  Biso   1.000  C
  C51      1.0000 0.46000  0.13510  0.18580  Biso   1.000  C
  C52      1.0000 0.04000  0.86490  0.68580  Biso   1.000  C
  C53      1.0000 0.46000  0.36490  0.18580  Biso   1.000  C
  C54      1.0000 0.04000  0.63510  0.68580  Biso   1.000  C
  C55      1.0000 0.54000  0.86490  0.81420  Biso   1.000  C
  C56      1.0000 0.96000  0.13510  0.31420  Biso   1.000  C
  H57      1.0000 0.47950  0.64010  0.81710  Biso   1.000  H
  H58      1.0000 0.02050  0.35990  0.31710  Biso   1.000  H
  H59      1.0000 0.52050  0.14010  0.18290  Biso   1.000  H
  H60      1.0000 0.97950  0.85990  0.68290  Biso   1.000  H
  H61      1.0000 0.52050  0.35990  0.18290  Biso   1.000  H
  H62      1.0000 0.97950  0.64010  0.68290  Biso   1.000  H
  H63      1.0000 0.47950  0.85990  0.81710  Biso   1.000  H
  H64      1.0000 0.02050  0.14010  0.31710  Biso   1.000  H
  C57      1.0000 0.58330  0.75000  0.88300  Biso   1.000  C
  C58      1.0000 0.91670  0.25000  0.38300  Biso   1.000  C
  C59      1.0000 0.41670  0.25000  0.11700  Biso   1.000  C
  C60      1.0000 0.08330  0.75000  0.61700  Biso   1.000  C
  H65      1.0000 0.52330  0.75000  0.89960  Biso   1.000  H
  H66      1.0000 0.97670  0.25000  0.39960  Biso   1.000  H
  H67      1.0000 0.47670  0.25000  0.10040  Biso   1.000  H
  H68      1.0000 0.02330  0.75000  0.60040  Biso   1.000  H
  H69      1.0000 0.62150  0.75000  0.92370  Biso   1.000  H
  H70      1.0000 0.87850  0.25000  0.42370  Biso   1.000  H
  H71      1.0000 0.37850  0.25000  0.07630  Biso   1.000  H
  H72      1.0000 0.12150  0.75000  0.57630  Biso   1.000  H
  C61      1.0000 0.25020  0.46390  0.89640  Biso   1.000  C
  C62      1.0000 0.24980  0.53610  0.39640  Biso   1.000  C
  C63      1.0000 0.74980  0.96390  0.10360  Biso   1.000  C
  C64      1.0000 0.75020  0.03610  0.60360  Biso   1.000  C
  C65      1.0000 0.74980  0.53610  0.10360  Biso   1.000  C
  C66      1.0000 0.75020  0.46390  0.60360  Biso   1.000  C
  C67      1.0000 0.25020  0.03610  0.89640  Biso   1.000  C
  C68      1.0000 0.24980  0.96390  0.39640  Biso   1.000  C
  C69      1.0000 0.21450  0.45060  0.96320  Biso   1.000  C
  C70      1.0000 0.28550  0.54940  0.46320  Biso   1.000  C
  C71      1.0000 0.78550  0.95060  0.03680  Biso   1.000  C
  C72      1.0000 0.71450  0.04940  0.53680  Biso   1.000  C
  C73      1.0000 0.78550  0.54940  0.03680  Biso   1.000  C
  C74      1.0000 0.71450  0.45060  0.53680  Biso   1.000  C
  C75      1.0000 0.21450  0.04940  0.96320  Biso   1.000  C
  C76      1.0000 0.28550  0.95060  0.46320  Biso   1.000  C
  H73      1.0000 0.15450  0.44300  0.96750  Biso   1.000  H
  H74      1.0000 0.34550  0.55700  0.46750  Biso   1.000  H
  H75      1.0000 0.84550  0.94300  0.03250  Biso   1.000  H
  H76      1.0000 0.65450  0.05700  0.53250  Biso   1.000  H
  H77      1.0000 0.84550  0.55700  0.03250  Biso   1.000  H
  H78      1.0000 0.65450  0.44300  0.53250  Biso   1.000  H
  H79      1.0000 0.15450  0.05700  0.96750  Biso   1.000  H
  H80      1.0000 0.34550  0.94300  0.46750  Biso   1.000  H
  C77      1.0000 0.26600  0.44860  0.02260  Biso   1.000  C
  C78      1.0000 0.23400  0.55140  0.52260  Biso   1.000  C
  C79      1.0000 0.73400  0.94860  0.97740  Biso   1.000  C
  C80      1.0000 0.76600  0.05140  0.47740  Biso   1.000  C
  C81      1.0000 0.73400  0.55140  0.97740  Biso   1.000  C
  C82      1.0000 0.76600  0.44860  0.47740  Biso   1.000  C
  C83      1.0000 0.26600  0.05140  0.02260  Biso   1.000  C
  C84      1.0000 0.23400  0.94860  0.52260  Biso   1.000  C
  H81      1.0000 0.24110  0.43880  0.06630  Biso   1.000  H
  H82      1.0000 0.25890  0.56120  0.56630  Biso   1.000  H
  H83      1.0000 0.75890  0.93880  0.93370  Biso   1.000  H
  H84      1.0000 0.74110  0.06120  0.43370  Biso   1.000  H
  H85      1.0000 0.75890  0.56120  0.93370  Biso   1.000  H
  H86      1.0000 0.74110  0.43880  0.43370  Biso   1.000  H
  H87      1.0000 0.24110  0.06120  0.06630  Biso   1.000  H
  H88      1.0000 0.25890  0.93880  0.56630  Biso   1.000  H
  C85      1.0000 0.35480  0.46110  0.01690  Biso   1.000  C
  C86      1.0000 0.14520  0.53890  0.51690  Biso   1.000  C
  C87      1.0000 0.64520  0.96110  0.98310  Biso   1.000  C
  C88      1.0000 0.85480  0.03890  0.48310  Biso   1.000  C
  C89      1.0000 0.64520  0.53890  0.98310  Biso   1.000  C
  C90      1.0000 0.85480  0.46110  0.48310  Biso   1.000  C
  C91      1.0000 0.35480  0.03890  0.01690  Biso   1.000  C
  C92      1.0000 0.14520  0.96110  0.51690  Biso   1.000  C
  H89      1.0000 0.39000  0.46080  0.05670  Biso   1.000  H
  H90      1.0000 0.11000  0.53920  0.55670  Biso   1.000  H
  H91      1.0000 0.61000  0.96080  0.94330  Biso   1.000  H
  H92      1.0000 0.89000  0.03920  0.44330  Biso   1.000  H
  H93      1.0000 0.61000  0.53920  0.94330  Biso   1.000  H
  H94      1.0000 0.89000  0.46080  0.44330  Biso   1.000  H
  H95      1.0000 0.39000  0.03920  0.05670  Biso   1.000  H
  H96      1.0000 0.11000  0.96080  0.55670  Biso   1.000  H
  C93      1.0000 0.39140  0.47430  0.95120  Biso   1.000  C
  C94      1.0000 0.10860  0.52570  0.45120  Biso   1.000  C
  C95      1.0000 0.60860  0.97430  0.04880  Biso   1.000  C
  C96      1.0000 0.89140  0.02570  0.54880  Biso   1.000  C
  C97      1.0000 0.60860  0.52570  0.04880  Biso   1.000  C
  C98      1.0000 0.89140  0.47430  0.54880  Biso   1.000  C
  C99      1.0000 0.39140  0.02570  0.95120  Biso   1.000  C
  C100     1.0000 0.10860  0.97430  0.45120  Biso   1.000  C
  H97      1.0000 0.45150  0.48180  0.94770  Biso   1.000  H
  H98      1.0000 0.04850  0.51820  0.44770  Biso   1.000  H
  H99      1.0000 0.54850  0.98180  0.05230  Biso   1.000  H
  H100     1.0000 0.95150  0.01820  0.55230  Biso   1.000  H
  H101     1.0000 0.54850  0.51820  0.05230  Biso   1.000  H
  H102     1.0000 0.95150  0.48180  0.55230  Biso   1.000  H
  H103     1.0000 0.45150  0.01820  0.94770  Biso   1.000  H
  H104     1.0000 0.04850  0.98180  0.44770  Biso   1.000  H
  C101     1.0000 0.34130  0.47660  0.89120  Biso   1.000  C
  C102     1.0000 0.15870  0.52340  0.39120  Biso   1.000  C
  C103     1.0000 0.65870  0.97660  0.10880  Biso   1.000  C
  C104     1.0000 0.84130  0.02340  0.60880  Biso   1.000  C
  C105     1.0000 0.65870  0.52340  0.10880  Biso   1.000  C
  C106     1.0000 0.84130  0.47660  0.60880  Biso   1.000  C
  C107     1.0000 0.34130  0.02340  0.89120  Biso   1.000  C
  C108     1.0000 0.15870  0.97660  0.39120  Biso   1.000  C
  C109     1.0000 0.38260  0.50020  0.82310  Biso   1.000  C
  C110     1.0000 0.11740  0.49980  0.32310  Biso   1.000  C
  C111     1.0000 0.61740  0.00020  0.17690  Biso   1.000  C
  C112     1.0000 0.88260  0.99980  0.67690  Biso   1.000  C
  C113     1.0000 0.61740  0.49980  0.17690  Biso   1.000  C
  C114     1.0000 0.88260  0.50020  0.67690  Biso   1.000  C
  C115     1.0000 0.38260  0.99980  0.82310  Biso   1.000  C
  C116     1.0000 0.11740  0.00020  0.32310  Biso   1.000  C
  C117     1.0000 0.19030  0.46110  0.83420  Biso   1.000  C
  C118     1.0000 0.30970  0.53890  0.33420  Biso   1.000  C
  C119     1.0000 0.80970  0.96110  0.16580  Biso   1.000  C
  C120     1.0000 0.69030  0.03890  0.66580  Biso   1.000  C
  C121     1.0000 0.80970  0.53890  0.16580  Biso   1.000  C
  C122     1.0000 0.69030  0.46110  0.66580  Biso   1.000  C
  C123     1.0000 0.19030  0.03890  0.83420  Biso   1.000  C
  C124     1.0000 0.30970  0.96110  0.33420  Biso   1.000  C
  O33      1.0000 0.66260  0.25000  0.59730  Biso   1.000  O
  O34      1.0000 0.83740  0.75000  0.09730  Biso   1.000  O
  O35      1.0000 0.33740  0.75000  0.40270  Biso   1.000  O
  O36      1.0000 0.16260  0.25000  0.90270  Biso   1.000  O
  N73      1.0000 0.80370  0.25000  0.63890  Biso   1.000  N
  N74      1.0000 0.69630  0.75000  0.13890  Biso   1.000  N
  N75      1.0000 0.19630  0.75000  0.36110  Biso   1.000  N
  N76      1.0000 0.30370  0.25000  0.86110  Biso   1.000  N
  C125     1.0000 0.83630  0.25000  0.57040  Biso   1.000  C
  C126     1.0000 0.66370  0.75000  0.07040  Biso   1.000  C
  C127     1.0000 0.16370  0.75000  0.42960  Biso   1.000  C
  C128     1.0000 0.33630  0.25000  0.92960  Biso   1.000  C
  H105     1.0000 0.87210  0.29380  0.56340  Biso   1.000  H
  H106     1.0000 0.62790  0.70620  0.06340  Biso   1.000  H
  H107     1.0000 0.12790  0.79380  0.43660  Biso   1.000  H
  H108     1.0000 0.37210  0.20620  0.93660  Biso   1.000  H
  H109     1.0000 0.12790  0.70620  0.43660  Biso   1.000  H
  H110     1.0000 0.37210  0.29380  0.93660  Biso   1.000  H
  H111     1.0000 0.87210  0.20620  0.56340  Biso   1.000  H
  H112     1.0000 0.62790  0.79380  0.06340  Biso   1.000  H
  H113     1.0000 0.78840  0.25000  0.53770  Biso   1.000  H
  H114     1.0000 0.71160  0.75000  0.03770  Biso   1.000  H
  H115     1.0000 0.21160  0.75000  0.46230  Biso   1.000  H
  H116     1.0000 0.28840  0.25000  0.96230  Biso   1.000  H
  C129     1.0000 0.71930  0.25000  0.64740  Biso   1.000  C
  C130     1.0000 0.78070  0.75000  0.14740  Biso   1.000  C
  C131     1.0000 0.28070  0.75000  0.35260  Biso   1.000  C
  C132     1.0000 0.21930  0.25000  0.85260  Biso   1.000  C
  H117     1.0000 0.69820  0.25000  0.69320  Biso   1.000  H
  H118     1.0000 0.80180  0.75000  0.19320  Biso   1.000  H
  H119     1.0000 0.30180  0.75000  0.30680  Biso   1.000  H
  H120     1.0000 0.19820  0.25000  0.80680  Biso   1.000  H
  C133     1.0000 0.86270  0.25000  0.69650  Biso   1.000  C
  C134     1.0000 0.63730  0.75000  0.19650  Biso   1.000  C
  C135     1.0000 0.13730  0.75000  0.30350  Biso   1.000  C
  C136     1.0000 0.36270  0.25000  0.80350  Biso   1.000  C
  H121     1.0000 0.89800  0.20530  0.69510  Biso   1.000  H
  H122     1.0000 0.60200  0.79470  0.19510  Biso   1.000  H
  H123     1.0000 0.10200  0.70530  0.30490  Biso   1.000  H
  H124     1.0000 0.39800  0.29470  0.80490  Biso   1.000  H
  H125     1.0000 0.10200  0.79470  0.30490  Biso   1.000  H
  H126     1.0000 0.39800  0.20530  0.80490  Biso   1.000  H
  H127     1.0000 0.89800  0.29470  0.69510  Biso   1.000  H
  H128     1.0000 0.60200  0.70530  0.19510  Biso   1.000  H
  H129     1.0000 0.83020  0.25000  0.73970  Biso   1.000  H
  H130     1.0000 0.66980  0.75000  0.23970  Biso   1.000  H
  H131     1.0000 0.16980  0.75000  0.26030  Biso   1.000  H
  H132     1.0000 0.33020  0.25000  0.76030  Biso   1.000  H
  N77      1.0000 0.74080  0.75000  0.63530  Biso   1.000  N
  N78      1.0000 0.75920  0.25000  0.13530  Biso   1.000  N
  N79      1.0000 0.25920  0.25000  0.36470  Biso   1.000  N
  N80      1.0000 0.24080  0.75000  0.86470  Biso   1.000  N
  O37      1.0000 0.87460  0.75000  0.68940  Biso   1.000  O
  O38      1.0000 0.62540  0.25000  0.18940  Biso   1.000  O
  O39      1.0000 0.12540  0.25000  0.31060  Biso   1.000  O
  O40      1.0000 0.37460  0.75000  0.81060  Biso   1.000  O
  C137     1.0000 0.80580  0.77910  0.66950  Biso   1.000  C
  C138     1.0000 0.69420  0.22090  0.16950  Biso   1.000  C
  C139     1.0000 0.19420  0.27910  0.33050  Biso   1.000  C
  C140     1.0000 0.30580  0.72090  0.83050  Biso   1.000  C
  C141     1.0000 0.19420  0.22090  0.33050  Biso   1.000  C
  C142     1.0000 0.30580  0.77910  0.83050  Biso   1.000  C
  C143     1.0000 0.80580  0.72090  0.66950  Biso   1.000  C
  C144     1.0000 0.69420  0.27910  0.16950  Biso   1.000  C
  C145     1.0000 0.65850  0.79020  0.62300  Biso   1.000  C
  C146     1.0000 0.84150  0.20980  0.12300  Biso   1.000  C
  C147     1.0000 0.34150  0.29020  0.37700  Biso   1.000  C
  C148     1.0000 0.15850  0.70980  0.87700  Biso   1.000  C
  C149     1.0000 0.34150  0.20980  0.37700  Biso   1.000  C
  C150     1.0000 0.15850  0.79020  0.87700  Biso   1.000  C
  C151     1.0000 0.65850  0.70980  0.62300  Biso   1.000  C
  C152     1.0000 0.84150  0.29020  0.12300  Biso   1.000  C
  C153     1.0000 0.74220  0.67200  0.60800  Biso   1.000  C
  C154     1.0000 0.75780  0.32800  0.10800  Biso   1.000  C
  C155     1.0000 0.25780  0.17200  0.39200  Biso   1.000  C
  C156     1.0000 0.24220  0.82800  0.89200  Biso   1.000  C
  C157     1.0000 0.25780  0.32800  0.39200  Biso   1.000  C
  C158     1.0000 0.24220  0.67200  0.89200  Biso   1.000  C
  C159     1.0000 0.74220  0.82800  0.60800  Biso   1.000  C
  C160     1.0000 0.75780  0.17200  0.10800  Biso   1.000  C
  O41      1.0000 0.60260  0.25000  0.90250  Biso   1.000  O
  O42      1.0000 0.89740  0.75000  0.40250  Biso   1.000  O
  O43      1.0000 0.39740  0.75000  0.09750  Biso   1.000  O
  O44      1.0000 0.10260  0.25000  0.59750  Biso   1.000  O
  H133     1.0000 0.87090  0.20560  0.56300  Biso   1.000  H
  H134     1.0000 0.62910  0.79440  0.06300  Biso   1.000  H
  H135     1.0000 0.12910  0.70560  0.43700  Biso   1.000  H
  H136     1.0000 0.37090  0.29440  0.93700  Biso   1.000  H
  H137     1.0000 0.12910  0.79440  0.43700  Biso   1.000  H
  H138     1.0000 0.37090  0.20560  0.93700  Biso   1.000  H
  H139     1.0000 0.87090  0.29440  0.56300  Biso   1.000  H
  H140     1.0000 0.62910  0.70560  0.06300  Biso   1.000  H
  H141     1.0000 0.89980  0.20650  0.69380  Biso   1.000  H
  H142     1.0000 0.60020  0.79350  0.19380  Biso   1.000  H
  H143     1.0000 0.10020  0.70650  0.30620  Biso   1.000  H
  H144     1.0000 0.39980  0.29350  0.80620  Biso   1.000  H
  H145     1.0000 0.10020  0.79350  0.30620  Biso   1.000  H
  H146     1.0000 0.39980  0.20650  0.80620  Biso   1.000  H
  H147     1.0000 0.89980  0.29350  0.69380  Biso   1.000  H
  H148     1.0000 0.60020  0.70650  0.19380  Biso   1.000  H
  O45      1.0000 0.58500  0.17800  0.94500  Biso   1.000  O
  O46      1.0000 0.91500  0.82200  0.44500  Biso   1.000  O
  O47      1.0000 0.41500  0.67800  0.05500  Biso   1.000  O
  O48      1.0000 0.08500  0.32200  0.55500  Biso   1.000  O
  O49      1.0000 0.41500  0.82200  0.05500  Biso   1.000  O
  O50      1.0000 0.08500  0.17800  0.55500  Biso   1.000  O
  O51      1.0000 0.58500  0.32200  0.94500  Biso   1.000  O
  O52      1.0000 0.91500  0.67800  0.44500  Biso   1.000  O
  O53      1.0000 0.54920  0.19800  0.01560  Biso   1.000  O
  O54      1.0000 0.95080  0.80200  0.51560  Biso   1.000  O
  O55      1.0000 0.45080  0.69800  0.98440  Biso   1.000  O
  O56      1.0000 0.04920  0.30200  0.48440  Biso   1.000  O
  O57      1.0000 0.45080  0.80200  0.98440  Biso   1.000  O
  O58      1.0000 0.04920  0.19800  0.48440  Biso   1.000  O
  O59      1.0000 0.54920  0.30200  0.01560  Biso   1.000  O
  O60      1.0000 0.95080  0.69800  0.51560  Biso   1.000  O
