data_image0
_cell_length_a       19.3144
_cell_length_b       9.945
_cell_length_c       18.8722
_cell_angle_alpha    90
_cell_angle_beta     98.876
_cell_angle_gamma    90

_symmetry_space_group_name_H-M    "P 1"
_symmetry_int_tables_number       1

loop_
  _symmetry_equiv_pos_as_xyz
  'x, y, z'

loop_
  _atom_site_label
  _atom_site_occupancy
  _atom_site_fract_x
  _atom_site_fract_y
  _atom_site_fract_z
  _atom_site_thermal_displace_type
  _atom_site_B_iso_or_equiv
  _atom_site_type_symbol
  Cl1      1.0000 0.40159  0.18870  0.92446  Biso   1.000  Cl
  Cl2      1.0000 0.59841  0.18870  0.57554  Biso   1.000  Cl
  Cl3      1.0000 0.90159  0.68870  0.92446  Biso   1.000  Cl
  Cl4      1.0000 0.09841  0.68870  0.57554  Biso   1.000  Cl
  Cl5      1.0000 0.59841  0.81130  0.07554  Biso   1.000  Cl
  Cl6      1.0000 0.40159  0.81130  0.42446  Biso   1.000  Cl
  Cl7      1.0000 0.09841  0.31130  0.07554  Biso   1.000  Cl
  Cl8      1.0000 0.90159  0.31130  0.42446  Biso   1.000  Cl
  O1       1.0000 0.38420  0.32660  0.92490  Biso   1.000  O
  O2       1.0000 0.61580  0.32660  0.57510  Biso   1.000  O
  O3       1.0000 0.88420  0.82660  0.92490  Biso   1.000  O
  O4       1.0000 0.11580  0.82660  0.57510  Biso   1.000  O
  O5       1.0000 0.61580  0.67340  0.07510  Biso   1.000  O
  O6       1.0000 0.38420  0.67340  0.42490  Biso   1.000  O
  O7       1.0000 0.11580  0.17340  0.07510  Biso   1.000  O
  O8       1.0000 0.88420  0.17340  0.42490  Biso   1.000  O
  O9       1.0000 0.36260  0.13990  0.86200  Biso   1.000  O
  O10      1.0000 0.63740  0.13990  0.63800  Biso   1.000  O
  O11      1.0000 0.86260  0.63990  0.86200  Biso   1.000  O
  O12      1.0000 0.13740  0.63990  0.63800  Biso   1.000  O
  O13      1.0000 0.63740  0.86010  0.13800  Biso   1.000  O
  O14      1.0000 0.36260  0.86010  0.36200  Biso   1.000  O
  O15      1.0000 0.13740  0.36010  0.13800  Biso   1.000  O
  O16      1.0000 0.86260  0.36010  0.36200  Biso   1.000  O
  O17      1.0000 0.47180  0.16790  0.93820  Biso   1.000  O
  O18      1.0000 0.52820  0.16790  0.56180  Biso   1.000  O
  O19      1.0000 0.97180  0.66790  0.93820  Biso   1.000  O
  O20      1.0000 0.02820  0.66790  0.56180  Biso   1.000  O
  O21      1.0000 0.52820  0.83210  0.06180  Biso   1.000  O
  O22      1.0000 0.47180  0.83210  0.43820  Biso   1.000  O
  O23      1.0000 0.02820  0.33210  0.06180  Biso   1.000  O
  O24      1.0000 0.97180  0.33210  0.43820  Biso   1.000  O
  O25      1.0000 0.37200  0.13900  0.98380  Biso   1.000  O
  O26      1.0000 0.62800  0.13900  0.51620  Biso   1.000  O
  O27      1.0000 0.87200  0.63900  0.98380  Biso   1.000  O
  O28      1.0000 0.12800  0.63900  0.51620  Biso   1.000  O
  O29      1.0000 0.62800  0.86100  0.01620  Biso   1.000  O
  O30      1.0000 0.37200  0.86100  0.48380  Biso   1.000  O
  O31      1.0000 0.12800  0.36100  0.01620  Biso   1.000  O
  O32      1.0000 0.87200  0.36100  0.48380  Biso   1.000  O
  Cu1      1.0000 0.25000  0.75000  0.00000  Biso   1.000  Cu
  Cu2      1.0000 0.75000  0.75000  0.50000  Biso   1.000  Cu
  Cu3      1.0000 0.75000  0.25000  0.00000  Biso   1.000  Cu
  Cu4      1.0000 0.25000  0.25000  0.50000  Biso   1.000  Cu
  S1       1.0000 0.08084  0.55900  0.83813  Biso   1.000  S
  S2       1.0000 0.91916  0.55900  0.66187  Biso   1.000  S
  S3       1.0000 0.58084  0.05900  0.83813  Biso   1.000  S
  S4       1.0000 0.41916  0.05900  0.66187  Biso   1.000  S
  S5       1.0000 0.91916  0.44100  0.16187  Biso   1.000  S
  S6       1.0000 0.08084  0.44100  0.33813  Biso   1.000  S
  S7       1.0000 0.41916  0.94100  0.16187  Biso   1.000  S
  S8       1.0000 0.58084  0.94100  0.33813  Biso   1.000  S
  S9       1.0000 0.17979  0.39429  0.76445  Biso   1.000  S
  S10      1.0000 0.82021  0.39429  0.73555  Biso   1.000  S
  S11      1.0000 0.67979  0.89429  0.76445  Biso   1.000  S
  S12      1.0000 0.32021  0.89429  0.73555  Biso   1.000  S
  S13      1.0000 0.82021  0.60571  0.23555  Biso   1.000  S
  S14      1.0000 0.17979  0.60571  0.26445  Biso   1.000  S
  S15      1.0000 0.32021  0.10571  0.23555  Biso   1.000  S
  S16      1.0000 0.67979  0.10571  0.26445  Biso   1.000  S
  S17      1.0000 0.31212  0.55101  0.75347  Biso   1.000  S
  S18      1.0000 0.68788  0.55101  0.74653  Biso   1.000  S
  S19      1.0000 0.81212  0.05101  0.75347  Biso   1.000  S
  S20      1.0000 0.18788  0.05101  0.74653  Biso   1.000  S
  S21      1.0000 0.68788  0.44899  0.24653  Biso   1.000  S
  S22      1.0000 0.31212  0.44899  0.25347  Biso   1.000  S
  S23      1.0000 0.18788  0.94899  0.24653  Biso   1.000  S
  S24      1.0000 0.81212  0.94899  0.25347  Biso   1.000  S
  S25      1.0000 0.32360  0.64544  0.60231  Biso   1.000  S
  S26      1.0000 0.67640  0.64544  0.89769  Biso   1.000  S
  S27      1.0000 0.82360  0.14544  0.60231  Biso   1.000  S
  S28      1.0000 0.17640  0.14544  0.89769  Biso   1.000  S
  S29      1.0000 0.67640  0.35456  0.39769  Biso   1.000  S
  S30      1.0000 0.32360  0.35456  0.10231  Biso   1.000  S
  S31      1.0000 0.17640  0.85456  0.39769  Biso   1.000  S
  S32      1.0000 0.82360  0.85456  0.10231  Biso   1.000  S
  N1       1.0000 0.18440  0.64110  0.92552  Biso   1.000  N
  N2       1.0000 0.81560  0.64110  0.57448  Biso   1.000  N
  N3       1.0000 0.68440  0.14110  0.92552  Biso   1.000  N
  N4       1.0000 0.31560  0.14110  0.57448  Biso   1.000  N
  N5       1.0000 0.81560  0.35890  0.07448  Biso   1.000  N
  N6       1.0000 0.18440  0.35890  0.42552  Biso   1.000  N
  N7       1.0000 0.31560  0.85890  0.07448  Biso   1.000  N
  N8       1.0000 0.68440  0.85890  0.42552  Biso   1.000  N
  N9       1.0000 0.21280  0.55560  0.87981  Biso   1.000  N
  N10      1.0000 0.78720  0.55560  0.62019  Biso   1.000  N
  N11      1.0000 0.71280  0.05560  0.87981  Biso   1.000  N
  N12      1.0000 0.28720  0.05560  0.62019  Biso   1.000  N
  N13      1.0000 0.78720  0.44440  0.12019  Biso   1.000  N
  N14      1.0000 0.21280  0.44440  0.37981  Biso   1.000  N
  N15      1.0000 0.28720  0.94440  0.12019  Biso   1.000  N
  N16      1.0000 0.71280  0.94440  0.37981  Biso   1.000  N
  N17      1.0000 0.28070  0.41170  0.63064  Biso   1.000  N
  N18      1.0000 0.71930  0.41170  0.86936  Biso   1.000  N
  N19      1.0000 0.78070  0.91170  0.63064  Biso   1.000  N
  N20      1.0000 0.21930  0.91170  0.86936  Biso   1.000  N
  N21      1.0000 0.71930  0.58830  0.36936  Biso   1.000  N
  N22      1.0000 0.28070  0.58830  0.13064  Biso   1.000  N
  N23      1.0000 0.21930  0.08830  0.36936  Biso   1.000  N
  N24      1.0000 0.78070  0.08830  0.13064  Biso   1.000  N
  N25      1.0000 0.27920  0.41780  0.55734  Biso   1.000  N
  N26      1.0000 0.72080  0.41780  0.94266  Biso   1.000  N
  N27      1.0000 0.77920  0.91780  0.55734  Biso   1.000  N
  N28      1.0000 0.22080  0.91780  0.94266  Biso   1.000  N
  N29      1.0000 0.72080  0.58220  0.44266  Biso   1.000  N
  N30      1.0000 0.27920  0.58220  0.05734  Biso   1.000  N
  N31      1.0000 0.22080  0.08220  0.44266  Biso   1.000  N
  N32      1.0000 0.77920  0.08220  0.05734  Biso   1.000  N
  N33      1.0000 0.15340  0.77920  0.06410  Biso   1.000  N
  N34      1.0000 0.84660  0.77920  0.43590  Biso   1.000  N
  N35      1.0000 0.65340  0.27920  0.06410  Biso   1.000  N
  N36      1.0000 0.34660  0.27920  0.43590  Biso   1.000  N
  N37      1.0000 0.84660  0.22080  0.93590  Biso   1.000  N
  N38      1.0000 0.15340  0.22080  0.56410  Biso   1.000  N
  N39      1.0000 0.34660  0.72080  0.93590  Biso   1.000  N
  N40      1.0000 0.65340  0.72080  0.56410  Biso   1.000  N
  C1       1.0000 0.11790  0.65090  0.91010  Biso   1.000  C
  C2       1.0000 0.88210  0.65090  0.58990  Biso   1.000  C
  C3       1.0000 0.61790  0.15090  0.91010  Biso   1.000  C
  C4       1.0000 0.38210  0.15090  0.58990  Biso   1.000  C
  C5       1.0000 0.88210  0.34910  0.08990  Biso   1.000  C
  C6       1.0000 0.11790  0.34910  0.41010  Biso   1.000  C
  C7       1.0000 0.38210  0.84910  0.08990  Biso   1.000  C
  C8       1.0000 0.61790  0.84910  0.41010  Biso   1.000  C
  H1       1.0000 0.09160  0.70450  0.93630  Biso   1.000  H
  H2       1.0000 0.90840  0.70450  0.56370  Biso   1.000  H
  H3       1.0000 0.59160  0.20450  0.93630  Biso   1.000  H
  H4       1.0000 0.40840  0.20450  0.56370  Biso   1.000  H
  H5       1.0000 0.90840  0.29550  0.06370  Biso   1.000  H
  H6       1.0000 0.09160  0.29550  0.43630  Biso   1.000  H
  H7       1.0000 0.40840  0.79550  0.06370  Biso   1.000  H
  H8       1.0000 0.59160  0.79550  0.43630  Biso   1.000  H
  C9       1.0000 0.16440  0.50610  0.83150  Biso   1.000  C
  C10      1.0000 0.83560  0.50610  0.66850  Biso   1.000  C
  C11      1.0000 0.66440  0.00610  0.83150  Biso   1.000  C
  C12      1.0000 0.33560  0.00610  0.66850  Biso   1.000  C
  C13      1.0000 0.83560  0.49390  0.16850  Biso   1.000  C
  C14      1.0000 0.16440  0.49390  0.33150  Biso   1.000  C
  C15      1.0000 0.33560  0.99390  0.16850  Biso   1.000  C
  C16      1.0000 0.66440  0.99390  0.33150  Biso   1.000  C
  C17      1.0000 0.27350  0.39680  0.77990  Biso   1.000  C
  C18      1.0000 0.72650  0.39680  0.72010  Biso   1.000  C
  C19      1.0000 0.77350  0.89680  0.77990  Biso   1.000  C
  C20      1.0000 0.22650  0.89680  0.72010  Biso   1.000  C
  C21      1.0000 0.72650  0.60320  0.22010  Biso   1.000  C
  C22      1.0000 0.27350  0.60320  0.27990  Biso   1.000  C
  C23      1.0000 0.22650  0.10320  0.22010  Biso   1.000  C
  C24      1.0000 0.77350  0.10320  0.27990  Biso   1.000  C
  H9       1.0000 0.28950  0.38190  0.83060  Biso   1.000  H
  H10      1.0000 0.71050  0.38190  0.66940  Biso   1.000  H
  H11      1.0000 0.78950  0.88190  0.83060  Biso   1.000  H
  H12      1.0000 0.21050  0.88190  0.66940  Biso   1.000  H
  H13      1.0000 0.71050  0.61810  0.16940  Biso   1.000  H
  H14      1.0000 0.28950  0.61810  0.33060  Biso   1.000  H
  H15      1.0000 0.21050  0.11810  0.16940  Biso   1.000  H
  H16      1.0000 0.78950  0.11810  0.33060  Biso   1.000  H
  H17      1.0000 0.29050  0.32270  0.75390  Biso   1.000  H
  H18      1.0000 0.70950  0.32270  0.74610  Biso   1.000  H
  H19      1.0000 0.79050  0.82270  0.75390  Biso   1.000  H
  H20      1.0000 0.20950  0.82270  0.74610  Biso   1.000  H
  H21      1.0000 0.70950  0.67730  0.24610  Biso   1.000  H
  H22      1.0000 0.29050  0.67730  0.25390  Biso   1.000  H
  H23      1.0000 0.20950  0.17730  0.24610  Biso   1.000  H
  H24      1.0000 0.79050  0.17730  0.25390  Biso   1.000  H
  C25      1.0000 0.30260  0.52300  0.66080  Biso   1.000  C
  C26      1.0000 0.69740  0.52300  0.83920  Biso   1.000  C
  C27      1.0000 0.80260  0.02300  0.66080  Biso   1.000  C
  C28      1.0000 0.19740  0.02300  0.83920  Biso   1.000  C
  C29      1.0000 0.69740  0.47700  0.33920  Biso   1.000  C
  C30      1.0000 0.30260  0.47700  0.16080  Biso   1.000  C
  C31      1.0000 0.19740  0.97700  0.33920  Biso   1.000  C
  C32      1.0000 0.80260  0.97700  0.16080  Biso   1.000  C
  C33      1.0000 0.30040  0.53140  0.53580  Biso   1.000  C
  C34      1.0000 0.69960  0.53140  0.96420  Biso   1.000  C
  C35      1.0000 0.80040  0.03140  0.53580  Biso   1.000  C
  C36      1.0000 0.19960  0.03140  0.96420  Biso   1.000  C
  C37      1.0000 0.69960  0.46860  0.46420  Biso   1.000  C
  C38      1.0000 0.30040  0.46860  0.03580  Biso   1.000  C
  C39      1.0000 0.19960  0.96860  0.46420  Biso   1.000  C
  C40      1.0000 0.80040  0.96860  0.03580  Biso   1.000  C
  H25      1.0000 0.30270  0.54950  0.48790  Biso   1.000  H
  H26      1.0000 0.69730  0.54950  0.01210  Biso   1.000  H
  H27      1.0000 0.80270  0.04950  0.48790  Biso   1.000  H
  H28      1.0000 0.19730  0.04950  0.01210  Biso   1.000  H
  H29      1.0000 0.69730  0.45050  0.51210  Biso   1.000  H
  H30      1.0000 0.30270  0.45050  0.98790  Biso   1.000  H
  H31      1.0000 0.19730  0.95050  0.51210  Biso   1.000  H
  H32      1.0000 0.80270  0.95050  0.98790  Biso   1.000  H
  C41      1.0000 0.10500  0.74640  0.08520  Biso   1.000  C
  C42      1.0000 0.89500  0.74640  0.41480  Biso   1.000  C
  C43      1.0000 0.60500  0.24640  0.08520  Biso   1.000  C
  C44      1.0000 0.39500  0.24640  0.41480  Biso   1.000  C
  C45      1.0000 0.89500  0.25360  0.91480  Biso   1.000  C
  C46      1.0000 0.10500  0.25360  0.58520  Biso   1.000  C
  C47      1.0000 0.39500  0.75360  0.91480  Biso   1.000  C
  C48      1.0000 0.60500  0.75360  0.58520  Biso   1.000  C
  C49      1.0000 0.04000  0.69250  0.11120  Biso   1.000  C
  C50      1.0000 0.96000  0.69250  0.38880  Biso   1.000  C
  C51      1.0000 0.54000  0.19250  0.11120  Biso   1.000  C
  C52      1.0000 0.46000  0.19250  0.38880  Biso   1.000  C
  C53      1.0000 0.96000  0.30750  0.88880  Biso   1.000  C
  C54      1.0000 0.04000  0.30750  0.61120  Biso   1.000  C
  C55      1.0000 0.46000  0.80750  0.88880  Biso   1.000  C
  C56      1.0000 0.54000  0.80750  0.61120  Biso   1.000  C
  H33      1.0000 0.99940  0.73750  0.08650  Biso   1.000  H
  H34      1.0000 0.00060  0.73750  0.41350  Biso   1.000  H
  H35      1.0000 0.49940  0.23750  0.08650  Biso   1.000  H
  H36      1.0000 0.50060  0.23750  0.41350  Biso   1.000  H
  H37      1.0000 0.00060  0.26250  0.91350  Biso   1.000  H
  H38      1.0000 0.99940  0.26250  0.58650  Biso   1.000  H
  H39      1.0000 0.50060  0.76250  0.91350  Biso   1.000  H
  H40      1.0000 0.49940  0.76250  0.58650  Biso   1.000  H
  H41      1.0000 0.04340  0.70830  0.16180  Biso   1.000  H
  H42      1.0000 0.95660  0.70830  0.33820  Biso   1.000  H
  H43      1.0000 0.54340  0.20830  0.16180  Biso   1.000  H
  H44      1.0000 0.45660  0.20830  0.33820  Biso   1.000  H
  H45      1.0000 0.95660  0.29170  0.83820  Biso   1.000  H
  H46      1.0000 0.04340  0.29170  0.66180  Biso   1.000  H
  H47      1.0000 0.45660  0.79170  0.83820  Biso   1.000  H
  H48      1.0000 0.54340  0.79170  0.66180  Biso   1.000  H
  H49      1.0000 0.03610  0.59770  0.10190  Biso   1.000  H
  H50      1.0000 0.96390  0.59770  0.39810  Biso   1.000  H
  H51      1.0000 0.53610  0.09770  0.10190  Biso   1.000  H
  H52      1.0000 0.46390  0.09770  0.39810  Biso   1.000  H
  H53      1.0000 0.96390  0.40230  0.89810  Biso   1.000  H
  H54      1.0000 0.03610  0.40230  0.60190  Biso   1.000  H
  H55      1.0000 0.46390  0.90230  0.89810  Biso   1.000  H
  H56      1.0000 0.53610  0.90230  0.60190  Biso   1.000  H
  N41      1.0000 0.00000  0.82900  0.23140  Biso   1.000  N
  N42      1.0000 0.00000  0.82900  0.26860  Biso   1.000  N
  N43      1.0000 0.50000  0.32900  0.23140  Biso   1.000  N
  N44      1.0000 0.50000  0.32900  0.26860  Biso   1.000  N
  N45      1.0000 0.00000  0.17100  0.76860  Biso   1.000  N
  N46      1.0000 0.00000  0.17100  0.73140  Biso   1.000  N
  N47      1.0000 0.50000  0.67100  0.76860  Biso   1.000  N
  N48      1.0000 0.50000  0.67100  0.73140  Biso   1.000  N
  C57      1.0000 0.99700  0.94100  0.22840  Biso   1.000  C
  C58      1.0000 0.00300  0.94100  0.27160  Biso   1.000  C
  C59      1.0000 0.49700  0.44100  0.22840  Biso   1.000  C
  C60      1.0000 0.50300  0.44100  0.27160  Biso   1.000  C
  C61      1.0000 0.00300  0.05900  0.77160  Biso   1.000  C
  C62      1.0000 0.99700  0.05900  0.72840  Biso   1.000  C
  C63      1.0000 0.50300  0.55900  0.77160  Biso   1.000  C
  C64      1.0000 0.49700  0.55900  0.72840  Biso   1.000  C
  C65      1.0000 0.99300  0.09300  0.22420  Biso   1.000  C
  C66      1.0000 0.00700  0.09300  0.27580  Biso   1.000  C
  C67      1.0000 0.49300  0.59300  0.22420  Biso   1.000  C
  C68      1.0000 0.50700  0.59300  0.27580  Biso   1.000  C
  C69      1.0000 0.00700  0.90700  0.77580  Biso   1.000  C
  C70      1.0000 0.99300  0.90700  0.72420  Biso   1.000  C
  C71      1.0000 0.50700  0.40700  0.77580  Biso   1.000  C
  C72      1.0000 0.49300  0.40700  0.72420  Biso   1.000  C
  H57      1.0000 0.04000  0.12960  0.23000  Biso   1.000  H
  H58      1.0000 0.96000  0.12960  0.27000  Biso   1.000  H
  H59      1.0000 0.54000  0.62960  0.23000  Biso   1.000  H
  H60      1.0000 0.46000  0.62960  0.27000  Biso   1.000  H
  H61      1.0000 0.96000  0.87040  0.77000  Biso   1.000  H
  H62      1.0000 0.04000  0.87040  0.73000  Biso   1.000  H
  H63      1.0000 0.46000  0.37040  0.77000  Biso   1.000  H
  H64      1.0000 0.54000  0.37040  0.73000  Biso   1.000  H
  H65      1.0000 0.96960  0.12700  0.26170  Biso   1.000  H
  H66      1.0000 0.03040  0.12700  0.23830  Biso   1.000  H
  H67      1.0000 0.46960  0.62700  0.26170  Biso   1.000  H
  H68      1.0000 0.53040  0.62700  0.23830  Biso   1.000  H
  H69      1.0000 0.03040  0.87300  0.73830  Biso   1.000  H
  H70      1.0000 0.96960  0.87300  0.76170  Biso   1.000  H
  H71      1.0000 0.53040  0.37300  0.73830  Biso   1.000  H
  H72      1.0000 0.46960  0.37300  0.76170  Biso   1.000  H
  H73      1.0000 0.96820  0.11990  0.17850  Biso   1.000  H
  H74      1.0000 0.03180  0.11990  0.32150  Biso   1.000  H
  H75      1.0000 0.46820  0.61990  0.17850  Biso   1.000  H
  H76      1.0000 0.53180  0.61990  0.32150  Biso   1.000  H
  H77      1.0000 0.03180  0.88010  0.82150  Biso   1.000  H
  H78      1.0000 0.96820  0.88010  0.67850  Biso   1.000  H
  H79      1.0000 0.53180  0.38010  0.82150  Biso   1.000  H
  H80      1.0000 0.46820  0.38010  0.67850  Biso   1.000  H
  O33      1.0000 0.33330  0.21180  0.93250  Biso   1.000  O
  O34      1.0000 0.66670  0.21180  0.56750  Biso   1.000  O
  O35      1.0000 0.83330  0.71180  0.93250  Biso   1.000  O
  O36      1.0000 0.16670  0.71180  0.56750  Biso   1.000  O
  O37      1.0000 0.66670  0.78820  0.06750  Biso   1.000  O
  O38      1.0000 0.33330  0.78820  0.43250  Biso   1.000  O
  O39      1.0000 0.16670  0.28820  0.06750  Biso   1.000  O
  O40      1.0000 0.83330  0.28820  0.43250  Biso   1.000  O
  O41      1.0000 0.44000  0.09290  0.96700  Biso   1.000  O
  O42      1.0000 0.56000  0.09290  0.53300  Biso   1.000  O
  O43      1.0000 0.94000  0.59290  0.96700  Biso   1.000  O
  O44      1.0000 0.06000  0.59290  0.53300  Biso   1.000  O
  O45      1.0000 0.56000  0.90710  0.03300  Biso   1.000  O
  O46      1.0000 0.44000  0.90710  0.46700  Biso   1.000  O
  O47      1.0000 0.06000  0.40710  0.03300  Biso   1.000  O
  O48      1.0000 0.94000  0.40710  0.46700  Biso   1.000  O
  O49      1.0000 0.43910  0.31160  0.93710  Biso   1.000  O
  O50      1.0000 0.56090  0.31160  0.56290  Biso   1.000  O
  O51      1.0000 0.93910  0.81160  0.93710  Biso   1.000  O
  O52      1.0000 0.06090  0.81160  0.56290  Biso   1.000  O
  O53      1.0000 0.56090  0.68840  0.06290  Biso   1.000  O
  O54      1.0000 0.43910  0.68840  0.43710  Biso   1.000  O
  O55      1.0000 0.06090  0.18840  0.06290  Biso   1.000  O
  O56      1.0000 0.93910  0.18840  0.43710  Biso   1.000  O
  O57      1.0000 0.40830  0.16780  0.85180  Biso   1.000  O
  O58      1.0000 0.59170  0.16780  0.64820  Biso   1.000  O
  O59      1.0000 0.90830  0.66780  0.85180  Biso   1.000  O
  O60      1.0000 0.09170  0.66780  0.64820  Biso   1.000  O
  O61      1.0000 0.59170  0.83220  0.14820  Biso   1.000  O
  O62      1.0000 0.40830  0.83220  0.35180  Biso   1.000  O
  O63      1.0000 0.09170  0.33220  0.14820  Biso   1.000  O
  O64      1.0000 0.90830  0.33220  0.35180  Biso   1.000  O
