data_image0
_cell_length_a       55.325
_cell_length_b       5.036
_cell_length_c       15.642
_cell_angle_alpha    90
_cell_angle_beta     98.42
_cell_angle_gamma    90

_symmetry_space_group_name_H-M    "P 1"
_symmetry_int_tables_number       1

loop_
  _symmetry_equiv_pos_as_xyz
  'x, y, z'

loop_
  _atom_site_label
  _atom_site_occupancy
  _atom_site_fract_x
  _atom_site_fract_y
  _atom_site_fract_z
  _atom_site_thermal_displace_type
  _atom_site_B_iso_or_equiv
  _atom_site_type_symbol
  C1       1.0000 0.22925  0.76490  0.63234  Biso   1.000  C
  C2       1.0000 0.77075  0.76490  0.86766  Biso   1.000  C
  C3       1.0000 0.72925  0.26490  0.63234  Biso   1.000  C
  C4       1.0000 0.27075  0.26490  0.86766  Biso   1.000  C
  C5       1.0000 0.77075  0.23510  0.36766  Biso   1.000  C
  C6       1.0000 0.22925  0.23510  0.13234  Biso   1.000  C
  C7       1.0000 0.27075  0.73510  0.36766  Biso   1.000  C
  C8       1.0000 0.72925  0.73510  0.13234  Biso   1.000  C
  C9       1.0000 0.21537  0.77890  0.70868  Biso   1.000  C
  C10      1.0000 0.78463  0.77890  0.79132  Biso   1.000  C
  C11      1.0000 0.71537  0.27890  0.70868  Biso   1.000  C
  C12      1.0000 0.28463  0.27890  0.79132  Biso   1.000  C
  C13      1.0000 0.78463  0.22110  0.29132  Biso   1.000  C
  C14      1.0000 0.21537  0.22110  0.20868  Biso   1.000  C
  C15      1.0000 0.28463  0.72110  0.29132  Biso   1.000  C
  C16      1.0000 0.71537  0.72110  0.20868  Biso   1.000  C
  H1       1.0000 0.22590  0.86140  0.75810  Biso   1.000  H
  H2       1.0000 0.77410  0.86140  0.74190  Biso   1.000  H
  H3       1.0000 0.72590  0.36140  0.75810  Biso   1.000  H
  H4       1.0000 0.27410  0.36140  0.74190  Biso   1.000  H
  H5       1.0000 0.77410  0.13860  0.24190  Biso   1.000  H
  H6       1.0000 0.22590  0.13860  0.25810  Biso   1.000  H
  H7       1.0000 0.27410  0.63860  0.24190  Biso   1.000  H
  H8       1.0000 0.72590  0.63860  0.25810  Biso   1.000  H
  H9       1.0000 0.21150  0.59630  0.72580  Biso   1.000  H
  H10      1.0000 0.78850  0.59630  0.77420  Biso   1.000  H
  H11      1.0000 0.71150  0.09630  0.72580  Biso   1.000  H
  H12      1.0000 0.28850  0.09630  0.77420  Biso   1.000  H
  H13      1.0000 0.78850  0.40370  0.27420  Biso   1.000  H
  H14      1.0000 0.21150  0.40370  0.22580  Biso   1.000  H
  H15      1.0000 0.28850  0.90370  0.27420  Biso   1.000  H
  H16      1.0000 0.71150  0.90370  0.22580  Biso   1.000  H
  C17      1.0000 0.19165  0.93770  0.68957  Biso   1.000  C
  C18      1.0000 0.80835  0.93770  0.81043  Biso   1.000  C
  C19      1.0000 0.69165  0.43770  0.68957  Biso   1.000  C
  C20      1.0000 0.30835  0.43770  0.81043  Biso   1.000  C
  C21      1.0000 0.80835  0.06230  0.31043  Biso   1.000  C
  C22      1.0000 0.19165  0.06230  0.18957  Biso   1.000  C
  C23      1.0000 0.30835  0.56230  0.31043  Biso   1.000  C
  C24      1.0000 0.69165  0.56230  0.18957  Biso   1.000  C
  H17      1.0000 0.19550  0.11750  0.66970  Biso   1.000  H
  H18      1.0000 0.80450  0.11750  0.83030  Biso   1.000  H
  H19      1.0000 0.69550  0.61750  0.66970  Biso   1.000  H
  H20      1.0000 0.30450  0.61750  0.83030  Biso   1.000  H
  H21      1.0000 0.80450  0.88250  0.33030  Biso   1.000  H
  H22      1.0000 0.19550  0.88250  0.16970  Biso   1.000  H
  H23      1.0000 0.30450  0.38250  0.33030  Biso   1.000  H
  H24      1.0000 0.69550  0.38250  0.16970  Biso   1.000  H
  H25      1.0000 0.18450  0.95780  0.74370  Biso   1.000  H
  H26      1.0000 0.81550  0.95780  0.75630  Biso   1.000  H
  H27      1.0000 0.68450  0.45780  0.74370  Biso   1.000  H
  H28      1.0000 0.31550  0.45780  0.75630  Biso   1.000  H
  H29      1.0000 0.81550  0.04220  0.25630  Biso   1.000  H
  H30      1.0000 0.18450  0.04220  0.24370  Biso   1.000  H
  H31      1.0000 0.31550  0.54220  0.25630  Biso   1.000  H
  H32      1.0000 0.68450  0.54220  0.24370  Biso   1.000  H
  C25      1.0000 0.17263  0.80940  0.62113  Biso   1.000  C
  C26      1.0000 0.82737  0.80940  0.87887  Biso   1.000  C
  C27      1.0000 0.67263  0.30940  0.62113  Biso   1.000  C
  C28      1.0000 0.32737  0.30940  0.87887  Biso   1.000  C
  C29      1.0000 0.82737  0.19060  0.37887  Biso   1.000  C
  C30      1.0000 0.17263  0.19060  0.12113  Biso   1.000  C
  C31      1.0000 0.32737  0.69060  0.37887  Biso   1.000  C
  C32      1.0000 0.67263  0.69060  0.12113  Biso   1.000  C
  H33      1.0000 0.17960  0.79360  0.56650  Biso   1.000  H
  H34      1.0000 0.82040  0.79360  0.93350  Biso   1.000  H
  H35      1.0000 0.67960  0.29360  0.56650  Biso   1.000  H
  H36      1.0000 0.32040  0.29360  0.93350  Biso   1.000  H
  H37      1.0000 0.82040  0.20640  0.43350  Biso   1.000  H
  H38      1.0000 0.17960  0.20640  0.06650  Biso   1.000  H
  H39      1.0000 0.32040  0.70640  0.43350  Biso   1.000  H
  H40      1.0000 0.67960  0.70640  0.06650  Biso   1.000  H
  H41      1.0000 0.16910  0.62780  0.64020  Biso   1.000  H
  H42      1.0000 0.83090  0.62780  0.85980  Biso   1.000  H
  H43      1.0000 0.66910  0.12780  0.64020  Biso   1.000  H
  H44      1.0000 0.33090  0.12780  0.85980  Biso   1.000  H
  H45      1.0000 0.83090  0.37220  0.35980  Biso   1.000  H
  H46      1.0000 0.16910  0.37220  0.14020  Biso   1.000  H
  H47      1.0000 0.33090  0.87220  0.35980  Biso   1.000  H
  H48      1.0000 0.66910  0.87220  0.14020  Biso   1.000  H
  C33      1.0000 0.14874  0.96470  0.60388  Biso   1.000  C
  C34      1.0000 0.85126  0.96470  0.89612  Biso   1.000  C
  C35      1.0000 0.64874  0.46470  0.60388  Biso   1.000  C
  C36      1.0000 0.35126  0.46470  0.89612  Biso   1.000  C
  C37      1.0000 0.85126  0.03530  0.39612  Biso   1.000  C
  C38      1.0000 0.14874  0.03530  0.10388  Biso   1.000  C
  C39      1.0000 0.35126  0.53530  0.39612  Biso   1.000  C
  C40      1.0000 0.64874  0.53530  0.10388  Biso   1.000  C
  H49      1.0000 0.14200  0.98430  0.65880  Biso   1.000  H
  H50      1.0000 0.85800  0.98430  0.84120  Biso   1.000  H
  H51      1.0000 0.64200  0.48430  0.65880  Biso   1.000  H
  H52      1.0000 0.35800  0.48430  0.84120  Biso   1.000  H
  H53      1.0000 0.85800  0.01570  0.34120  Biso   1.000  H
  H54      1.0000 0.14200  0.01570  0.15880  Biso   1.000  H
  H55      1.0000 0.35800  0.51570  0.34120  Biso   1.000  H
  H56      1.0000 0.64200  0.51570  0.15880  Biso   1.000  H
  H57      1.0000 0.15220  0.14480  0.58340  Biso   1.000  H
  H58      1.0000 0.84780  0.14480  0.91660  Biso   1.000  H
  H59      1.0000 0.65220  0.64480  0.58340  Biso   1.000  H
  H60      1.0000 0.34780  0.64480  0.91660  Biso   1.000  H
  H61      1.0000 0.84780  0.85520  0.41660  Biso   1.000  H
  H62      1.0000 0.15220  0.85520  0.08340  Biso   1.000  H
  H63      1.0000 0.34780  0.35520  0.41660  Biso   1.000  H
  H64      1.0000 0.65220  0.35520  0.08340  Biso   1.000  H
  C41      1.0000 0.12960  0.83410  0.53745  Biso   1.000  C
  C42      1.0000 0.87040  0.83410  0.96255  Biso   1.000  C
  C43      1.0000 0.62960  0.33410  0.53745  Biso   1.000  C
  C44      1.0000 0.37040  0.33410  0.96255  Biso   1.000  C
  C45      1.0000 0.87040  0.16590  0.46255  Biso   1.000  C
  C46      1.0000 0.12960  0.16590  0.03745  Biso   1.000  C
  C47      1.0000 0.37040  0.66590  0.46255  Biso   1.000  C
  C48      1.0000 0.62960  0.66590  0.03745  Biso   1.000  C
  H65      1.0000 0.12690  0.65030  0.55650  Biso   1.000  H
  H66      1.0000 0.87310  0.65030  0.94350  Biso   1.000  H
  H67      1.0000 0.62690  0.15030  0.55650  Biso   1.000  H
  H68      1.0000 0.37310  0.15030  0.94350  Biso   1.000  H
  H69      1.0000 0.87310  0.34970  0.44350  Biso   1.000  H
  H70      1.0000 0.12690  0.34970  0.05650  Biso   1.000  H
  H71      1.0000 0.37310  0.84970  0.44350  Biso   1.000  H
  H72      1.0000 0.62690  0.84970  0.05650  Biso   1.000  H
  H73      1.0000 0.13610  0.82320  0.48180  Biso   1.000  H
  H74      1.0000 0.86390  0.82320  0.01820  Biso   1.000  H
  H75      1.0000 0.63610  0.32320  0.48180  Biso   1.000  H
  H76      1.0000 0.36390  0.32320  0.01820  Biso   1.000  H
  H77      1.0000 0.86390  0.17680  0.51820  Biso   1.000  H
  H78      1.0000 0.13610  0.17680  0.98180  Biso   1.000  H
  H79      1.0000 0.36390  0.67680  0.51820  Biso   1.000  H
  H80      1.0000 0.63610  0.67680  0.98180  Biso   1.000  H
  C49      1.0000 0.10507  0.97740  0.52242  Biso   1.000  C
  C50      1.0000 0.89493  0.97740  0.97758  Biso   1.000  C
  C51      1.0000 0.60507  0.47740  0.52242  Biso   1.000  C
  C52      1.0000 0.39493  0.47740  0.97758  Biso   1.000  C
  C53      1.0000 0.89493  0.02260  0.47758  Biso   1.000  C
  C54      1.0000 0.10507  0.02260  0.02242  Biso   1.000  C
  C55      1.0000 0.39493  0.52260  0.47758  Biso   1.000  C
  C56      1.0000 0.60507  0.52260  0.02242  Biso   1.000  C
  H81      1.0000 0.09870  0.99180  0.57810  Biso   1.000  H
  H82      1.0000 0.90130  0.99180  0.92190  Biso   1.000  H
  H83      1.0000 0.59870  0.49180  0.57810  Biso   1.000  H
  H84      1.0000 0.40130  0.49180  0.92190  Biso   1.000  H
  H85      1.0000 0.90130  0.00820  0.42190  Biso   1.000  H
  H86      1.0000 0.09870  0.00820  0.07810  Biso   1.000  H
  H87      1.0000 0.40130  0.50820  0.42190  Biso   1.000  H
  H88      1.0000 0.59870  0.50820  0.07810  Biso   1.000  H
  H89      1.0000 0.10760  0.15980  0.50180  Biso   1.000  H
  H90      1.0000 0.89240  0.15980  0.99820  Biso   1.000  H
  H91      1.0000 0.60760  0.65980  0.50180  Biso   1.000  H
  H92      1.0000 0.39240  0.65980  0.99820  Biso   1.000  H
  H93      1.0000 0.89240  0.84020  0.49820  Biso   1.000  H
  H94      1.0000 0.10760  0.84020  0.00180  Biso   1.000  H
  H95      1.0000 0.39240  0.34020  0.49820  Biso   1.000  H
  H96      1.0000 0.60760  0.34020  0.00180  Biso   1.000  H
  C57      1.0000 0.08620  0.83910  0.45739  Biso   1.000  C
  C58      1.0000 0.91380  0.83910  0.04261  Biso   1.000  C
  C59      1.0000 0.58620  0.33910  0.45739  Biso   1.000  C
  C60      1.0000 0.41380  0.33910  0.04261  Biso   1.000  C
  C61      1.0000 0.91380  0.16090  0.54261  Biso   1.000  C
  C62      1.0000 0.08620  0.16090  0.95739  Biso   1.000  C
  C63      1.0000 0.41380  0.66090  0.54261  Biso   1.000  C
  C64      1.0000 0.58620  0.66090  0.95739  Biso   1.000  C
  H97      1.0000 0.08410  0.65490  0.47720  Biso   1.000  H
  H98      1.0000 0.91590  0.65490  0.02280  Biso   1.000  H
  H99      1.0000 0.58410  0.15490  0.47720  Biso   1.000  H
  H100     1.0000 0.41590  0.15490  0.02280  Biso   1.000  H
  H101     1.0000 0.91590  0.34510  0.52280  Biso   1.000  H
  H102     1.0000 0.08410  0.34510  0.97720  Biso   1.000  H
  H103     1.0000 0.41590  0.84510  0.52280  Biso   1.000  H
  H104     1.0000 0.58410  0.84510  0.97720  Biso   1.000  H
  H105     1.0000 0.09250  0.82950  0.40140  Biso   1.000  H
  H106     1.0000 0.90750  0.82950  0.09860  Biso   1.000  H
  H107     1.0000 0.59250  0.32950  0.40140  Biso   1.000  H
  H108     1.0000 0.40750  0.32950  0.09860  Biso   1.000  H
  H109     1.0000 0.90750  0.17050  0.59860  Biso   1.000  H
  H110     1.0000 0.09250  0.17050  0.90140  Biso   1.000  H
  H111     1.0000 0.40750  0.67050  0.59860  Biso   1.000  H
  H112     1.0000 0.59250  0.67050  0.90140  Biso   1.000  H
  C65      1.0000 0.06133  0.97340  0.44319  Biso   1.000  C
  C66      1.0000 0.93867  0.97340  0.05681  Biso   1.000  C
  C67      1.0000 0.56133  0.47340  0.44319  Biso   1.000  C
  C68      1.0000 0.43867  0.47340  0.05681  Biso   1.000  C
  C69      1.0000 0.93867  0.02660  0.55681  Biso   1.000  C
  C70      1.0000 0.06133  0.02660  0.94319  Biso   1.000  C
  C71      1.0000 0.43867  0.52660  0.55681  Biso   1.000  C
  C72      1.0000 0.56133  0.52660  0.94319  Biso   1.000  C
  H113     1.0000 0.05510  0.98600  0.49920  Biso   1.000  H
  H114     1.0000 0.94490  0.98600  0.00080  Biso   1.000  H
  H115     1.0000 0.55510  0.48600  0.49920  Biso   1.000  H
  H116     1.0000 0.44490  0.48600  0.00080  Biso   1.000  H
  H117     1.0000 0.94490  0.01400  0.50080  Biso   1.000  H
  H118     1.0000 0.05510  0.01400  0.99920  Biso   1.000  H
  H119     1.0000 0.44490  0.51400  0.50080  Biso   1.000  H
  H120     1.0000 0.55510  0.51400  0.99920  Biso   1.000  H
  H121     1.0000 0.06320  0.15630  0.42190  Biso   1.000  H
  H122     1.0000 0.93680  0.15630  0.07810  Biso   1.000  H
  H123     1.0000 0.56320  0.65630  0.42190  Biso   1.000  H
  H124     1.0000 0.43680  0.65630  0.07810  Biso   1.000  H
  H125     1.0000 0.93680  0.84370  0.57810  Biso   1.000  H
  H126     1.0000 0.06320  0.84370  0.92190  Biso   1.000  H
  H127     1.0000 0.43680  0.34370  0.57810  Biso   1.000  H
  H128     1.0000 0.56320  0.34370  0.92190  Biso   1.000  H
  C73      1.0000 0.04281  0.82570  0.37898  Biso   1.000  C
  C74      1.0000 0.95719  0.82570  0.12102  Biso   1.000  C
  C75      1.0000 0.54281  0.32570  0.37898  Biso   1.000  C
  C76      1.0000 0.45719  0.32570  0.12102  Biso   1.000  C
  C77      1.0000 0.95719  0.17430  0.62102  Biso   1.000  C
  C78      1.0000 0.04281  0.17430  0.87898  Biso   1.000  C
  C79      1.0000 0.45719  0.67430  0.62102  Biso   1.000  C
  C80      1.0000 0.54281  0.67430  0.87898  Biso   1.000  C
  H129     1.0000 0.02720  0.92020  0.37220  Biso   1.000  H
  H130     1.0000 0.97280  0.92020  0.12780  Biso   1.000  H
  H131     1.0000 0.52720  0.42020  0.37220  Biso   1.000  H
  H132     1.0000 0.47280  0.42020  0.12780  Biso   1.000  H
  H133     1.0000 0.97280  0.07980  0.62780  Biso   1.000  H
  H134     1.0000 0.02720  0.07980  0.87220  Biso   1.000  H
  H135     1.0000 0.47280  0.57980  0.62780  Biso   1.000  H
  H136     1.0000 0.52720  0.57980  0.87220  Biso   1.000  H
  H137     1.0000 0.04060  0.64570  0.40030  Biso   1.000  H
  H138     1.0000 0.95940  0.64570  0.09970  Biso   1.000  H
  H139     1.0000 0.54060  0.14570  0.40030  Biso   1.000  H
  H140     1.0000 0.45940  0.14570  0.09970  Biso   1.000  H
  H141     1.0000 0.95940  0.35430  0.59970  Biso   1.000  H
  H142     1.0000 0.04060  0.35430  0.90030  Biso   1.000  H
  H143     1.0000 0.45940  0.85430  0.59970  Biso   1.000  H
  H144     1.0000 0.54060  0.85430  0.90030  Biso   1.000  H
  H145     1.0000 0.04870  0.81620  0.32300  Biso   1.000  H
  H146     1.0000 0.95130  0.81620  0.17700  Biso   1.000  H
  H147     1.0000 0.54870  0.31620  0.32300  Biso   1.000  H
  H148     1.0000 0.45130  0.31620  0.17700  Biso   1.000  H
  H149     1.0000 0.95130  0.18380  0.67700  Biso   1.000  H
  H150     1.0000 0.04870  0.18380  0.82300  Biso   1.000  H
  H151     1.0000 0.45130  0.68380  0.67700  Biso   1.000  H
  H152     1.0000 0.54870  0.68380  0.82300  Biso   1.000  H
  C81      1.0000 0.21118  0.51490  0.42937  Biso   1.000  C
  C82      1.0000 0.78882  0.51490  0.07063  Biso   1.000  C
  C83      1.0000 0.71118  0.01490  0.42937  Biso   1.000  C
  C84      1.0000 0.28882  0.01490  0.07063  Biso   1.000  C
  C85      1.0000 0.78882  0.48510  0.57063  Biso   1.000  C
  C86      1.0000 0.21118  0.48510  0.92937  Biso   1.000  C
  C87      1.0000 0.28882  0.98510  0.57063  Biso   1.000  C
  C88      1.0000 0.71118  0.98510  0.92937  Biso   1.000  C
  C89      1.0000 0.18752  0.36500  0.40873  Biso   1.000  C
  C90      1.0000 0.81248  0.36500  0.09127  Biso   1.000  C
  C91      1.0000 0.68752  0.86500  0.40873  Biso   1.000  C
  C92      1.0000 0.31248  0.86500  0.09127  Biso   1.000  C
  C93      1.0000 0.81248  0.63500  0.59127  Biso   1.000  C
  C94      1.0000 0.18752  0.63500  0.90873  Biso   1.000  C
  C95      1.0000 0.31248  0.13500  0.59127  Biso   1.000  C
  C96      1.0000 0.68752  0.13500  0.90873  Biso   1.000  C
  H153     1.0000 0.18150  0.32090  0.46360  Biso   1.000  H
  H154     1.0000 0.81850  0.32090  0.03640  Biso   1.000  H
  H155     1.0000 0.68150  0.82090  0.46360  Biso   1.000  H
  H156     1.0000 0.31850  0.82090  0.03640  Biso   1.000  H
  H157     1.0000 0.81850  0.67910  0.53640  Biso   1.000  H
  H158     1.0000 0.18150  0.67910  0.96360  Biso   1.000  H
  H159     1.0000 0.31850  0.17910  0.53640  Biso   1.000  H
  H160     1.0000 0.68150  0.17910  0.96360  Biso   1.000  H
  H161     1.0000 0.19080  0.19560  0.38040  Biso   1.000  H
  H162     1.0000 0.80920  0.19560  0.11960  Biso   1.000  H
  H163     1.0000 0.69080  0.69560  0.38040  Biso   1.000  H
  H164     1.0000 0.30920  0.69560  0.11960  Biso   1.000  H
  H165     1.0000 0.80920  0.80440  0.61960  Biso   1.000  H
  H166     1.0000 0.19080  0.80440  0.88040  Biso   1.000  H
  H167     1.0000 0.30920  0.30440  0.61960  Biso   1.000  H
  H168     1.0000 0.69080  0.30440  0.88040  Biso   1.000  H
  C97      1.0000 0.16736  0.51270  0.35051  Biso   1.000  C
  C98      1.0000 0.83264  0.51270  0.14949  Biso   1.000  C
  C99      1.0000 0.66736  0.01270  0.35051  Biso   1.000  C
  C100     1.0000 0.33264  0.01270  0.14949  Biso   1.000  C
  C101     1.0000 0.83264  0.48730  0.64949  Biso   1.000  C
  C102     1.0000 0.16736  0.48730  0.85051  Biso   1.000  C
  C103     1.0000 0.33264  0.98730  0.64949  Biso   1.000  C
  C104     1.0000 0.66736  0.98730  0.85051  Biso   1.000  C
  H169     1.0000 0.16480  0.68800  0.37640  Biso   1.000  H
  H170     1.0000 0.83520  0.68800  0.12360  Biso   1.000  H
  H171     1.0000 0.66480  0.18800  0.37640  Biso   1.000  H
  H172     1.0000 0.33520  0.18800  0.12360  Biso   1.000  H
  H173     1.0000 0.83520  0.31200  0.62360  Biso   1.000  H
  H174     1.0000 0.16480  0.31200  0.87640  Biso   1.000  H
  H175     1.0000 0.33520  0.81200  0.62360  Biso   1.000  H
  H176     1.0000 0.66480  0.81200  0.87640  Biso   1.000  H
  H177     1.0000 0.17260  0.54370  0.29350  Biso   1.000  H
  H178     1.0000 0.82740  0.54370  0.20650  Biso   1.000  H
  H179     1.0000 0.67260  0.04370  0.29350  Biso   1.000  H
  H180     1.0000 0.32740  0.04370  0.20650  Biso   1.000  H
  H181     1.0000 0.82740  0.45630  0.70650  Biso   1.000  H
  H182     1.0000 0.17260  0.45630  0.79350  Biso   1.000  H
  H183     1.0000 0.32740  0.95630  0.70650  Biso   1.000  H
  H184     1.0000 0.67260  0.95630  0.79350  Biso   1.000  H
  C105     1.0000 0.14336  0.35990  0.33774  Biso   1.000  C
  C106     1.0000 0.85664  0.35990  0.16226  Biso   1.000  C
  C107     1.0000 0.64336  0.85990  0.33774  Biso   1.000  C
  C108     1.0000 0.35664  0.85990  0.16226  Biso   1.000  C
  C109     1.0000 0.85664  0.64010  0.66226  Biso   1.000  C
  C110     1.0000 0.14336  0.64010  0.83774  Biso   1.000  C
  C111     1.0000 0.35664  0.14010  0.66226  Biso   1.000  C
  C112     1.0000 0.64336  0.14010  0.83774  Biso   1.000  C
  H185     1.0000 0.14630  0.17990  0.31590  Biso   1.000  H
  H186     1.0000 0.85370  0.17990  0.18410  Biso   1.000  H
  H187     1.0000 0.64630  0.67990  0.31590  Biso   1.000  H
  H188     1.0000 0.35370  0.67990  0.18410  Biso   1.000  H
  H189     1.0000 0.85370  0.82010  0.68410  Biso   1.000  H
  H190     1.0000 0.14630  0.82010  0.81590  Biso   1.000  H
  H191     1.0000 0.35370  0.32010  0.68410  Biso   1.000  H
  H192     1.0000 0.64630  0.32010  0.81590  Biso   1.000  H
  H193     1.0000 0.13750  0.34000  0.39430  Biso   1.000  H
  H194     1.0000 0.86250  0.34000  0.10570  Biso   1.000  H
  H195     1.0000 0.63750  0.84000  0.39430  Biso   1.000  H
  H196     1.0000 0.36250  0.84000  0.10570  Biso   1.000  H
  H197     1.0000 0.86250  0.66000  0.60570  Biso   1.000  H
  H198     1.0000 0.13750  0.66000  0.89430  Biso   1.000  H
  H199     1.0000 0.36250  0.16000  0.60570  Biso   1.000  H
  H200     1.0000 0.63750  0.16000  0.89430  Biso   1.000  H
  C113     1.0000 0.12362  0.49610  0.27481  Biso   1.000  C
  C114     1.0000 0.87638  0.49610  0.22519  Biso   1.000  C
  C115     1.0000 0.62362  0.99610  0.27481  Biso   1.000  C
  C116     1.0000 0.37638  0.99610  0.22519  Biso   1.000  C
  C117     1.0000 0.87638  0.50390  0.72519  Biso   1.000  C
  C118     1.0000 0.12362  0.50390  0.77481  Biso   1.000  C
  C119     1.0000 0.37638  0.00390  0.72519  Biso   1.000  C
  C120     1.0000 0.62362  0.00390  0.77481  Biso   1.000  C
  H201     1.0000 0.12090  0.67690  0.29640  Biso   1.000  H
  H202     1.0000 0.87910  0.67690  0.20360  Biso   1.000  H
  H203     1.0000 0.62090  0.17690  0.29640  Biso   1.000  H
  H204     1.0000 0.37910  0.17690  0.20360  Biso   1.000  H
  H205     1.0000 0.87910  0.32310  0.70360  Biso   1.000  H
  H206     1.0000 0.12090  0.32310  0.79640  Biso   1.000  H
  H207     1.0000 0.37910  0.82310  0.70360  Biso   1.000  H
  H208     1.0000 0.62090  0.82310  0.79640  Biso   1.000  H
  H209     1.0000 0.12950  0.51450  0.21820  Biso   1.000  H
  H210     1.0000 0.87050  0.51450  0.28180  Biso   1.000  H
  H211     1.0000 0.62950  0.01450  0.21820  Biso   1.000  H
  H212     1.0000 0.37050  0.01450  0.28180  Biso   1.000  H
  H213     1.0000 0.87050  0.48550  0.78180  Biso   1.000  H
  H214     1.0000 0.12950  0.48550  0.71820  Biso   1.000  H
  H215     1.0000 0.37050  0.98550  0.78180  Biso   1.000  H
  H216     1.0000 0.62950  0.98550  0.71820  Biso   1.000  H
  C121     1.0000 0.09942  0.34750  0.26196  Biso   1.000  C
  C122     1.0000 0.90058  0.34750  0.23804  Biso   1.000  C
  C123     1.0000 0.59942  0.84750  0.26196  Biso   1.000  C
  C124     1.0000 0.40058  0.84750  0.23804  Biso   1.000  C
  C125     1.0000 0.90058  0.65250  0.73804  Biso   1.000  C
  C126     1.0000 0.09942  0.65250  0.76196  Biso   1.000  C
  C127     1.0000 0.40058  0.15250  0.73804  Biso   1.000  C
  C128     1.0000 0.59942  0.15250  0.76196  Biso   1.000  C
  H217     1.0000 0.10220  0.16560  0.24140  Biso   1.000  H
  H218     1.0000 0.89780  0.16560  0.25860  Biso   1.000  H
  H219     1.0000 0.60220  0.66560  0.24140  Biso   1.000  H
  H220     1.0000 0.39780  0.66560  0.25860  Biso   1.000  H
  H221     1.0000 0.89780  0.83440  0.75860  Biso   1.000  H
  H222     1.0000 0.10220  0.83440  0.74140  Biso   1.000  H
  H223     1.0000 0.39780  0.33440  0.75860  Biso   1.000  H
  H224     1.0000 0.60220  0.33440  0.74140  Biso   1.000  H
  H225     1.0000 0.09340  0.33200  0.31840  Biso   1.000  H
  H226     1.0000 0.90660  0.33200  0.18160  Biso   1.000  H
  H227     1.0000 0.59340  0.83200  0.31840  Biso   1.000  H
  H228     1.0000 0.40660  0.83200  0.18160  Biso   1.000  H
  H229     1.0000 0.90660  0.66800  0.68160  Biso   1.000  H
  H230     1.0000 0.09340  0.66800  0.81840  Biso   1.000  H
  H231     1.0000 0.40660  0.16800  0.68160  Biso   1.000  H
  H232     1.0000 0.59340  0.16800  0.81840  Biso   1.000  H
  C129     1.0000 0.07981  0.48070  0.19792  Biso   1.000  C
  C130     1.0000 0.92019  0.48070  0.30208  Biso   1.000  C
  C131     1.0000 0.57981  0.98070  0.19792  Biso   1.000  C
  C132     1.0000 0.42019  0.98070  0.30208  Biso   1.000  C
  C133     1.0000 0.92019  0.51930  0.80208  Biso   1.000  C
  C134     1.0000 0.07981  0.51930  0.69792  Biso   1.000  C
  C135     1.0000 0.42019  0.01930  0.80208  Biso   1.000  C
  C136     1.0000 0.57981  0.01930  0.69792  Biso   1.000  C
  H233     1.0000 0.08580  0.49630  0.14140  Biso   1.000  H
  H234     1.0000 0.91420  0.49630  0.35860  Biso   1.000  H
  H235     1.0000 0.58580  0.99630  0.14140  Biso   1.000  H
  H236     1.0000 0.41420  0.99630  0.35860  Biso   1.000  H
  H237     1.0000 0.91420  0.50370  0.85860  Biso   1.000  H
  H238     1.0000 0.08580  0.50370  0.64140  Biso   1.000  H
  H239     1.0000 0.41420  0.00370  0.85860  Biso   1.000  H
  H240     1.0000 0.58580  0.00370  0.64140  Biso   1.000  H
  H241     1.0000 0.07700  0.66250  0.21850  Biso   1.000  H
  H242     1.0000 0.92300  0.66250  0.28150  Biso   1.000  H
  H243     1.0000 0.57700  0.16250  0.21850  Biso   1.000  H
  H244     1.0000 0.42300  0.16250  0.28150  Biso   1.000  H
  H245     1.0000 0.92300  0.33750  0.78150  Biso   1.000  H
  H246     1.0000 0.07700  0.33750  0.71850  Biso   1.000  H
  H247     1.0000 0.42300  0.83750  0.78150  Biso   1.000  H
  H248     1.0000 0.57700  0.83750  0.71850  Biso   1.000  H
  C137     1.0000 0.05567  0.33050  0.18542  Biso   1.000  C
  C138     1.0000 0.94433  0.33050  0.31458  Biso   1.000  C
  C139     1.0000 0.55567  0.83050  0.18542  Biso   1.000  C
  C140     1.0000 0.44433  0.83050  0.31458  Biso   1.000  C
  C141     1.0000 0.94433  0.66950  0.81458  Biso   1.000  C
  C142     1.0000 0.05567  0.66950  0.68542  Biso   1.000  C
  C143     1.0000 0.44433  0.16950  0.81458  Biso   1.000  C
  C144     1.0000 0.55567  0.16950  0.68542  Biso   1.000  C
  H249     1.0000 0.05850  0.15010  0.16380  Biso   1.000  H
  H250     1.0000 0.94150  0.15010  0.33620  Biso   1.000  H
  H251     1.0000 0.55850  0.65010  0.16380  Biso   1.000  H
  H252     1.0000 0.44150  0.65010  0.33620  Biso   1.000  H
  H253     1.0000 0.94150  0.84990  0.83620  Biso   1.000  H
  H254     1.0000 0.05850  0.84990  0.66380  Biso   1.000  H
  H255     1.0000 0.44150  0.34990  0.83620  Biso   1.000  H
  H256     1.0000 0.55850  0.34990  0.66380  Biso   1.000  H
  H257     1.0000 0.05000  0.31100  0.24230  Biso   1.000  H
  H258     1.0000 0.95000  0.31100  0.25770  Biso   1.000  H
  H259     1.0000 0.55000  0.81100  0.24230  Biso   1.000  H
  H260     1.0000 0.45000  0.81100  0.25770  Biso   1.000  H
  H261     1.0000 0.95000  0.68900  0.75770  Biso   1.000  H
  H262     1.0000 0.05000  0.68900  0.74230  Biso   1.000  H
  H263     1.0000 0.45000  0.18900  0.75770  Biso   1.000  H
  H264     1.0000 0.55000  0.18900  0.74230  Biso   1.000  H
  C145     1.0000 0.03559  0.46320  0.12319  Biso   1.000  C
  C146     1.0000 0.96441  0.46320  0.37681  Biso   1.000  C
  C147     1.0000 0.53559  0.96320  0.12319  Biso   1.000  C
  C148     1.0000 0.46441  0.96320  0.37681  Biso   1.000  C
  C149     1.0000 0.96441  0.53680  0.87681  Biso   1.000  C
  C150     1.0000 0.03559  0.53680  0.62319  Biso   1.000  C
  C151     1.0000 0.46441  0.03680  0.87681  Biso   1.000  C
  C152     1.0000 0.53559  0.03680  0.62319  Biso   1.000  C
  H265     1.0000 0.04130  0.48860  0.06670  Biso   1.000  H
  H266     1.0000 0.95870  0.48860  0.43330  Biso   1.000  H
  H267     1.0000 0.54130  0.98860  0.06670  Biso   1.000  H
  H268     1.0000 0.45870  0.98860  0.43330  Biso   1.000  H
  H269     1.0000 0.95870  0.51140  0.93330  Biso   1.000  H
  H270     1.0000 0.04130  0.51140  0.56670  Biso   1.000  H
  H271     1.0000 0.45870  0.01140  0.93330  Biso   1.000  H
  H272     1.0000 0.54130  0.01140  0.56670  Biso   1.000  H
  H273     1.0000 0.03210  0.64050  0.14590  Biso   1.000  H
  H274     1.0000 0.96790  0.64050  0.35410  Biso   1.000  H
  H275     1.0000 0.53210  0.14050  0.14590  Biso   1.000  H
  H276     1.0000 0.46790  0.14050  0.35410  Biso   1.000  H
  H277     1.0000 0.96790  0.35950  0.85410  Biso   1.000  H
  H278     1.0000 0.03210  0.35950  0.64590  Biso   1.000  H
  H279     1.0000 0.46790  0.85950  0.85410  Biso   1.000  H
  H280     1.0000 0.53210  0.85950  0.64590  Biso   1.000  H
  C153     1.0000 0.01208  0.30070  0.11000  Biso   1.000  C
  C154     1.0000 0.98792  0.30070  0.39000  Biso   1.000  C
  C155     1.0000 0.51208  0.80070  0.11000  Biso   1.000  C
  C156     1.0000 0.48792  0.80070  0.39000  Biso   1.000  C
  C157     1.0000 0.98792  0.69930  0.89000  Biso   1.000  C
  C158     1.0000 0.01208  0.69930  0.61000  Biso   1.000  C
  C159     1.0000 0.48792  0.19930  0.89000  Biso   1.000  C
  C160     1.0000 0.51208  0.19930  0.61000  Biso   1.000  C
  H281     1.0000 0.99970  0.39320  0.06940  Biso   1.000  H
  H282     1.0000 0.00030  0.39320  0.43060  Biso   1.000  H
  H283     1.0000 0.49970  0.89320  0.06940  Biso   1.000  H
  H284     1.0000 0.50030  0.89320  0.43060  Biso   1.000  H
  H285     1.0000 0.00030  0.60680  0.93060  Biso   1.000  H
  H286     1.0000 0.99970  0.60680  0.56940  Biso   1.000  H
  H287     1.0000 0.50030  0.10680  0.93060  Biso   1.000  H
  H288     1.0000 0.49970  0.10680  0.56940  Biso   1.000  H
  H289     1.0000 0.00610  0.27850  0.16550  Biso   1.000  H
  H290     1.0000 0.99390  0.27850  0.33450  Biso   1.000  H
  H291     1.0000 0.50610  0.77850  0.16550  Biso   1.000  H
  H292     1.0000 0.49390  0.77850  0.33450  Biso   1.000  H
  H293     1.0000 0.99390  0.72150  0.83450  Biso   1.000  H
  H294     1.0000 0.00610  0.72150  0.66550  Biso   1.000  H
  H295     1.0000 0.49390  0.22150  0.83450  Biso   1.000  H
  H296     1.0000 0.50610  0.22150  0.66550  Biso   1.000  H
  H297     1.0000 0.01530  0.12590  0.08650  Biso   1.000  H
  H298     1.0000 0.98470  0.12590  0.41350  Biso   1.000  H
  H299     1.0000 0.51530  0.62590  0.08650  Biso   1.000  H
  H300     1.0000 0.48470  0.62590  0.41350  Biso   1.000  H
  H301     1.0000 0.98470  0.87410  0.91350  Biso   1.000  H
  H302     1.0000 0.01530  0.87410  0.58650  Biso   1.000  H
  H303     1.0000 0.48470  0.37410  0.91350  Biso   1.000  H
  H304     1.0000 0.51530  0.37410  0.58650  Biso   1.000  H
  O1       1.0000 0.22528  0.94660  0.57716  Biso   1.000  O
  O2       1.0000 0.77472  0.94660  0.92284  Biso   1.000  O
  O3       1.0000 0.72528  0.44660  0.57716  Biso   1.000  O
  O4       1.0000 0.27472  0.44660  0.92284  Biso   1.000  O
  O5       1.0000 0.77472  0.05340  0.42284  Biso   1.000  O
  O6       1.0000 0.22528  0.05340  0.07716  Biso   1.000  O
  O7       1.0000 0.27472  0.55340  0.42284  Biso   1.000  O
  O8       1.0000 0.72528  0.55340  0.07716  Biso   1.000  O
  O9       1.0000 0.24388  0.57460  0.62896  Biso   1.000  O
  O10      1.0000 0.75612  0.57460  0.87104  Biso   1.000  O
  O11      1.0000 0.74388  0.07460  0.62896  Biso   1.000  O
  O12      1.0000 0.25612  0.07460  0.87104  Biso   1.000  O
  O13      1.0000 0.75612  0.42540  0.37104  Biso   1.000  O
  O14      1.0000 0.24388  0.42540  0.12896  Biso   1.000  O
  O15      1.0000 0.25612  0.92540  0.37104  Biso   1.000  O
  O16      1.0000 0.74388  0.92540  0.12896  Biso   1.000  O
  O17      1.0000 0.21124  0.76030  0.41666  Biso   1.000  O
  O18      1.0000 0.78876  0.76030  0.08334  Biso   1.000  O
  O19      1.0000 0.71124  0.26030  0.41666  Biso   1.000  O
  O20      1.0000 0.28876  0.26030  0.08334  Biso   1.000  O
  O21      1.0000 0.78876  0.23970  0.58334  Biso   1.000  O
  O22      1.0000 0.21124  0.23970  0.91666  Biso   1.000  O
  O23      1.0000 0.28876  0.73970  0.58334  Biso   1.000  O
  O24      1.0000 0.71124  0.73970  0.91666  Biso   1.000  O
  O25      1.0000 0.22987  0.38470  0.46197  Biso   1.000  O
  O26      1.0000 0.77013  0.38470  0.03803  Biso   1.000  O
  O27      1.0000 0.72987  0.88470  0.46197  Biso   1.000  O
  O28      1.0000 0.27013  0.88470  0.03803  Biso   1.000  O
  O29      1.0000 0.77013  0.61530  0.53803  Biso   1.000  O
  O30      1.0000 0.22987  0.61530  0.96197  Biso   1.000  O
  O31      1.0000 0.27013  0.11530  0.53803  Biso   1.000  O
  O32      1.0000 0.72987  0.11530  0.96197  Biso   1.000  O
  Cu1      1.0000 0.23943  0.96558  0.47129  Biso   1.000  Cu
  Cu2      1.0000 0.76057  0.96558  0.02871  Biso   1.000  Cu
  Cu3      1.0000 0.73943  0.46558  0.47129  Biso   1.000  Cu
  Cu4      1.0000 0.26057  0.46558  0.02871  Biso   1.000  Cu
  Cu5      1.0000 0.76057  0.03442  0.52871  Biso   1.000  Cu
  Cu6      1.0000 0.23943  0.03442  0.97129  Biso   1.000  Cu
  Cu7      1.0000 0.26057  0.53442  0.52871  Biso   1.000  Cu
  Cu8      1.0000 0.73943  0.53442  0.97129  Biso   1.000  Cu
