data_image0
_cell_length_a       56.798
_cell_length_b       5.076
_cell_length_c       16.383
_cell_angle_alpha    90
_cell_angle_beta     102.78
_cell_angle_gamma    90

_symmetry_space_group_name_H-M    "P 1"
_symmetry_int_tables_number       1

loop_
  _symmetry_equiv_pos_as_xyz
  'x, y, z'

loop_
  _atom_site_label
  _atom_site_occupancy
  _atom_site_fract_x
  _atom_site_fract_y
  _atom_site_fract_z
  _atom_site_thermal_displace_type
  _atom_site_B_iso_or_equiv
  _atom_site_type_symbol
  C1       1.0000 0.23233  0.76440  0.62711  Biso   1.000  C
  C2       1.0000 0.76767  0.76440  0.87289  Biso   1.000  C
  C3       1.0000 0.73233  0.26440  0.62711  Biso   1.000  C
  C4       1.0000 0.26767  0.26440  0.87289  Biso   1.000  C
  C5       1.0000 0.76767  0.23560  0.37289  Biso   1.000  C
  C6       1.0000 0.23233  0.23560  0.12711  Biso   1.000  C
  C7       1.0000 0.26767  0.73560  0.37289  Biso   1.000  C
  C8       1.0000 0.73233  0.73560  0.12711  Biso   1.000  C
  C9       1.0000 0.22094  0.77850  0.70215  Biso   1.000  C
  C10      1.0000 0.77906  0.77850  0.79785  Biso   1.000  C
  C11      1.0000 0.72094  0.27850  0.70215  Biso   1.000  C
  C12      1.0000 0.27906  0.27850  0.79785  Biso   1.000  C
  C13      1.0000 0.77906  0.22150  0.29785  Biso   1.000  C
  C14      1.0000 0.22094  0.22150  0.20215  Biso   1.000  C
  C15      1.0000 0.27906  0.72150  0.29785  Biso   1.000  C
  C16      1.0000 0.72094  0.72150  0.20215  Biso   1.000  C
  H1       1.0000 0.23260  0.85040  0.74920  Biso   1.000  H
  H2       1.0000 0.76740  0.85040  0.75080  Biso   1.000  H
  H3       1.0000 0.73260  0.35040  0.74920  Biso   1.000  H
  H4       1.0000 0.26740  0.35040  0.75080  Biso   1.000  H
  H5       1.0000 0.76740  0.14960  0.25080  Biso   1.000  H
  H6       1.0000 0.23260  0.14960  0.24920  Biso   1.000  H
  H7       1.0000 0.26740  0.64960  0.25080  Biso   1.000  H
  H8       1.0000 0.73260  0.64960  0.24920  Biso   1.000  H
  H9       1.0000 0.21700  0.60140  0.71700  Biso   1.000  H
  H10      1.0000 0.78300  0.60140  0.78300  Biso   1.000  H
  H11      1.0000 0.71700  0.10140  0.71700  Biso   1.000  H
  H12      1.0000 0.28300  0.10140  0.78300  Biso   1.000  H
  H13      1.0000 0.78300  0.39860  0.28300  Biso   1.000  H
  H14      1.0000 0.21700  0.39860  0.21700  Biso   1.000  H
  H15      1.0000 0.28300  0.89860  0.28300  Biso   1.000  H
  H16      1.0000 0.71700  0.89860  0.21700  Biso   1.000  H
  C17      1.0000 0.19817  0.94630  0.68730  Biso   1.000  C
  C18      1.0000 0.80183  0.94630  0.81270  Biso   1.000  C
  C19      1.0000 0.69817  0.44630  0.68730  Biso   1.000  C
  C20      1.0000 0.30183  0.44630  0.81270  Biso   1.000  C
  C21      1.0000 0.80183  0.05370  0.31270  Biso   1.000  C
  C22      1.0000 0.19817  0.05370  0.18730  Biso   1.000  C
  C23      1.0000 0.30183  0.55370  0.31270  Biso   1.000  C
  C24      1.0000 0.69817  0.55370  0.18730  Biso   1.000  C
  H17      1.0000 0.19350  0.97350  0.74020  Biso   1.000  H
  H18      1.0000 0.80650  0.97350  0.75980  Biso   1.000  H
  H19      1.0000 0.69350  0.47350  0.74020  Biso   1.000  H
  H20      1.0000 0.30650  0.47350  0.75980  Biso   1.000  H
  H21      1.0000 0.80650  0.02650  0.25980  Biso   1.000  H
  H22      1.0000 0.19350  0.02650  0.24020  Biso   1.000  H
  H23      1.0000 0.30650  0.52650  0.25980  Biso   1.000  H
  H24      1.0000 0.69350  0.52650  0.24020  Biso   1.000  H
  H25      1.0000 0.20170  0.11750  0.66640  Biso   1.000  H
  H26      1.0000 0.79830  0.11750  0.83360  Biso   1.000  H
  H27      1.0000 0.70170  0.61750  0.66640  Biso   1.000  H
  H28      1.0000 0.29830  0.61750  0.83360  Biso   1.000  H
  H29      1.0000 0.79830  0.88250  0.33360  Biso   1.000  H
  H30      1.0000 0.20170  0.88250  0.16640  Biso   1.000  H
  H31      1.0000 0.29830  0.38250  0.33360  Biso   1.000  H
  H32      1.0000 0.70170  0.38250  0.16640  Biso   1.000  H
  C25      1.0000 0.17716  0.82370  0.62570  Biso   1.000  C
  C26      1.0000 0.82284  0.82370  0.87430  Biso   1.000  C
  C27      1.0000 0.67716  0.32370  0.62570  Biso   1.000  C
  C28      1.0000 0.32284  0.32370  0.87430  Biso   1.000  C
  C29      1.0000 0.82284  0.17630  0.37430  Biso   1.000  C
  C30      1.0000 0.17716  0.17630  0.12570  Biso   1.000  C
  C31      1.0000 0.32284  0.67630  0.37430  Biso   1.000  C
  C32      1.0000 0.67716  0.67630  0.12570  Biso   1.000  C
  H33      1.0000 0.18210  0.78980  0.57370  Biso   1.000  H
  H34      1.0000 0.81790  0.78980  0.92630  Biso   1.000  H
  H35      1.0000 0.68210  0.28980  0.57370  Biso   1.000  H
  H36      1.0000 0.31790  0.28980  0.92630  Biso   1.000  H
  H37      1.0000 0.81790  0.21020  0.42630  Biso   1.000  H
  H38      1.0000 0.18210  0.21020  0.07370  Biso   1.000  H
  H39      1.0000 0.31790  0.71020  0.42630  Biso   1.000  H
  H40      1.0000 0.68210  0.71020  0.07370  Biso   1.000  H
  H41      1.0000 0.17340  0.65530  0.64780  Biso   1.000  H
  H42      1.0000 0.82660  0.65530  0.85220  Biso   1.000  H
  H43      1.0000 0.67340  0.15530  0.64780  Biso   1.000  H
  H44      1.0000 0.32660  0.15530  0.85220  Biso   1.000  H
  H45      1.0000 0.82660  0.34470  0.35220  Biso   1.000  H
  H46      1.0000 0.17340  0.34470  0.14780  Biso   1.000  H
  H47      1.0000 0.32660  0.84470  0.35220  Biso   1.000  H
  H48      1.0000 0.67340  0.84470  0.14780  Biso   1.000  H
  C33      1.0000 0.15454  0.98860  0.60690  Biso   1.000  C
  C34      1.0000 0.84546  0.98860  0.89310  Biso   1.000  C
  C35      1.0000 0.65454  0.48860  0.60690  Biso   1.000  C
  C36      1.0000 0.34546  0.48860  0.89310  Biso   1.000  C
  C37      1.0000 0.84546  0.01140  0.39310  Biso   1.000  C
  C38      1.0000 0.15454  0.01140  0.10690  Biso   1.000  C
  C39      1.0000 0.34546  0.51140  0.39310  Biso   1.000  C
  C40      1.0000 0.65454  0.51140  0.10690  Biso   1.000  C
  H49      1.0000 0.14990  0.02870  0.65910  Biso   1.000  H
  H50      1.0000 0.85010  0.02870  0.84090  Biso   1.000  H
  H51      1.0000 0.64990  0.52870  0.65910  Biso   1.000  H
  H52      1.0000 0.35010  0.52870  0.84090  Biso   1.000  H
  H53      1.0000 0.85010  0.97130  0.34090  Biso   1.000  H
  H54      1.0000 0.14990  0.97130  0.15910  Biso   1.000  H
  H55      1.0000 0.35010  0.47130  0.34090  Biso   1.000  H
  H56      1.0000 0.64990  0.47130  0.15910  Biso   1.000  H
  H57      1.0000 0.15810  0.15410  0.58250  Biso   1.000  H
  H58      1.0000 0.84190  0.15410  0.91750  Biso   1.000  H
  H59      1.0000 0.65810  0.65410  0.58250  Biso   1.000  H
  H60      1.0000 0.34190  0.65410  0.91750  Biso   1.000  H
  H61      1.0000 0.84190  0.84590  0.41750  Biso   1.000  H
  H62      1.0000 0.15810  0.84590  0.08250  Biso   1.000  H
  H63      1.0000 0.34190  0.34590  0.41750  Biso   1.000  H
  H64      1.0000 0.65810  0.34590  0.08250  Biso   1.000  H
  C41      1.0000 0.13350  0.86140  0.54860  Biso   1.000  C
  C42      1.0000 0.86650  0.86140  0.95140  Biso   1.000  C
  C43      1.0000 0.63350  0.36140  0.54860  Biso   1.000  C
  C44      1.0000 0.36650  0.36140  0.95140  Biso   1.000  C
  C45      1.0000 0.86650  0.13860  0.45140  Biso   1.000  C
  C46      1.0000 0.13350  0.13860  0.04860  Biso   1.000  C
  C47      1.0000 0.36650  0.63860  0.45140  Biso   1.000  C
  C48      1.0000 0.63350  0.63860  0.04860  Biso   1.000  C
  H65      1.0000 0.13040  0.69320  0.57220  Biso   1.000  H
  H66      1.0000 0.86960  0.69320  0.92780  Biso   1.000  H
  H67      1.0000 0.63040  0.19320  0.57220  Biso   1.000  H
  H68      1.0000 0.36960  0.19320  0.92780  Biso   1.000  H
  H69      1.0000 0.86960  0.30680  0.42780  Biso   1.000  H
  H70      1.0000 0.13040  0.30680  0.07220  Biso   1.000  H
  H71      1.0000 0.36960  0.80680  0.42780  Biso   1.000  H
  H72      1.0000 0.63040  0.80680  0.07220  Biso   1.000  H
  H73      1.0000 0.13800  0.82590  0.49590  Biso   1.000  H
  H74      1.0000 0.86200  0.82590  0.00410  Biso   1.000  H
  H75      1.0000 0.63800  0.32590  0.49590  Biso   1.000  H
  H76      1.0000 0.36200  0.32590  0.00410  Biso   1.000  H
  H77      1.0000 0.86200  0.17410  0.50410  Biso   1.000  H
  H78      1.0000 0.13800  0.17410  0.99590  Biso   1.000  H
  H79      1.0000 0.36200  0.67410  0.50410  Biso   1.000  H
  H80      1.0000 0.63800  0.67410  0.99590  Biso   1.000  H
  C49      1.0000 0.11046  0.01840  0.53070  Biso   1.000  C
  C50      1.0000 0.88954  0.01840  0.96930  Biso   1.000  C
  C51      1.0000 0.61046  0.51840  0.53070  Biso   1.000  C
  C52      1.0000 0.38954  0.51840  0.96930  Biso   1.000  C
  C53      1.0000 0.88954  0.98160  0.46930  Biso   1.000  C
  C54      1.0000 0.11046  0.98160  0.03070  Biso   1.000  C
  C55      1.0000 0.38954  0.48160  0.46930  Biso   1.000  C
  C56      1.0000 0.61046  0.48160  0.03070  Biso   1.000  C
  H81      1.0000 0.10640  0.06270  0.58350  Biso   1.000  H
  H82      1.0000 0.89360  0.06270  0.91650  Biso   1.000  H
  H83      1.0000 0.60640  0.56270  0.58350  Biso   1.000  H
  H84      1.0000 0.39360  0.56270  0.91650  Biso   1.000  H
  H85      1.0000 0.89360  0.93730  0.41650  Biso   1.000  H
  H86      1.0000 0.10640  0.93730  0.08350  Biso   1.000  H
  H87      1.0000 0.39360  0.43730  0.41650  Biso   1.000  H
  H88      1.0000 0.60640  0.43730  0.08350  Biso   1.000  H
  H89      1.0000 0.11330  0.18220  0.50390  Biso   1.000  H
  H90      1.0000 0.88670  0.18220  0.99610  Biso   1.000  H
  H91      1.0000 0.61330  0.68220  0.50390  Biso   1.000  H
  H92      1.0000 0.38670  0.68220  0.99610  Biso   1.000  H
  H93      1.0000 0.88670  0.81780  0.49610  Biso   1.000  H
  H94      1.0000 0.11330  0.81780  0.00390  Biso   1.000  H
  H95      1.0000 0.38670  0.31780  0.49610  Biso   1.000  H
  H96      1.0000 0.61330  0.31780  0.00390  Biso   1.000  H
  C57      1.0000 0.08950  0.88540  0.47710  Biso   1.000  C
  C58      1.0000 0.91050  0.88540  0.02290  Biso   1.000  C
  C59      1.0000 0.58950  0.38540  0.47710  Biso   1.000  C
  C60      1.0000 0.41050  0.38540  0.02290  Biso   1.000  C
  C61      1.0000 0.91050  0.11460  0.52290  Biso   1.000  C
  C62      1.0000 0.08950  0.11460  0.97710  Biso   1.000  C
  C63      1.0000 0.41050  0.61460  0.52290  Biso   1.000  C
  C64      1.0000 0.58950  0.61460  0.97710  Biso   1.000  C
  H97      1.0000 0.08720  0.71740  0.50250  Biso   1.000  H
  H98      1.0000 0.91280  0.71740  0.99750  Biso   1.000  H
  H99      1.0000 0.58720  0.21740  0.50250  Biso   1.000  H
  H100     1.0000 0.41280  0.21740  0.99750  Biso   1.000  H
  H101     1.0000 0.91280  0.28260  0.49750  Biso   1.000  H
  H102     1.0000 0.08720  0.28260  0.00250  Biso   1.000  H
  H103     1.0000 0.41280  0.78260  0.49750  Biso   1.000  H
  H104     1.0000 0.58720  0.78260  0.00250  Biso   1.000  H
  H105     1.0000 0.09330  0.84880  0.42340  Biso   1.000  H
  H106     1.0000 0.90670  0.84880  0.07660  Biso   1.000  H
  H107     1.0000 0.59330  0.34880  0.42340  Biso   1.000  H
  H108     1.0000 0.40670  0.34880  0.07660  Biso   1.000  H
  H109     1.0000 0.90670  0.15120  0.57660  Biso   1.000  H
  H110     1.0000 0.09330  0.15120  0.92340  Biso   1.000  H
  H111     1.0000 0.40670  0.65120  0.57660  Biso   1.000  H
  H112     1.0000 0.59330  0.65120  0.92340  Biso   1.000  H
  C65      1.0000 0.06626  0.03230  0.46210  Biso   1.000  C
  C66      1.0000 0.93374  0.03230  0.03790  Biso   1.000  C
  C67      1.0000 0.56626  0.53230  0.46210  Biso   1.000  C
  C68      1.0000 0.43374  0.53230  0.03790  Biso   1.000  C
  C69      1.0000 0.93374  0.96770  0.53790  Biso   1.000  C
  C70      1.0000 0.06626  0.96770  0.96210  Biso   1.000  C
  C71      1.0000 0.43374  0.46770  0.53790  Biso   1.000  C
  C72      1.0000 0.56626  0.46770  0.96210  Biso   1.000  C
  H113     1.0000 0.06250  0.07000  0.51580  Biso   1.000  H
  H114     1.0000 0.93750  0.07000  0.98420  Biso   1.000  H
  H115     1.0000 0.56250  0.57000  0.51580  Biso   1.000  H
  H116     1.0000 0.43750  0.57000  0.98420  Biso   1.000  H
  H117     1.0000 0.93750  0.93000  0.48420  Biso   1.000  H
  H118     1.0000 0.06250  0.93000  0.01580  Biso   1.000  H
  H119     1.0000 0.43750  0.43000  0.48420  Biso   1.000  H
  H120     1.0000 0.56250  0.43000  0.01580  Biso   1.000  H
  H121     1.0000 0.06850  0.19960  0.43620  Biso   1.000  H
  H122     1.0000 0.93150  0.19960  0.06380  Biso   1.000  H
  H123     1.0000 0.56850  0.69960  0.43620  Biso   1.000  H
  H124     1.0000 0.43150  0.69960  0.06380  Biso   1.000  H
  H125     1.0000 0.93150  0.80040  0.56380  Biso   1.000  H
  H126     1.0000 0.06850  0.80040  0.93620  Biso   1.000  H
  H127     1.0000 0.43150  0.30040  0.56380  Biso   1.000  H
  H128     1.0000 0.56850  0.30040  0.93620  Biso   1.000  H
  C73      1.0000 0.04554  0.89700  0.40930  Biso   1.000  C
  C74      1.0000 0.95446  0.89700  0.09070  Biso   1.000  C
  C75      1.0000 0.54554  0.39700  0.40930  Biso   1.000  C
  C76      1.0000 0.45446  0.39700  0.09070  Biso   1.000  C
  C77      1.0000 0.95446  0.10300  0.59070  Biso   1.000  C
  C78      1.0000 0.04554  0.10300  0.90930  Biso   1.000  C
  C79      1.0000 0.45446  0.60300  0.59070  Biso   1.000  C
  C80      1.0000 0.54554  0.60300  0.90930  Biso   1.000  C
  H129     1.0000 0.03120  0.00060  0.40610  Biso   1.000  H
  H130     1.0000 0.96880  0.00060  0.09390  Biso   1.000  H
  H131     1.0000 0.53120  0.50060  0.40610  Biso   1.000  H
  H132     1.0000 0.46880  0.50060  0.09390  Biso   1.000  H
  H133     1.0000 0.96880  0.99940  0.59390  Biso   1.000  H
  H134     1.0000 0.03120  0.99940  0.90610  Biso   1.000  H
  H135     1.0000 0.46880  0.49940  0.59390  Biso   1.000  H
  H136     1.0000 0.53120  0.49940  0.90610  Biso   1.000  H
  H137     1.0000 0.04350  0.72790  0.43310  Biso   1.000  H
  H138     1.0000 0.95650  0.72790  0.06690  Biso   1.000  H
  H139     1.0000 0.54350  0.22790  0.43310  Biso   1.000  H
  H140     1.0000 0.45650  0.22790  0.06690  Biso   1.000  H
  H141     1.0000 0.95650  0.27210  0.56690  Biso   1.000  H
  H142     1.0000 0.04350  0.27210  0.93310  Biso   1.000  H
  H143     1.0000 0.45650  0.77210  0.56690  Biso   1.000  H
  H144     1.0000 0.54350  0.77210  0.93310  Biso   1.000  H
  H145     1.0000 0.04840  0.87340  0.35410  Biso   1.000  H
  H146     1.0000 0.95160  0.87340  0.14590  Biso   1.000  H
  H147     1.0000 0.54840  0.37340  0.35410  Biso   1.000  H
  H148     1.0000 0.45160  0.37340  0.14590  Biso   1.000  H
  H149     1.0000 0.95160  0.12660  0.64590  Biso   1.000  H
  H150     1.0000 0.04840  0.12660  0.85410  Biso   1.000  H
  H151     1.0000 0.45160  0.62660  0.64590  Biso   1.000  H
  H152     1.0000 0.54840  0.62660  0.85410  Biso   1.000  H
  C81      1.0000 0.21110  0.51300  0.42670  Biso   1.000  C
  C82      1.0000 0.78890  0.51300  0.07330  Biso   1.000  C
  C83      1.0000 0.71110  0.01300  0.42670  Biso   1.000  C
  C84      1.0000 0.28890  0.01300  0.07330  Biso   1.000  C
  C85      1.0000 0.78890  0.48700  0.57330  Biso   1.000  C
  C86      1.0000 0.21110  0.48700  0.92670  Biso   1.000  C
  C87      1.0000 0.28890  0.98700  0.57330  Biso   1.000  C
  C88      1.0000 0.71110  0.98700  0.92670  Biso   1.000  C
  C89      1.0000 0.18804  0.36710  0.39780  Biso   1.000  C
  C90      1.0000 0.81196  0.36710  0.10220  Biso   1.000  C
  C91      1.0000 0.68804  0.86710  0.39780  Biso   1.000  C
  C92      1.0000 0.31196  0.86710  0.10220  Biso   1.000  C
  C93      1.0000 0.81196  0.63290  0.60220  Biso   1.000  C
  C94      1.0000 0.18804  0.63290  0.89780  Biso   1.000  C
  C95      1.0000 0.31196  0.13290  0.60220  Biso   1.000  C
  C96      1.0000 0.68804  0.13290  0.89780  Biso   1.000  C
  H153     1.0000 0.19090  0.22470  0.36170  Biso   1.000  H
  H154     1.0000 0.80910  0.22470  0.13830  Biso   1.000  H
  H155     1.0000 0.69090  0.72470  0.36170  Biso   1.000  H
  H156     1.0000 0.30910  0.72470  0.13830  Biso   1.000  H
  H157     1.0000 0.80910  0.77530  0.63830  Biso   1.000  H
  H158     1.0000 0.19090  0.77530  0.86170  Biso   1.000  H
  H159     1.0000 0.30910  0.27530  0.63830  Biso   1.000  H
  H160     1.0000 0.69090  0.27530  0.86170  Biso   1.000  H
  H161     1.0000 0.18370  0.28780  0.44630  Biso   1.000  H
  H162     1.0000 0.81630  0.28780  0.05370  Biso   1.000  H
  H163     1.0000 0.68370  0.78780  0.44630  Biso   1.000  H
  H164     1.0000 0.31630  0.78780  0.05370  Biso   1.000  H
  H165     1.0000 0.81630  0.71220  0.55370  Biso   1.000  H
  H166     1.0000 0.18370  0.71220  0.94630  Biso   1.000  H
  H167     1.0000 0.31630  0.21220  0.55370  Biso   1.000  H
  H168     1.0000 0.68370  0.21220  0.94630  Biso   1.000  H
  C97      1.0000 0.16695  0.52070  0.35200  Biso   1.000  C
  C98      1.0000 0.83305  0.52070  0.14800  Biso   1.000  C
  C99      1.0000 0.66695  0.02070  0.35200  Biso   1.000  C
  C100     1.0000 0.33305  0.02070  0.14800  Biso   1.000  C
  C101     1.0000 0.83305  0.47930  0.64800  Biso   1.000  C
  C102     1.0000 0.16695  0.47930  0.85200  Biso   1.000  C
  C103     1.0000 0.33305  0.97930  0.64800  Biso   1.000  C
  C104     1.0000 0.66695  0.97930  0.85200  Biso   1.000  C
  H169     1.0000 0.17070  0.59040  0.30120  Biso   1.000  H
  H170     1.0000 0.82930  0.59040  0.19880  Biso   1.000  H
  H171     1.0000 0.67070  0.09040  0.30120  Biso   1.000  H
  H172     1.0000 0.32930  0.09040  0.19880  Biso   1.000  H
  H173     1.0000 0.82930  0.40960  0.69880  Biso   1.000  H
  H174     1.0000 0.17070  0.40960  0.80120  Biso   1.000  H
  H175     1.0000 0.32930  0.90960  0.69880  Biso   1.000  H
  H176     1.0000 0.67070  0.90960  0.80120  Biso   1.000  H
  H177     1.0000 0.16450  0.66940  0.38640  Biso   1.000  H
  H178     1.0000 0.83550  0.66940  0.11360  Biso   1.000  H
  H179     1.0000 0.66450  0.16940  0.38640  Biso   1.000  H
  H180     1.0000 0.33550  0.16940  0.11360  Biso   1.000  H
  H181     1.0000 0.83550  0.33060  0.61360  Biso   1.000  H
  H182     1.0000 0.16450  0.33060  0.88640  Biso   1.000  H
  H183     1.0000 0.33550  0.83060  0.61360  Biso   1.000  H
  H184     1.0000 0.66450  0.83060  0.88640  Biso   1.000  H
  C105     1.0000 0.14393  0.36830  0.32900  Biso   1.000  C
  C106     1.0000 0.85607  0.36830  0.17100  Biso   1.000  C
  C107     1.0000 0.64393  0.86830  0.32900  Biso   1.000  C
  C108     1.0000 0.35607  0.86830  0.17100  Biso   1.000  C
  C109     1.0000 0.85607  0.63170  0.67100  Biso   1.000  C
  C110     1.0000 0.14393  0.63170  0.82900  Biso   1.000  C
  C111     1.0000 0.35607  0.13170  0.67100  Biso   1.000  C
  C112     1.0000 0.64393  0.13170  0.82900  Biso   1.000  C
  H185     1.0000 0.14660  0.21670  0.29620  Biso   1.000  H
  H186     1.0000 0.85340  0.21670  0.20380  Biso   1.000  H
  H187     1.0000 0.64660  0.71670  0.29620  Biso   1.000  H
  H188     1.0000 0.35340  0.71670  0.20380  Biso   1.000  H
  H189     1.0000 0.85340  0.78330  0.70380  Biso   1.000  H
  H190     1.0000 0.14660  0.78330  0.79620  Biso   1.000  H
  H191     1.0000 0.35340  0.28330  0.70380  Biso   1.000  H
  H192     1.0000 0.64660  0.28330  0.79620  Biso   1.000  H
  H193     1.0000 0.14000  0.30270  0.38010  Biso   1.000  H
  H194     1.0000 0.86000  0.30270  0.11990  Biso   1.000  H
  H195     1.0000 0.64000  0.80270  0.38010  Biso   1.000  H
  H196     1.0000 0.36000  0.80270  0.11990  Biso   1.000  H
  H197     1.0000 0.86000  0.69730  0.61990  Biso   1.000  H
  H198     1.0000 0.14000  0.69730  0.88010  Biso   1.000  H
  H199     1.0000 0.36000  0.19730  0.61990  Biso   1.000  H
  H200     1.0000 0.64000  0.19730  0.88010  Biso   1.000  H
  C113     1.0000 0.12263  0.51640  0.28100  Biso   1.000  C
  C114     1.0000 0.87737  0.51640  0.21900  Biso   1.000  C
  C115     1.0000 0.62263  0.01640  0.28100  Biso   1.000  C
  C116     1.0000 0.37737  0.01640  0.21900  Biso   1.000  C
  C117     1.0000 0.87737  0.48360  0.71900  Biso   1.000  C
  C118     1.0000 0.12263  0.48360  0.78100  Biso   1.000  C
  C119     1.0000 0.37737  0.98360  0.71900  Biso   1.000  C
  C120     1.0000 0.62263  0.98360  0.78100  Biso   1.000  C
  H201     1.0000 0.12020  0.66980  0.31350  Biso   1.000  H
  H202     1.0000 0.87980  0.66980  0.18650  Biso   1.000  H
  H203     1.0000 0.62020  0.16980  0.31350  Biso   1.000  H
  H204     1.0000 0.37980  0.16980  0.18650  Biso   1.000  H
  H205     1.0000 0.87980  0.33020  0.68650  Biso   1.000  H
  H206     1.0000 0.12020  0.33020  0.81350  Biso   1.000  H
  H207     1.0000 0.37980  0.83020  0.68650  Biso   1.000  H
  H208     1.0000 0.62020  0.83020  0.81350  Biso   1.000  H
  H209     1.0000 0.12650  0.57950  0.22960  Biso   1.000  H
  H210     1.0000 0.87350  0.57950  0.27040  Biso   1.000  H
  H211     1.0000 0.62650  0.07950  0.22960  Biso   1.000  H
  H212     1.0000 0.37350  0.07950  0.27040  Biso   1.000  H
  H213     1.0000 0.87350  0.42050  0.77040  Biso   1.000  H
  H214     1.0000 0.12650  0.42050  0.72960  Biso   1.000  H
  H215     1.0000 0.37350  0.92050  0.77040  Biso   1.000  H
  H216     1.0000 0.62650  0.92050  0.72960  Biso   1.000  H
  C121     1.0000 0.09953  0.37000  0.25890  Biso   1.000  C
  C122     1.0000 0.90047  0.37000  0.24110  Biso   1.000  C
  C123     1.0000 0.59953  0.87000  0.25890  Biso   1.000  C
  C124     1.0000 0.40047  0.87000  0.24110  Biso   1.000  C
  C125     1.0000 0.90047  0.63000  0.74110  Biso   1.000  C
  C126     1.0000 0.09953  0.63000  0.75890  Biso   1.000  C
  C127     1.0000 0.40047  0.13000  0.74110  Biso   1.000  C
  C128     1.0000 0.59953  0.13000  0.75890  Biso   1.000  C
  H217     1.0000 0.09590  0.30350  0.31030  Biso   1.000  H
  H218     1.0000 0.90410  0.30350  0.18970  Biso   1.000  H
  H219     1.0000 0.59590  0.80350  0.31030  Biso   1.000  H
  H220     1.0000 0.40410  0.80350  0.18970  Biso   1.000  H
  H221     1.0000 0.90410  0.69650  0.68970  Biso   1.000  H
  H222     1.0000 0.09590  0.69650  0.81030  Biso   1.000  H
  H223     1.0000 0.40410  0.19650  0.68970  Biso   1.000  H
  H224     1.0000 0.59590  0.19650  0.81030  Biso   1.000  H
  H225     1.0000 0.10190  0.21850  0.22550  Biso   1.000  H
  H226     1.0000 0.89810  0.21850  0.27450  Biso   1.000  H
  H227     1.0000 0.60190  0.71850  0.22550  Biso   1.000  H
  H228     1.0000 0.39810  0.71850  0.27450  Biso   1.000  H
  H229     1.0000 0.89810  0.78150  0.77450  Biso   1.000  H
  H230     1.0000 0.10190  0.78150  0.72550  Biso   1.000  H
  H231     1.0000 0.39810  0.28150  0.77450  Biso   1.000  H
  H232     1.0000 0.60190  0.28150  0.72550  Biso   1.000  H
  C129     1.0000 0.07810  0.51590  0.21260  Biso   1.000  C
  C130     1.0000 0.92190  0.51590  0.28740  Biso   1.000  C
  C131     1.0000 0.57810  0.01590  0.21260  Biso   1.000  C
  C132     1.0000 0.42190  0.01590  0.28740  Biso   1.000  C
  C133     1.0000 0.92190  0.48410  0.78740  Biso   1.000  C
  C134     1.0000 0.07810  0.48410  0.71260  Biso   1.000  C
  C135     1.0000 0.42190  0.98410  0.78740  Biso   1.000  C
  C136     1.0000 0.57810  0.98410  0.71260  Biso   1.000  C
  H233     1.0000 0.08170  0.58260  0.16130  Biso   1.000  H
  H234     1.0000 0.91830  0.58260  0.33870  Biso   1.000  H
  H235     1.0000 0.58170  0.08260  0.16130  Biso   1.000  H
  H236     1.0000 0.41830  0.08260  0.33870  Biso   1.000  H
  H237     1.0000 0.91830  0.41740  0.83870  Biso   1.000  H
  H238     1.0000 0.08170  0.41740  0.66130  Biso   1.000  H
  H239     1.0000 0.41830  0.91740  0.83870  Biso   1.000  H
  H240     1.0000 0.58170  0.91740  0.66130  Biso   1.000  H
  H241     1.0000 0.07560  0.66690  0.24600  Biso   1.000  H
  H242     1.0000 0.92440  0.66690  0.25400  Biso   1.000  H
  H243     1.0000 0.57560  0.16690  0.24600  Biso   1.000  H
  H244     1.0000 0.42440  0.16690  0.25400  Biso   1.000  H
  H245     1.0000 0.92440  0.33310  0.75400  Biso   1.000  H
  H246     1.0000 0.07560  0.33310  0.74600  Biso   1.000  H
  H247     1.0000 0.42440  0.83310  0.75400  Biso   1.000  H
  H248     1.0000 0.57560  0.83310  0.74600  Biso   1.000  H
  C137     1.0000 0.05503  0.36510  0.19070  Biso   1.000  C
  C138     1.0000 0.94497  0.36510  0.30930  Biso   1.000  C
  C139     1.0000 0.55503  0.86510  0.19070  Biso   1.000  C
  C140     1.0000 0.44497  0.86510  0.30930  Biso   1.000  C
  C141     1.0000 0.94497  0.63490  0.80930  Biso   1.000  C
  C142     1.0000 0.05503  0.63490  0.69070  Biso   1.000  C
  C143     1.0000 0.44497  0.13490  0.80930  Biso   1.000  C
  C144     1.0000 0.55503  0.13490  0.69070  Biso   1.000  C
  H249     1.0000 0.05760  0.21420  0.15740  Biso   1.000  H
  H250     1.0000 0.94240  0.21420  0.34260  Biso   1.000  H
  H251     1.0000 0.55760  0.71420  0.15740  Biso   1.000  H
  H252     1.0000 0.44240  0.71420  0.34260  Biso   1.000  H
  H253     1.0000 0.94240  0.78580  0.84260  Biso   1.000  H
  H254     1.0000 0.05760  0.78580  0.65740  Biso   1.000  H
  H255     1.0000 0.44240  0.28580  0.84260  Biso   1.000  H
  H256     1.0000 0.55760  0.28580  0.65740  Biso   1.000  H
  H257     1.0000 0.05150  0.29800  0.24220  Biso   1.000  H
  H258     1.0000 0.94850  0.29800  0.25780  Biso   1.000  H
  H259     1.0000 0.55150  0.79800  0.24220  Biso   1.000  H
  H260     1.0000 0.44850  0.79800  0.25780  Biso   1.000  H
  H261     1.0000 0.94850  0.70200  0.75780  Biso   1.000  H
  H262     1.0000 0.05150  0.70200  0.74220  Biso   1.000  H
  H263     1.0000 0.44850  0.20200  0.75780  Biso   1.000  H
  H264     1.0000 0.55150  0.20200  0.74220  Biso   1.000  H
  C145     1.0000 0.03338  0.50850  0.14450  Biso   1.000  C
  C146     1.0000 0.96662  0.50850  0.35550  Biso   1.000  C
  C147     1.0000 0.53338  0.00850  0.14450  Biso   1.000  C
  C148     1.0000 0.46662  0.00850  0.35550  Biso   1.000  C
  C149     1.0000 0.96662  0.49150  0.85550  Biso   1.000  C
  C150     1.0000 0.03338  0.49150  0.64450  Biso   1.000  C
  C151     1.0000 0.46662  0.99150  0.85550  Biso   1.000  C
  C152     1.0000 0.53338  0.99150  0.64450  Biso   1.000  C
  H265     1.0000 0.03080  0.65930  0.17780  Biso   1.000  H
  H266     1.0000 0.96920  0.65930  0.32220  Biso   1.000  H
  H267     1.0000 0.53080  0.15930  0.17780  Biso   1.000  H
  H268     1.0000 0.46920  0.15930  0.32220  Biso   1.000  H
  H269     1.0000 0.96920  0.34070  0.82220  Biso   1.000  H
  H270     1.0000 0.03080  0.34070  0.67780  Biso   1.000  H
  H271     1.0000 0.46920  0.84070  0.82220  Biso   1.000  H
  H272     1.0000 0.53080  0.84070  0.67780  Biso   1.000  H
  H273     1.0000 0.03680  0.57540  0.09290  Biso   1.000  H
  H274     1.0000 0.96320  0.57540  0.40710  Biso   1.000  H
  H275     1.0000 0.53680  0.07540  0.09290  Biso   1.000  H
  H276     1.0000 0.46320  0.07540  0.40710  Biso   1.000  H
  H277     1.0000 0.96320  0.42460  0.90710  Biso   1.000  H
  H278     1.0000 0.03680  0.42460  0.59290  Biso   1.000  H
  H279     1.0000 0.46320  0.92460  0.90710  Biso   1.000  H
  H280     1.0000 0.53680  0.92460  0.59290  Biso   1.000  H
  C153     1.0000 0.01137  0.36000  0.12410  Biso   1.000  C
  C154     1.0000 0.98863  0.36000  0.37590  Biso   1.000  C
  C155     1.0000 0.51137  0.86000  0.12410  Biso   1.000  C
  C156     1.0000 0.48863  0.86000  0.37590  Biso   1.000  C
  C157     1.0000 0.98863  0.64000  0.87590  Biso   1.000  C
  C158     1.0000 0.01137  0.64000  0.62410  Biso   1.000  C
  C159     1.0000 0.48863  0.14000  0.87590  Biso   1.000  C
  C160     1.0000 0.51137  0.14000  0.62410  Biso   1.000  C
  H281     1.0000 0.99960  0.45590  0.08410  Biso   1.000  H
  H282     1.0000 0.00040  0.45590  0.41590  Biso   1.000  H
  H283     1.0000 0.49960  0.95590  0.08410  Biso   1.000  H
  H284     1.0000 0.50040  0.95590  0.41590  Biso   1.000  H
  H285     1.0000 0.00040  0.54410  0.91590  Biso   1.000  H
  H286     1.0000 0.99960  0.54410  0.58410  Biso   1.000  H
  H287     1.0000 0.50040  0.04410  0.91590  Biso   1.000  H
  H288     1.0000 0.49960  0.04410  0.58410  Biso   1.000  H
  H289     1.0000 0.00540  0.33120  0.17390  Biso   1.000  H
  H290     1.0000 0.99460  0.33120  0.32610  Biso   1.000  H
  H291     1.0000 0.50540  0.83120  0.17390  Biso   1.000  H
  H292     1.0000 0.49460  0.83120  0.32610  Biso   1.000  H
  H293     1.0000 0.99460  0.66880  0.82610  Biso   1.000  H
  H294     1.0000 0.00540  0.66880  0.67390  Biso   1.000  H
  H295     1.0000 0.49460  0.16880  0.82610  Biso   1.000  H
  H296     1.0000 0.50540  0.16880  0.67390  Biso   1.000  H
  H297     1.0000 0.01440  0.19330  0.10070  Biso   1.000  H
  H298     1.0000 0.98560  0.19330  0.39930  Biso   1.000  H
  H299     1.0000 0.51440  0.69330  0.10070  Biso   1.000  H
  H300     1.0000 0.48560  0.69330  0.39930  Biso   1.000  H
  H301     1.0000 0.98560  0.80670  0.89930  Biso   1.000  H
  H302     1.0000 0.01440  0.80670  0.60070  Biso   1.000  H
  H303     1.0000 0.48560  0.30670  0.89930  Biso   1.000  H
  H304     1.0000 0.51440  0.30670  0.60070  Biso   1.000  H
  O1       1.0000 0.22739  0.94600  0.57438  Biso   1.000  O
  O2       1.0000 0.77261  0.94600  0.92562  Biso   1.000  O
  O3       1.0000 0.72739  0.44600  0.57438  Biso   1.000  O
  O4       1.0000 0.27261  0.44600  0.92562  Biso   1.000  O
  O5       1.0000 0.77261  0.05400  0.42562  Biso   1.000  O
  O6       1.0000 0.22739  0.05400  0.07438  Biso   1.000  O
  O7       1.0000 0.27261  0.55400  0.42562  Biso   1.000  O
  O8       1.0000 0.72739  0.55400  0.07438  Biso   1.000  O
  O9       1.0000 0.24605  0.57570  0.62225  Biso   1.000  O
  O10      1.0000 0.75395  0.57570  0.87775  Biso   1.000  O
  O11      1.0000 0.74605  0.07570  0.62225  Biso   1.000  O
  O12      1.0000 0.25395  0.07570  0.87775  Biso   1.000  O
  O13      1.0000 0.75395  0.42430  0.37775  Biso   1.000  O
  O14      1.0000 0.24605  0.42430  0.12225  Biso   1.000  O
  O15      1.0000 0.25395  0.92430  0.37775  Biso   1.000  O
  O16      1.0000 0.74605  0.92430  0.12225  Biso   1.000  O
  O17      1.0000 0.21121  0.75850  0.41839  Biso   1.000  O
  O18      1.0000 0.78879  0.75850  0.08161  Biso   1.000  O
  O19      1.0000 0.71121  0.25850  0.41839  Biso   1.000  O
  O20      1.0000 0.28879  0.25850  0.08161  Biso   1.000  O
  O21      1.0000 0.78879  0.24150  0.58161  Biso   1.000  O
  O22      1.0000 0.21121  0.24150  0.91839  Biso   1.000  O
  O23      1.0000 0.28879  0.74150  0.58161  Biso   1.000  O
  O24      1.0000 0.71121  0.74150  0.91839  Biso   1.000  O
  O25      1.0000 0.22964  0.38330  0.45972  Biso   1.000  O
  O26      1.0000 0.77036  0.38330  0.04028  Biso   1.000  O
  O27      1.0000 0.72964  0.88330  0.45972  Biso   1.000  O
  O28      1.0000 0.27036  0.88330  0.04028  Biso   1.000  O
  O29      1.0000 0.77036  0.61670  0.54028  Biso   1.000  O
  O30      1.0000 0.22964  0.61670  0.95972  Biso   1.000  O
  O31      1.0000 0.27036  0.11670  0.54028  Biso   1.000  O
  O32      1.0000 0.72964  0.11670  0.95972  Biso   1.000  O
  Cu1      1.0000 0.23924  0.96608  0.47294  Biso   1.000  Cu
  Cu2      1.0000 0.76076  0.96608  0.02706  Biso   1.000  Cu
  Cu3      1.0000 0.73924  0.46608  0.47294  Biso   1.000  Cu
  Cu4      1.0000 0.26076  0.46608  0.02706  Biso   1.000  Cu
  Cu5      1.0000 0.76076  0.03392  0.52706  Biso   1.000  Cu
  Cu6      1.0000 0.23924  0.03392  0.97294  Biso   1.000  Cu
  Cu7      1.0000 0.26076  0.53392  0.52706  Biso   1.000  Cu
  Cu8      1.0000 0.73924  0.53392  0.97294  Biso   1.000  Cu
