data_image0
_cell_length_a       8.7133
_cell_length_b       9.062
_cell_length_c       17.1232
_cell_angle_alpha    90
_cell_angle_beta     101.895
_cell_angle_gamma    90

_symmetry_space_group_name_H-M    "P 1"
_symmetry_int_tables_number       1

loop_
  _symmetry_equiv_pos_as_xyz
  'x, y, z'

loop_
  _atom_site_label
  _atom_site_occupancy
  _atom_site_fract_x
  _atom_site_fract_y
  _atom_site_fract_z
  _atom_site_thermal_displace_type
  _atom_site_B_iso_or_equiv
  _atom_site_type_symbol
  C1       1.0000 0.76920  0.54920  0.46990  Biso   1.000  C
  C2       1.0000 0.73080  0.04920  0.03010  Biso   1.000  C
  C3       1.0000 0.23080  0.45080  0.53010  Biso   1.000  C
  C4       1.0000 0.26920  0.95080  0.96990  Biso   1.000  C
  N1       1.0000 0.61000  0.40520  0.36870  Biso   1.000  N
  N2       1.0000 0.89000  0.90520  0.13130  Biso   1.000  N
  N3       1.0000 0.39000  0.59480  0.63130  Biso   1.000  N
  N4       1.0000 0.11000  0.09480  0.86870  Biso   1.000  N
  C5       1.0000 0.52190  0.28820  0.34570  Biso   1.000  C
  C6       1.0000 0.97810  0.78820  0.15430  Biso   1.000  C
  C7       1.0000 0.47810  0.71180  0.65430  Biso   1.000  C
  C8       1.0000 0.02190  0.21180  0.84570  Biso   1.000  C
  H1       1.0000 0.48457  0.27159  0.29025  Biso   1.000  H
  H2       1.0000 0.01543  0.77159  0.20975  Biso   1.000  H
  H3       1.0000 0.51543  0.72841  0.70975  Biso   1.000  H
  H4       1.0000 0.98457  0.22841  0.79025  Biso   1.000  H
  C9       1.0000 0.48120  0.18680  0.40070  Biso   1.000  C
  C10      1.0000 0.01880  0.68680  0.09930  Biso   1.000  C
  C11      1.0000 0.51880  0.81320  0.59930  Biso   1.000  C
  C12      1.0000 0.98120  0.31320  0.90070  Biso   1.000  C
  H5       1.0000 0.41754  0.10356  0.38258  Biso   1.000  H
  H6       1.0000 0.08246  0.60356  0.11742  Biso   1.000  H
  H7       1.0000 0.58246  0.89644  0.61742  Biso   1.000  H
  H8       1.0000 0.91754  0.39644  0.88258  Biso   1.000  H
  C13      1.0000 0.53560  0.21060  0.48160  Biso   1.000  C
  C14      1.0000 0.96440  0.71060  0.01840  Biso   1.000  C
  C15      1.0000 0.46440  0.78940  0.51840  Biso   1.000  C
  C16      1.0000 0.03560  0.28940  0.98160  Biso   1.000  C
  H9       1.0000 0.50799  0.14444  0.51944  Biso   1.000  H
  H10      1.0000 0.99201  0.64444  0.98056  Biso   1.000  H
  H11      1.0000 0.49201  0.85556  0.48056  Biso   1.000  H
  H12      1.0000 0.00799  0.35556  0.01944  Biso   1.000  H
  C17      1.0000 0.63170  0.33320  0.50750  Biso   1.000  C
  C18      1.0000 0.86830  0.83320  0.99250  Biso   1.000  C
  C19      1.0000 0.36830  0.66680  0.49250  Biso   1.000  C
  C20      1.0000 0.13170  0.16680  0.00750  Biso   1.000  C
  C21      1.0000 0.66600  0.42700  0.44790  Biso   1.000  C
  C22      1.0000 0.83400  0.92700  0.05210  Biso   1.000  C
  C23      1.0000 0.33400  0.57300  0.55210  Biso   1.000  C
  C24      1.0000 0.16600  0.07300  0.94790  Biso   1.000  C
  C25      1.0000 0.69660  0.36660  0.58920  Biso   1.000  C
  C26      1.0000 0.80340  0.86660  0.91080  Biso   1.000  C
  C27      1.0000 0.30340  0.63340  0.41080  Biso   1.000  C
  C28      1.0000 0.19660  0.13340  0.08920  Biso   1.000  C
  H13      1.0000 0.67025  0.30632  0.62990  Biso   1.000  H
  H14      1.0000 0.82975  0.80632  0.87010  Biso   1.000  H
  H15      1.0000 0.32975  0.69368  0.37010  Biso   1.000  H
  H16      1.0000 0.17025  0.19368  0.12990  Biso   1.000  H
  C29      1.0000 0.79490  0.48270  0.60990  Biso   1.000  C
  C30      1.0000 0.70510  0.98270  0.89010  Biso   1.000  C
  C31      1.0000 0.20510  0.51730  0.39010  Biso   1.000  C
  C32      1.0000 0.29490  0.01730  0.10990  Biso   1.000  C
  H17      1.0000 0.83590  0.50237  0.66472  Biso   1.000  H
  H18      1.0000 0.66410  0.00237  0.83528  Biso   1.000  H
  H19      1.0000 0.16410  0.49763  0.33528  Biso   1.000  H
  H20      1.0000 0.33590  0.99763  0.16472  Biso   1.000  H
  C33      1.0000 0.83800  0.57630  0.55010  Biso   1.000  C
  C34      1.0000 0.66200  0.07630  0.94990  Biso   1.000  C
  C35      1.0000 0.16200  0.42370  0.44990  Biso   1.000  C
  C36      1.0000 0.33800  0.92370  0.05010  Biso   1.000  C
  C37      1.0000 0.94590  0.69400  0.56600  Biso   1.000  C
  C38      1.0000 0.55410  0.19400  0.93400  Biso   1.000  C
  C39      1.0000 0.05410  0.30600  0.43400  Biso   1.000  C
  C40      1.0000 0.44590  0.80600  0.06600  Biso   1.000  C
  H21      1.0000 0.99667  0.71603  0.61927  Biso   1.000  H
  H22      1.0000 0.50333  0.21603  0.88073  Biso   1.000  H
  H23      1.0000 0.00333  0.28397  0.38073  Biso   1.000  H
  H24      1.0000 0.49667  0.78397  0.11927  Biso   1.000  H
  C41      1.0000 0.97700  0.77670  0.50350  Biso   1.000  C
  C42      1.0000 0.52300  0.27670  0.99650  Biso   1.000  C
  C43      1.0000 0.02300  0.22330  0.49650  Biso   1.000  C
  C44      1.0000 0.47700  0.72330  0.00350  Biso   1.000  C
  H25      1.0000 0.05024  0.85560  0.51344  Biso   1.000  H
  H26      1.0000 0.44976  0.35560  0.98656  Biso   1.000  H
  H27      1.0000 0.94976  0.14440  0.48656  Biso   1.000  H
  H28      1.0000 0.55024  0.64440  0.01344  Biso   1.000  H
  C45      1.0000 0.90000  0.74400  0.42510  Biso   1.000  C
  C46      1.0000 0.60000  0.24400  0.07490  Biso   1.000  C
  C47      1.0000 0.10000  0.25600  0.57490  Biso   1.000  C
  C48      1.0000 0.40000  0.75600  0.92510  Biso   1.000  C
  H29      1.0000 0.92117  0.80258  0.38257  Biso   1.000  H
  H30      1.0000 0.57883  0.30258  0.11743  Biso   1.000  H
  H31      1.0000 0.07883  0.19742  0.61743  Biso   1.000  H
  H32      1.0000 0.42117  0.69742  0.88257  Biso   1.000  H
  N5       1.0000 0.79810  0.63320  0.40862  Biso   1.000  N
  N6       1.0000 0.70190  0.13320  0.09138  Biso   1.000  N
  N7       1.0000 0.20190  0.36680  0.59138  Biso   1.000  N
  N8       1.0000 0.29810  0.86680  0.90862  Biso   1.000  N
  N9       1.0000 0.40260  0.52300  0.18410  Biso   1.000  N
  N10      1.0000 0.09740  0.02300  0.31590  Biso   1.000  N
  N11      1.0000 0.59740  0.47700  0.81590  Biso   1.000  N
  N12      1.0000 0.90260  0.97700  0.68410  Biso   1.000  N
  O1       1.0000 0.55110  0.49410  0.20179  Biso   1.000  O
  O2       1.0000 0.94890  0.99410  0.29821  Biso   1.000  O
  O3       1.0000 0.44890  0.50590  0.79821  Biso   1.000  O
  O4       1.0000 0.05110  0.00590  0.70179  Biso   1.000  O
  O5       1.0000 0.32590  0.46920  0.12140  Biso   1.000  O
  O6       1.0000 0.17410  0.96920  0.37860  Biso   1.000  O
  O7       1.0000 0.67410  0.53080  0.87860  Biso   1.000  O
  O8       1.0000 0.82590  0.03080  0.62140  Biso   1.000  O
  O9       1.0000 0.34560  0.60250  0.22895  Biso   1.000  O
  O10      1.0000 0.15440  0.10250  0.27105  Biso   1.000  O
  O11      1.0000 0.65440  0.39750  0.77105  Biso   1.000  O
  O12      1.0000 0.84560  0.89750  0.72895  Biso   1.000  O
  N13      1.0000 0.61630  0.87300  0.27950  Biso   1.000  N
  N14      1.0000 0.88370  0.37300  0.22050  Biso   1.000  N
  N15      1.0000 0.38370  0.12700  0.72050  Biso   1.000  N
  N16      1.0000 0.11630  0.62700  0.77950  Biso   1.000  N
  O13      1.0000 0.68870  0.76590  0.25226  Biso   1.000  O
  O14      1.0000 0.81130  0.26590  0.24774  Biso   1.000  O
  O15      1.0000 0.31130  0.23410  0.74774  Biso   1.000  O
  O16      1.0000 0.18870  0.73410  0.75226  Biso   1.000  O
  O17      1.0000 0.54630  0.84850  0.33348  Biso   1.000  O
  O18      1.0000 0.95370  0.34850  0.16652  Biso   1.000  O
  O19      1.0000 0.45370  0.15150  0.66652  Biso   1.000  O
  O20      1.0000 0.04630  0.65150  0.83348  Biso   1.000  O
  O21      1.0000 0.61980  0.99760  0.24899  Biso   1.000  O
  O22      1.0000 0.88020  0.49760  0.25101  Biso   1.000  O
  O23      1.0000 0.38020  0.00240  0.75101  Biso   1.000  O
  O24      1.0000 0.11980  0.50240  0.74899  Biso   1.000  O
  Cu1      1.0000 0.66817  0.57189  0.30355  Biso   1.000  Cu
  Cu2      1.0000 0.83183  0.07189  0.19645  Biso   1.000  Cu
  Cu3      1.0000 0.33183  0.42811  0.69645  Biso   1.000  Cu
  Cu4      1.0000 0.16817  0.92811  0.80355  Biso   1.000  Cu
