data_image0
_cell_length_a       8.7008
_cell_length_b       9.0614
_cell_length_c       17.1132
_cell_angle_alpha    90
_cell_angle_beta     101.883
_cell_angle_gamma    90

_symmetry_space_group_name_H-M    "P 1"
_symmetry_int_tables_number       1

loop_
  _symmetry_equiv_pos_as_xyz
  'x, y, z'

loop_
  _atom_site_label
  _atom_site_occupancy
  _atom_site_fract_x
  _atom_site_fract_y
  _atom_site_fract_z
  _atom_site_thermal_displace_type
  _atom_site_B_iso_or_equiv
  _atom_site_type_symbol
  Cu1      1.0000 0.33217  0.57191  0.69651  Biso   1.000  Cu
  Cu2      1.0000 0.16783  0.07191  0.80349  Biso   1.000  Cu
  Cu3      1.0000 0.66783  0.42809  0.30349  Biso   1.000  Cu
  Cu4      1.0000 0.83217  0.92809  0.19651  Biso   1.000  Cu
  O1       1.0000 0.44896  0.49408  0.79822  Biso   1.000  O
  O2       1.0000 0.05104  0.99408  0.70178  Biso   1.000  O
  O3       1.0000 0.55104  0.50592  0.20178  Biso   1.000  O
  O4       1.0000 0.94896  0.00592  0.29822  Biso   1.000  O
  O5       1.0000 0.65408  0.60244  0.77113  Biso   1.000  O
  O6       1.0000 0.84592  0.10244  0.72887  Biso   1.000  O
  O7       1.0000 0.34592  0.39756  0.22887  Biso   1.000  O
  O8       1.0000 0.15408  0.89756  0.27113  Biso   1.000  O
  O9       1.0000 0.67381  0.46952  0.87856  Biso   1.000  O
  O10      1.0000 0.82619  0.96952  0.62144  Biso   1.000  O
  O11      1.0000 0.32619  0.53048  0.12144  Biso   1.000  O
  O12      1.0000 0.17381  0.03048  0.37856  Biso   1.000  O
  O13      1.0000 0.31073  0.76653  0.74779  Biso   1.000  O
  O14      1.0000 0.18927  0.26653  0.75221  Biso   1.000  O
  O15      1.0000 0.68927  0.23347  0.25221  Biso   1.000  O
  O16      1.0000 0.81073  0.73347  0.24779  Biso   1.000  O
  O17      1.0000 0.45415  0.84825  0.66662  Biso   1.000  O
  O18      1.0000 0.04585  0.34825  0.83338  Biso   1.000  O
  O19      1.0000 0.54585  0.15175  0.33338  Biso   1.000  O
  O20      1.0000 0.95415  0.65175  0.16662  Biso   1.000  O
  O21      1.0000 0.38051  0.99707  0.75107  Biso   1.000  O
  O22      1.0000 0.11949  0.49707  0.74893  Biso   1.000  O
  O23      1.0000 0.61949  0.00293  0.24893  Biso   1.000  O
  O24      1.0000 0.88051  0.50293  0.25107  Biso   1.000  O
  N1       1.0000 0.20198  0.63339  0.59143  Biso   1.000  N
  N2       1.0000 0.29802  0.13339  0.90857  Biso   1.000  N
  N3       1.0000 0.79802  0.36661  0.40857  Biso   1.000  N
  N4       1.0000 0.70198  0.86661  0.09143  Biso   1.000  N
  N5       1.0000 0.39060  0.40576  0.63133  Biso   1.000  N
  N6       1.0000 0.10940  0.90576  0.86867  Biso   1.000  N
  N7       1.0000 0.60940  0.59424  0.36867  Biso   1.000  N
  N8       1.0000 0.89060  0.09424  0.13133  Biso   1.000  N
  N9       1.0000 0.59632  0.52295  0.81570  Biso   1.000  N
  N10      1.0000 0.90368  0.02295  0.68430  Biso   1.000  N
  N11      1.0000 0.40368  0.47705  0.18430  Biso   1.000  N
  N12      1.0000 0.09632  0.97705  0.31570  Biso   1.000  N
  N13      1.0000 0.38366  0.87277  0.72060  Biso   1.000  N
  N14      1.0000 0.11634  0.37277  0.77940  Biso   1.000  N
  N15      1.0000 0.61634  0.12723  0.27940  Biso   1.000  N
  N16      1.0000 0.88366  0.62723  0.22060  Biso   1.000  N
  C1       1.0000 0.10019  0.74368  0.57496  Biso   1.000  C
  C2       1.0000 0.39981  0.24368  0.92504  Biso   1.000  C
  C3       1.0000 0.89981  0.25632  0.42504  Biso   1.000  C
  C4       1.0000 0.60019  0.75632  0.07496  Biso   1.000  C
  H1       1.0000 0.07880  0.80230  0.61750  Biso   1.000  H
  H2       1.0000 0.42120  0.30230  0.88250  Biso   1.000  H
  H3       1.0000 0.92120  0.19770  0.38250  Biso   1.000  H
  H4       1.0000 0.57880  0.69770  0.11750  Biso   1.000  H
  C5       1.0000 0.02310  0.77634  0.49637  Biso   1.000  C
  C6       1.0000 0.47690  0.27634  0.00363  Biso   1.000  C
  C7       1.0000 0.97690  0.22366  0.50363  Biso   1.000  C
  C8       1.0000 0.52310  0.72366  0.99637  Biso   1.000  C
  H5       1.0000 0.94960  0.85510  0.48630  Biso   1.000  H
  H6       1.0000 0.55040  0.35510  0.01370  Biso   1.000  H
  H7       1.0000 0.05040  0.14490  0.51370  Biso   1.000  H
  H8       1.0000 0.44960  0.64490  0.98630  Biso   1.000  H
  C9       1.0000 0.05444  0.69395  0.43407  Biso   1.000  C
  C10      1.0000 0.44556  0.19395  0.06593  Biso   1.000  C
  C11      1.0000 0.94556  0.30605  0.56593  Biso   1.000  C
  C12      1.0000 0.55444  0.80605  0.93407  Biso   1.000  C
  H9       1.0000 0.00380  0.71610  0.38070  Biso   1.000  H
  H10      1.0000 0.49620  0.21610  0.11930  Biso   1.000  H
  H11      1.0000 0.99620  0.28390  0.61930  Biso   1.000  H
  H12      1.0000 0.50380  0.78390  0.88070  Biso   1.000  H
  C13      1.0000 0.16239  0.57615  0.44997  Biso   1.000  C
  C14      1.0000 0.33761  0.07615  0.05003  Biso   1.000  C
  C15      1.0000 0.83761  0.42385  0.55003  Biso   1.000  C
  C16      1.0000 0.66239  0.92385  0.94997  Biso   1.000  C
  C17      1.0000 0.20491  0.48249  0.39014  Biso   1.000  C
  C18      1.0000 0.29509  0.98249  0.10986  Biso   1.000  C
  C19      1.0000 0.79509  0.51751  0.60986  Biso   1.000  C
  C20      1.0000 0.70491  0.01751  0.89014  Biso   1.000  C
  H13      1.0000 0.16330  0.50220  0.33530  Biso   1.000  H
  H14      1.0000 0.33670  0.00220  0.16470  Biso   1.000  H
  H15      1.0000 0.83670  0.49780  0.66470  Biso   1.000  H
  H16      1.0000 0.66330  0.99780  0.83530  Biso   1.000  H
  C21      1.0000 0.30352  0.36632  0.41051  Biso   1.000  C
  C22      1.0000 0.19648  0.86632  0.08949  Biso   1.000  C
  C23      1.0000 0.69648  0.63368  0.58949  Biso   1.000  C
  C24      1.0000 0.80352  0.13368  0.91051  Biso   1.000  C
  H17      1.0000 0.32990  0.30610  0.36980  Biso   1.000  H
  H18      1.0000 0.17010  0.80610  0.13020  Biso   1.000  H
  H19      1.0000 0.67010  0.69390  0.63020  Biso   1.000  H
  H20      1.0000 0.82990  0.19390  0.86980  Biso   1.000  H
  C25      1.0000 0.36844  0.33318  0.49263  Biso   1.000  C
  C26      1.0000 0.13156  0.83318  0.00737  Biso   1.000  C
  C27      1.0000 0.63156  0.66682  0.50737  Biso   1.000  C
  C28      1.0000 0.86844  0.16682  0.99263  Biso   1.000  C
  C29      1.0000 0.46510  0.21024  0.51869  Biso   1.000  C
  C30      1.0000 0.03490  0.71024  0.98131  Biso   1.000  C
  C31      1.0000 0.53490  0.78976  0.48131  Biso   1.000  C
  C32      1.0000 0.96510  0.28976  0.01869  Biso   1.000  C
  H21      1.0000 0.49320  0.14400  0.48090  Biso   1.000  H
  H22      1.0000 0.00680  0.64400  0.01910  Biso   1.000  H
  H23      1.0000 0.50680  0.85600  0.51910  Biso   1.000  H
  H24      1.0000 0.99320  0.35600  0.98090  Biso   1.000  H
  C33      1.0000 0.51827  0.18694  0.59913  Biso   1.000  C
  C34      1.0000 0.98173  0.68694  0.90087  Biso   1.000  C
  C35      1.0000 0.48173  0.81306  0.40087  Biso   1.000  C
  C36      1.0000 0.01827  0.31306  0.09913  Biso   1.000  C
  H25      1.0000 0.58110  0.10310  0.61740  Biso   1.000  H
  H26      1.0000 0.91890  0.60310  0.88260  Biso   1.000  H
  H27      1.0000 0.41890  0.89690  0.38260  Biso   1.000  H
  H28      1.0000 0.08110  0.39690  0.11740  Biso   1.000  H
  C37      1.0000 0.47901  0.28790  0.65410  Biso   1.000  C
  C38      1.0000 0.02099  0.78790  0.84590  Biso   1.000  C
  C39      1.0000 0.52099  0.71210  0.34590  Biso   1.000  C
  C40      1.0000 0.97901  0.21210  0.15410  Biso   1.000  C
  H29      1.0000 0.51700  0.27130  0.70950  Biso   1.000  H
  H30      1.0000 0.98300  0.77130  0.79050  Biso   1.000  H
  H31      1.0000 0.48300  0.72870  0.29050  Biso   1.000  H
  H32      1.0000 0.01700  0.22870  0.20950  Biso   1.000  H
  C41      1.0000 0.33420  0.42653  0.55194  Biso   1.000  C
  C42      1.0000 0.16580  0.92653  0.94806  Biso   1.000  C
  C43      1.0000 0.66580  0.57347  0.44806  Biso   1.000  C
  C44      1.0000 0.83420  0.07347  0.05194  Biso   1.000  C
  C45      1.0000 0.23080  0.54932  0.53026  Biso   1.000  C
  C46      1.0000 0.26920  0.04932  0.96974  Biso   1.000  C
  C47      1.0000 0.76920  0.45068  0.46974  Biso   1.000  C
  C48      1.0000 0.73080  0.95068  0.03026  Biso   1.000  C
