data_image0
_cell_length_a       8.8226
_cell_length_b       9.1462
_cell_length_c       17.2507
_cell_angle_alpha    90
_cell_angle_beta     101.68
_cell_angle_gamma    90

_symmetry_space_group_name_H-M    "P 1"
_symmetry_int_tables_number       1

loop_
  _symmetry_equiv_pos_as_xyz
  'x, y, z'

loop_
  _atom_site_label
  _atom_site_occupancy
  _atom_site_fract_x
  _atom_site_fract_y
  _atom_site_fract_z
  _atom_site_thermal_displace_type
  _atom_site_B_iso_or_equiv
  _atom_site_type_symbol
  Cu1      1.0000 0.33506  0.07211  0.19685  Biso   1.000  Cu
  Cu2      1.0000 0.16494  0.57211  0.30315  Biso   1.000  Cu
  Cu3      1.0000 0.66494  0.92789  0.80315  Biso   1.000  Cu
  Cu4      1.0000 0.83506  0.42789  0.69685  Biso   1.000  Cu
  O1       1.0000 0.31180  0.26520  0.24818  Biso   1.000  O
  O2       1.0000 0.18820  0.76520  0.25182  Biso   1.000  O
  O3       1.0000 0.68820  0.73480  0.75182  Biso   1.000  O
  O4       1.0000 0.81180  0.23480  0.74818  Biso   1.000  O
  O5       1.0000 0.45150  0.99520  0.29796  Biso   1.000  O
  O6       1.0000 0.04850  0.49520  0.20204  Biso   1.000  O
  O7       1.0000 0.54850  0.00480  0.70204  Biso   1.000  O
  O8       1.0000 0.95150  0.50480  0.79796  Biso   1.000  O
  O9       1.0000 0.37900  0.49430  0.25205  Biso   1.000  O
  O10      1.0000 0.12100  0.99430  0.24795  Biso   1.000  O
  O11      1.0000 0.62100  0.50570  0.74795  Biso   1.000  O
  O12      1.0000 0.87900  0.00570  0.75205  Biso   1.000  O
  O13      1.0000 0.45550  0.34800  0.16890  Biso   1.000  O
  O14      1.0000 0.04450  0.84800  0.33110  Biso   1.000  O
  O15      1.0000 0.54450  0.65200  0.83110  Biso   1.000  O
  O16      1.0000 0.95550  0.15200  0.66890  Biso   1.000  O
  O17      1.0000 0.67140  0.97180  0.37840  Biso   1.000  O
  O18      1.0000 0.82860  0.47180  0.12160  Biso   1.000  O
  O19      1.0000 0.32860  0.02820  0.62160  Biso   1.000  O
  O20      1.0000 0.17140  0.52820  0.87840  Biso   1.000  O
  O21      1.0000 0.65430  0.09990  0.27100  Biso   1.000  O
  O22      1.0000 0.84570  0.59990  0.22900  Biso   1.000  O
  O23      1.0000 0.34570  0.90010  0.72900  Biso   1.000  O
  O24      1.0000 0.15430  0.40010  0.77100  Biso   1.000  O
  N1       1.0000 0.39150  0.90650  0.13138  Biso   1.000  N
  N2       1.0000 0.10850  0.40650  0.36862  Biso   1.000  N
  N3       1.0000 0.60850  0.09350  0.86862  Biso   1.000  N
  N4       1.0000 0.89150  0.59350  0.63138  Biso   1.000  N
  N5       1.0000 0.38380  0.37140  0.22212  Biso   1.000  N
  N6       1.0000 0.11620  0.87140  0.27788  Biso   1.000  N
  N7       1.0000 0.61620  0.62860  0.77788  Biso   1.000  N
  N8       1.0000 0.88380  0.12860  0.72212  Biso   1.000  N
  N9       1.0000 0.20480  0.13260  0.09236  Biso   1.000  N
  N10      1.0000 0.29520  0.63260  0.40764  Biso   1.000  N
  N11      1.0000 0.79520  0.86740  0.90764  Biso   1.000  N
  N12      1.0000 0.70480  0.36740  0.59236  Biso   1.000  N
  N13      1.0000 0.59810  0.02340  0.31580  Biso   1.000  N
  N14      1.0000 0.90190  0.52340  0.18420  Biso   1.000  N
  N15      1.0000 0.40190  0.97660  0.68420  Biso   1.000  N
  N16      1.0000 0.09810  0.47660  0.81580  Biso   1.000  N
  C1       1.0000 0.33500  0.92620  0.05230  Biso   1.000  C
  C2       1.0000 0.16500  0.42620  0.44770  Biso   1.000  C
  C3       1.0000 0.66500  0.07380  0.94770  Biso   1.000  C
  C4       1.0000 0.83500  0.57380  0.55230  Biso   1.000  C
  C5       1.0000 0.47970  0.78880  0.15300  Biso   1.000  C
  C6       1.0000 0.02030  0.28880  0.34700  Biso   1.000  C
  C7       1.0000 0.52030  0.21120  0.84700  Biso   1.000  C
  C8       1.0000 0.97970  0.71120  0.65300  Biso   1.000  C
  C9       1.0000 0.23270  0.04860  0.03140  Biso   1.000  C
  C10      1.0000 0.26730  0.54860  0.46860  Biso   1.000  C
  C11      1.0000 0.76730  0.95140  0.96860  Biso   1.000  C
  C12      1.0000 0.73270  0.45140  0.53140  Biso   1.000  C
  C13      1.0000 0.16470  0.07500  0.95190  Biso   1.000  C
  C14      1.0000 0.33530  0.57500  0.54810  Biso   1.000  C
  C15      1.0000 0.83530  0.92500  0.04810  Biso   1.000  C
  C16      1.0000 0.66470  0.42500  0.45190  Biso   1.000  C
  C17      1.0000 0.02780  0.27370  0.99810  Biso   1.000  C
  C18      1.0000 0.47220  0.77370  0.50190  Biso   1.000  C
  C19      1.0000 0.97220  0.72630  0.00190  Biso   1.000  C
  C20      1.0000 0.52780  0.22630  0.49810  Biso   1.000  C
  C21      1.0000 0.36790  0.83390  0.99330  Biso   1.000  C
  C22      1.0000 0.13210  0.33390  0.50670  Biso   1.000  C
  C23      1.0000 0.63210  0.16610  0.00670  Biso   1.000  C
  C24      1.0000 0.86790  0.66610  0.49330  Biso   1.000  C
  C25      1.0000 0.10520  0.24260  0.07610  Biso   1.000  C
  C26      1.0000 0.39480  0.74260  0.42390  Biso   1.000  C
  C27      1.0000 0.89480  0.75740  0.92390  Biso   1.000  C
  C28      1.0000 0.60520  0.25740  0.57610  Biso   1.000  C
  C29      1.0000 0.46360  0.71200  0.01930  Biso   1.000  C
  C30      1.0000 0.03640  0.21200  0.48070  Biso   1.000  C
  C31      1.0000 0.53640  0.28800  0.98070  Biso   1.000  C
  C32      1.0000 0.96360  0.78800  0.51930  Biso   1.000  C
  C33      1.0000 0.05820  0.19170  0.93650  Biso   1.000  C
  C34      1.0000 0.44180  0.69170  0.56350  Biso   1.000  C
  C35      1.0000 0.94180  0.80830  0.06350  Biso   1.000  C
  C36      1.0000 0.55820  0.30830  0.43650  Biso   1.000  C
  C37      1.0000 0.51670  0.68960  0.09870  Biso   1.000  C
  C38      1.0000 0.98330  0.18960  0.40130  Biso   1.000  C
  C39      1.0000 0.48330  0.31040  0.90130  Biso   1.000  C
  C40      1.0000 0.01670  0.81040  0.59870  Biso   1.000  C
  C41      1.0000 0.20480  0.98020  0.89280  Biso   1.000  C
  C42      1.0000 0.29520  0.48020  0.60720  Biso   1.000  C
  C43      1.0000 0.79520  0.01980  0.10720  Biso   1.000  C
  C44      1.0000 0.70480  0.51980  0.39280  Biso   1.000  C
  C45      1.0000 0.30110  0.86600  0.91190  Biso   1.000  C
  C46      1.0000 0.19890  0.36600  0.58810  Biso   1.000  C
  C47      1.0000 0.69890  0.13400  0.08810  Biso   1.000  C
  C48      1.0000 0.80110  0.63400  0.41190  Biso   1.000  C
  H1       1.0000 0.95800  0.35500  0.99100  Biso   1.000  H
  H2       1.0000 0.54200  0.85500  0.50900  Biso   1.000  H
  H3       1.0000 0.04200  0.64500  0.00900  Biso   1.000  H
  H4       1.0000 0.45800  0.14500  0.49100  Biso   1.000  H
  H5       1.0000 0.00600  0.21400  0.88400  Biso   1.000  H
  H6       1.0000 0.49400  0.71400  0.61600  Biso   1.000  H
  H7       1.0000 0.99400  0.78600  0.11600  Biso   1.000  H
  H8       1.0000 0.50600  0.28600  0.38400  Biso   1.000  H
  H9       1.0000 0.33200  0.80600  0.87300  Biso   1.000  H
  H10      1.0000 0.16800  0.30600  0.62700  Biso   1.000  H
  H11      1.0000 0.66800  0.19400  0.12700  Biso   1.000  H
  H12      1.0000 0.83200  0.69400  0.37300  Biso   1.000  H
  H13      1.0000 0.51800  0.77900  0.20500  Biso   1.000  H
  H14      1.0000 0.98200  0.27900  0.29500  Biso   1.000  H
  H15      1.0000 0.48200  0.22100  0.79500  Biso   1.000  H
  H16      1.0000 0.01800  0.72100  0.70500  Biso   1.000  H
  H17      1.0000 0.08600  0.29400  0.11400  Biso   1.000  H
  H18      1.0000 0.41400  0.79400  0.38600  Biso   1.000  H
  H19      1.0000 0.91400  0.70600  0.88600  Biso   1.000  H
  H20      1.0000 0.58600  0.20600  0.61400  Biso   1.000  H
  H21      1.0000 0.48700  0.65100  0.98300  Biso   1.000  H
  H22      1.0000 0.01300  0.15100  0.51700  Biso   1.000  H
  H23      1.0000 0.51300  0.34900  0.01700  Biso   1.000  H
  H24      1.0000 0.98700  0.84900  0.48300  Biso   1.000  H
  H25      1.0000 0.17000  0.00800  0.85100  Biso   1.000  H
  H26      1.0000 0.33000  0.50800  0.64900  Biso   1.000  H
  H27      1.0000 0.83000  0.99200  0.14900  Biso   1.000  H
  H28      1.0000 0.67000  0.49200  0.35100  Biso   1.000  H
  H29      1.0000 0.58100  0.60600  0.11400  Biso   1.000  H
  H30      1.0000 0.91900  0.10600  0.38600  Biso   1.000  H
  H31      1.0000 0.41900  0.39400  0.88600  Biso   1.000  H
  H32      1.0000 0.08100  0.89400  0.61400  Biso   1.000  H
