data_image0
_cell_length_a       8.76
_cell_length_b       9.12
_cell_length_c       17.63
_cell_angle_alpha    90
_cell_angle_beta     107.4
_cell_angle_gamma    90

_symmetry_space_group_name_H-M    "P 1"
_symmetry_int_tables_number       1

loop_
  _symmetry_equiv_pos_as_xyz
  'x, y, z'

loop_
  _atom_site_label
  _atom_site_occupancy
  _atom_site_fract_x
  _atom_site_fract_y
  _atom_site_fract_z
  _atom_site_thermal_displace_type
  _atom_site_B_iso_or_equiv
  _atom_site_type_symbol
  Cu1      1.0000 0.13673  0.07213  0.30339  Biso   1.000  Cu
  Cu2      1.0000 0.86327  0.57213  0.19661  Biso   1.000  Cu
  Cu3      1.0000 0.86327  0.92787  0.69661  Biso   1.000  Cu
  Cu4      1.0000 0.13673  0.42787  0.80339  Biso   1.000  Cu
  C1       1.0000 0.28170  0.92780  0.44770  Biso   1.000  C
  C2       1.0000 0.71830  0.42780  0.05230  Biso   1.000  C
  C3       1.0000 0.71830  0.07220  0.55230  Biso   1.000  C
  C4       1.0000 0.28170  0.57220  0.94770  Biso   1.000  C
  C5       1.0000 0.20050  0.04900  0.46850  Biso   1.000  C
  C6       1.0000 0.79950  0.54900  0.03150  Biso   1.000  C
  C7       1.0000 0.79950  0.95100  0.53150  Biso   1.000  C
  C8       1.0000 0.20050  0.45100  0.96850  Biso   1.000  C
  C9       1.0000 0.02580  0.24470  0.42420  Biso   1.000  C
  C10      1.0000 0.97420  0.74470  0.07580  Biso   1.000  C
  C11      1.0000 0.97420  0.75530  0.57580  Biso   1.000  C
  C12      1.0000 0.02580  0.25530  0.92420  Biso   1.000  C
  C13      1.0000 0.02960  0.27360  0.50220  Biso   1.000  C
  C14      1.0000 0.97040  0.77360  0.99780  Biso   1.000  C
  C15      1.0000 0.97040  0.72640  0.49780  Biso   1.000  C
  C16      1.0000 0.02960  0.22640  0.00220  Biso   1.000  C
  C17      1.0000 0.12130  0.19220  0.56330  Biso   1.000  C
  C18      1.0000 0.87870  0.69220  0.93670  Biso   1.000  C
  C19      1.0000 0.87870  0.80780  0.43670  Biso   1.000  C
  C20      1.0000 0.12130  0.30780  0.06330  Biso   1.000  C
  C21      1.0000 0.21210  0.07490  0.54810  Biso   1.000  C
  C22      1.0000 0.78790  0.57490  0.95190  Biso   1.000  C
  C23      1.0000 0.78790  0.92510  0.45190  Biso   1.000  C
  C24      1.0000 0.21210  0.42510  0.04810  Biso   1.000  C
  C25      1.0000 0.31350  0.98140  0.60790  Biso   1.000  C
  C26      1.0000 0.68650  0.48140  0.89210  Biso   1.000  C
  C27      1.0000 0.68650  0.01860  0.39210  Biso   1.000  C
  C28      1.0000 0.31350  0.51860  0.10790  Biso   1.000  C
  C29      1.0000 0.39170  0.86660  0.58840  Biso   1.000  C
  C30      1.0000 0.60830  0.36660  0.91160  Biso   1.000  C
  C31      1.0000 0.60830  0.13340  0.41160  Biso   1.000  C
  C32      1.0000 0.39170  0.63340  0.08840  Biso   1.000  C
  C33      1.0000 0.37370  0.83500  0.50710  Biso   1.000  C
  C34      1.0000 0.62630  0.33500  0.99290  Biso   1.000  C
  C35      1.0000 0.62630  0.16500  0.49290  Biso   1.000  C
  C36      1.0000 0.37370  0.66500  0.00710  Biso   1.000  C
  C37      1.0000 0.44330  0.71090  0.47980  Biso   1.000  C
  C38      1.0000 0.55670  0.21090  0.02020  Biso   1.000  C
  C39      1.0000 0.55670  0.28910  0.52020  Biso   1.000  C
  C40      1.0000 0.44330  0.78910  0.97980  Biso   1.000  C
  C41      1.0000 0.41900  0.69060  0.40170  Biso   1.000  C
  C42      1.0000 0.58100  0.19060  0.09830  Biso   1.000  C
  C43      1.0000 0.58100  0.30940  0.59830  Biso   1.000  C
  C44      1.0000 0.41900  0.80940  0.90170  Biso   1.000  C
  C45      1.0000 0.32400  0.78910  0.34640  Biso   1.000  C
  C46      1.0000 0.67600  0.28910  0.15360  Biso   1.000  C
  C47      1.0000 0.67600  0.21090  0.65360  Biso   1.000  C
  C48      1.0000 0.32400  0.71090  0.84640  Biso   1.000  C
  H1       1.0000 0.94500  0.29700  0.37000  Biso   1.000  H
  H2       1.0000 0.05500  0.79700  0.13000  Biso   1.000  H
  H3       1.0000 0.05500  0.70300  0.63000  Biso   1.000  H
  H4       1.0000 0.94500  0.20300  0.87000  Biso   1.000  H
  H5       1.0000 0.95800  0.35500  0.51000  Biso   1.000  H
  H6       1.0000 0.04200  0.85500  0.99000  Biso   1.000  H
  H7       1.0000 0.04200  0.64500  0.49000  Biso   1.000  H
  H8       1.0000 0.95800  0.14500  0.01000  Biso   1.000  H
  H9       1.0000 0.10800  0.20700  0.61900  Biso   1.000  H
  H10      1.0000 0.89200  0.70700  0.88100  Biso   1.000  H
  H11      1.0000 0.89200  0.79300  0.38100  Biso   1.000  H
  H12      1.0000 0.10800  0.29300  0.11900  Biso   1.000  H
  H13      1.0000 0.33700  0.01600  0.66500  Biso   1.000  H
  H14      1.0000 0.66300  0.51600  0.83500  Biso   1.000  H
  H15      1.0000 0.66300  0.98400  0.33500  Biso   1.000  H
  H16      1.0000 0.33700  0.48400  0.16500  Biso   1.000  H
  H17      1.0000 0.51400  0.63800  0.52700  Biso   1.000  H
  H18      1.0000 0.48600  0.13800  0.97300  Biso   1.000  H
  H19      1.0000 0.48600  0.36200  0.47300  Biso   1.000  H
  H20      1.0000 0.51400  0.86200  0.02700  Biso   1.000  H
  H21      1.0000 0.46600  0.60200  0.37800  Biso   1.000  H
  H22      1.0000 0.53400  0.10200  0.12200  Biso   1.000  H
  H23      1.0000 0.53400  0.39800  0.62200  Biso   1.000  H
  H24      1.0000 0.46600  0.89800  0.87800  Biso   1.000  H
  H25      1.0000 0.30600  0.77000  0.28800  Biso   1.000  H
  H26      1.0000 0.69400  0.27000  0.21200  Biso   1.000  H
  H27      1.0000 0.69400  0.23000  0.71200  Biso   1.000  H
  H28      1.0000 0.30600  0.73000  0.78800  Biso   1.000  H
  N1       1.0000 0.11240  0.13400  0.40770  Biso   1.000  N
  N2       1.0000 0.88760  0.63400  0.09230  Biso   1.000  N
  N3       1.0000 0.88760  0.86600  0.59230  Biso   1.000  N
  N4       1.0000 0.11240  0.36600  0.90770  Biso   1.000  N
  N5       1.0000 0.25980  0.90490  0.36860  Biso   1.000  N
  N6       1.0000 0.74020  0.40490  0.13140  Biso   1.000  N
  N7       1.0000 0.74020  0.09510  0.63140  Biso   1.000  N
  N8       1.0000 0.25980  0.59510  0.86860  Biso   1.000  N
  N9       1.0000 0.28330  0.02350  0.18440  Biso   1.000  N
  N10      1.0000 0.71670  0.52350  0.31560  Biso   1.000  N
  N11      1.0000 0.71670  0.97650  0.81560  Biso   1.000  N
  N12      1.0000 0.28330  0.47650  0.68440  Biso   1.000  N
  N13      1.0000 0.16220  0.37240  0.27790  Biso   1.000  N
  N14      1.0000 0.83780  0.87240  0.22210  Biso   1.000  N
  N15      1.0000 0.83780  0.62760  0.72210  Biso   1.000  N
  N16      1.0000 0.16220  0.12760  0.77790  Biso   1.000  N
  O1       1.0000 0.15390  0.99450  0.20260  Biso   1.000  O
  O2       1.0000 0.84610  0.49450  0.29740  Biso   1.000  O
  O3       1.0000 0.84610  0.00550  0.79740  Biso   1.000  O
  O4       1.0000 0.15390  0.50550  0.70260  Biso   1.000  O
  O5       1.0000 0.29210  0.97080  0.12180  Biso   1.000  O
  O6       1.0000 0.70790  0.47080  0.37820  Biso   1.000  O
  O7       1.0000 0.70790  0.02920  0.87820  Biso   1.000  O
  O8       1.0000 0.29210  0.52920  0.62180  Biso   1.000  O
  O9       1.0000 0.38320  0.10000  0.22810  Biso   1.000  O
  O10      1.0000 0.61680  0.60000  0.27190  Biso   1.000  O
  O11      1.0000 0.61680  0.90000  0.77190  Biso   1.000  O
  O12      1.0000 0.38320  0.40000  0.72810  Biso   1.000  O
  O13      1.0000 0.06460  0.26530  0.25200  Biso   1.000  O
  O14      1.0000 0.93540  0.76530  0.24800  Biso   1.000  O
  O15      1.0000 0.93540  0.73470  0.74800  Biso   1.000  O
  O16      1.0000 0.06460  0.23470  0.75200  Biso   1.000  O
  O17      1.0000 0.12720  0.49520  0.24860  Biso   1.000  O
  O18      1.0000 0.87280  0.99520  0.25140  Biso   1.000  O
  O19      1.0000 0.87280  0.50480  0.75140  Biso   1.000  O
  O20      1.0000 0.12720  0.00480  0.74860  Biso   1.000  O
  O21      1.0000 0.28710  0.34800  0.33100  Biso   1.000  O
  O22      1.0000 0.71290  0.84800  0.16900  Biso   1.000  O
  O23      1.0000 0.71290  0.65200  0.66900  Biso   1.000  O
  O24      1.0000 0.28710  0.15200  0.83100  Biso   1.000  O
