data_image0
_cell_length_a       8.7832
_cell_length_b       9.1136
_cell_length_c       17.173
_cell_angle_alpha    90
_cell_angle_beta     101.686
_cell_angle_gamma    90

_symmetry_space_group_name_H-M    "P 1"
_symmetry_int_tables_number       1

loop_
  _symmetry_equiv_pos_as_xyz
  'x, y, z'

loop_
  _atom_site_label
  _atom_site_occupancy
  _atom_site_fract_x
  _atom_site_fract_y
  _atom_site_fract_z
  _atom_site_thermal_displace_type
  _atom_site_B_iso_or_equiv
  _atom_site_type_symbol
  Cu1      1.0000 0.83503  0.42791  0.69682  Biso   1.000  Cu
  Cu2      1.0000 0.66497  0.92791  0.80318  Biso   1.000  Cu
  Cu3      1.0000 0.16497  0.57209  0.30318  Biso   1.000  Cu
  Cu4      1.0000 0.33503  0.07209  0.19682  Biso   1.000  Cu
  N1       1.0000 0.70510  0.36714  0.59243  Biso   1.000  N
  N2       1.0000 0.79490  0.86714  0.90757  Biso   1.000  N
  N3       1.0000 0.29490  0.63286  0.40757  Biso   1.000  N
  N4       1.0000 0.20510  0.13286  0.09243  Biso   1.000  N
  N5       1.0000 0.89172  0.59365  0.63144  Biso   1.000  N
  N6       1.0000 0.60828  0.09365  0.86856  Biso   1.000  N
  N7       1.0000 0.10828  0.40635  0.36856  Biso   1.000  N
  N8       1.0000 0.39172  0.90635  0.13144  Biso   1.000  N
  N9       1.0000 0.09820  0.47730  0.81600  Biso   1.000  N
  N10      1.0000 0.40180  0.97730  0.68400  Biso   1.000  N
  N11      1.0000 0.90180  0.52270  0.18400  Biso   1.000  N
  N12      1.0000 0.59820  0.02270  0.31600  Biso   1.000  N
  N13      1.0000 0.61590  0.62873  0.77818  Biso   1.000  N
  N14      1.0000 0.88410  0.12873  0.72182  Biso   1.000  N
  N15      1.0000 0.38410  0.37127  0.22182  Biso   1.000  N
  N16      1.0000 0.11590  0.87127  0.27818  Biso   1.000  N
  O1       1.0000 0.95129  0.50491  0.79780  Biso   1.000  O
  O2       1.0000 0.54871  0.00491  0.70220  Biso   1.000  O
  O3       1.0000 0.04871  0.49509  0.20220  Biso   1.000  O
  O4       1.0000 0.45129  0.99509  0.29780  Biso   1.000  O
  O5       1.0000 0.17150  0.52850  0.87827  Biso   1.000  O
  O6       1.0000 0.32850  0.02850  0.62173  Biso   1.000  O
  O7       1.0000 0.82850  0.47150  0.12173  Biso   1.000  O
  O8       1.0000 0.67150  0.97150  0.37827  Biso   1.000  O
  O9       1.0000 0.15430  0.40000  0.77103  Biso   1.000  O
  O10      1.0000 0.34570  0.90000  0.72897  Biso   1.000  O
  O11      1.0000 0.84570  0.60000  0.22897  Biso   1.000  O
  O12      1.0000 0.65430  0.10000  0.27103  Biso   1.000  O
  O13      1.0000 0.62096  0.50535  0.74809  Biso   1.000  O
  O14      1.0000 0.87904  0.00535  0.75191  Biso   1.000  O
  O15      1.0000 0.37904  0.49465  0.25191  Biso   1.000  O
  O16      1.0000 0.12096  0.99465  0.24809  Biso   1.000  O
  O17      1.0000 0.54520  0.65217  0.83151  Biso   1.000  O
  O18      1.0000 0.95480  0.15217  0.66849  Biso   1.000  O
  O19      1.0000 0.45480  0.34783  0.16849  Biso   1.000  O
  O20      1.0000 0.04520  0.84783  0.33151  Biso   1.000  O
  O21      1.0000 0.68804  0.73479  0.75179  Biso   1.000  O
  O22      1.0000 0.81196  0.23479  0.74821  Biso   1.000  O
  O23      1.0000 0.31196  0.26521  0.24821  Biso   1.000  O
  O24      1.0000 0.18804  0.76521  0.25179  Biso   1.000  O
  C1       1.0000 0.60440  0.25740  0.57589  Biso   1.000  C
  C2       1.0000 0.89560  0.75740  0.92411  Biso   1.000  C
  C3       1.0000 0.39560  0.74260  0.42411  Biso   1.000  C
  C4       1.0000 0.10440  0.24260  0.07589  Biso   1.000  C
  H1       1.0000 0.58430  0.19960  0.61730  Biso   1.000  H
  H2       1.0000 0.91570  0.69960  0.88270  Biso   1.000  H
  H3       1.0000 0.41570  0.80040  0.38270  Biso   1.000  H
  H4       1.0000 0.08430  0.30040  0.11730  Biso   1.000  H
  C5       1.0000 0.52760  0.22600  0.49841  Biso   1.000  C
  C6       1.0000 0.97240  0.72600  0.00159  Biso   1.000  C
  C7       1.0000 0.47240  0.77400  0.50159  Biso   1.000  C
  C8       1.0000 0.02760  0.27400  0.99841  Biso   1.000  C
  H5       1.0000 0.45630  0.14940  0.48890  Biso   1.000  H
  H6       1.0000 0.04370  0.64940  0.01110  Biso   1.000  H
  H7       1.0000 0.54370  0.85060  0.51110  Biso   1.000  H
  H8       1.0000 0.95630  0.35060  0.98890  Biso   1.000  H
  C9       1.0000 0.55750  0.30780  0.43656  Biso   1.000  C
  C10      1.0000 0.94250  0.80780  0.06344  Biso   1.000  C
  C11      1.0000 0.44250  0.69220  0.56344  Biso   1.000  C
  C12      1.0000 0.05750  0.19220  0.93656  Biso   1.000  C
  H9       1.0000 0.50780  0.28630  0.38470  Biso   1.000  H
  H10      1.0000 0.99220  0.78630  0.11530  Biso   1.000  H
  H11      1.0000 0.49220  0.71370  0.61530  Biso   1.000  H
  H12      1.0000 0.00780  0.21370  0.88470  Biso   1.000  H
  C13      1.0000 0.66390  0.42480  0.45183  Biso   1.000  C
  C14      1.0000 0.83610  0.92480  0.04817  Biso   1.000  C
  C15      1.0000 0.33610  0.57520  0.54817  Biso   1.000  C
  C16      1.0000 0.16390  0.07520  0.95183  Biso   1.000  C
  C17      1.0000 0.73260  0.45130  0.53139  Biso   1.000  C
  C18      1.0000 0.76740  0.95130  0.96861  Biso   1.000  C
  C19      1.0000 0.26740  0.54870  0.46861  Biso   1.000  C
  C20      1.0000 0.23260  0.04870  0.03139  Biso   1.000  C
  C21      1.0000 0.70460  0.51860  0.39209  Biso   1.000  C
  C22      1.0000 0.79540  0.01860  0.10791  Biso   1.000  C
  C23      1.0000 0.29540  0.48140  0.60791  Biso   1.000  C
  C24      1.0000 0.20460  0.98140  0.89209  Biso   1.000  C
  H13      1.0000 0.66340  0.50010  0.33870  Biso   1.000  H
  H14      1.0000 0.83660  0.00010  0.16130  Biso   1.000  H
  H15      1.0000 0.33660  0.49990  0.66130  Biso   1.000  H
  H16      1.0000 0.16340  0.99990  0.83870  Biso   1.000  H
  C25      1.0000 0.80200  0.63350  0.41217  Biso   1.000  C
  C26      1.0000 0.69800  0.13350  0.08783  Biso   1.000  C
  C27      1.0000 0.19800  0.36650  0.58783  Biso   1.000  C
  C28      1.0000 0.30200  0.86650  0.91217  Biso   1.000  C
  H17      1.0000 0.82700  0.69230  0.37230  Biso   1.000  H
  H18      1.0000 0.67300  0.19230  0.12770  Biso   1.000  H
  H19      1.0000 0.17300  0.30770  0.62770  Biso   1.000  H
  H20      1.0000 0.32700  0.80770  0.87230  Biso   1.000  H
  C29      1.0000 0.86750  0.66640  0.49334  Biso   1.000  C
  C30      1.0000 0.63250  0.16640  0.00666  Biso   1.000  C
  C31      1.0000 0.13250  0.33360  0.50666  Biso   1.000  C
  C32      1.0000 0.36750  0.83360  0.99334  Biso   1.000  C
  C33      1.0000 0.83470  0.57320  0.55247  Biso   1.000  C
  C34      1.0000 0.66530  0.07320  0.94753  Biso   1.000  C
  C35      1.0000 0.16530  0.42680  0.44753  Biso   1.000  C
  C36      1.0000 0.33470  0.92680  0.05247  Biso   1.000  C
  C37      1.0000 0.96300  0.78810  0.51904  Biso   1.000  C
  C38      1.0000 0.53700  0.28810  0.98096  Biso   1.000  C
  C39      1.0000 0.03700  0.21190  0.48096  Biso   1.000  C
  C40      1.0000 0.46300  0.71190  0.01904  Biso   1.000  C
  H21      1.0000 0.98970  0.85270  0.48210  Biso   1.000  H
  H22      1.0000 0.51030  0.35270  0.01790  Biso   1.000  H
  H23      1.0000 0.01030  0.14730  0.51790  Biso   1.000  H
  H24      1.0000 0.48970  0.64730  0.98210  Biso   1.000  H
  C41      1.0000 0.01650  0.81100  0.59846  Biso   1.000  C
  C42      1.0000 0.48350  0.31100  0.90154  Biso   1.000  C
  C43      1.0000 0.98350  0.18900  0.40154  Biso   1.000  C
  C44      1.0000 0.51650  0.68900  0.09846  Biso   1.000  C
  H25      1.0000 0.07740  0.89260  0.61590  Biso   1.000  H
  H26      1.0000 0.42260  0.39260  0.88410  Biso   1.000  H
  H27      1.0000 0.92260  0.10740  0.38410  Biso   1.000  H
  H28      1.0000 0.57740  0.60740  0.11590  Biso   1.000  H
  C45      1.0000 0.97920  0.71100  0.65335  Biso   1.000  C
  C46      1.0000 0.52080  0.21100  0.84665  Biso   1.000  C
  C47      1.0000 0.02080  0.28900  0.34665  Biso   1.000  C
  C48      1.0000 0.47920  0.78900  0.15335  Biso   1.000  C
  H29      1.0000 0.01710  0.72740  0.70720  Biso   1.000  H
  H30      1.0000 0.48290  0.22740  0.79280  Biso   1.000  H
  H31      1.0000 0.98290  0.27260  0.29280  Biso   1.000  H
  H32      1.0000 0.51710  0.77260  0.20720  Biso   1.000  H
