data_image0
_cell_length_a       9.678
_cell_length_b       11.9246
_cell_length_c       22.738
_cell_angle_alpha    90
_cell_angle_beta     95.508
_cell_angle_gamma    90

_symmetry_space_group_name_H-M    "P 1"
_symmetry_int_tables_number       1

loop_
  _symmetry_equiv_pos_as_xyz
  'x, y, z'

loop_
  _atom_site_label
  _atom_site_occupancy
  _atom_site_fract_x
  _atom_site_fract_y
  _atom_site_fract_z
  _atom_site_thermal_displace_type
  _atom_site_B_iso_or_equiv
  _atom_site_type_symbol
  Cu1      1.0000 0.49495  0.23040  0.17546  Biso   1.000  Cu
  Cu2      1.0000 0.00505  0.73040  0.32454  Biso   1.000  Cu
  Cu3      1.0000 0.50505  0.76960  0.82454  Biso   1.000  Cu
  Cu4      1.0000 0.99495  0.26960  0.67546  Biso   1.000  Cu
  Zn1      1.0000 0.26170  0.11526  0.05610  Biso   1.000  Zn
  Zn2      1.0000 0.23830  0.61526  0.44390  Biso   1.000  Zn
  Zn3      1.0000 0.73830  0.88474  0.94390  Biso   1.000  Zn
  Zn4      1.0000 0.76170  0.38474  0.55610  Biso   1.000  Zn
  O1       1.0000 0.70010  0.25410  0.18791  Biso   1.000  O
  O2       1.0000 0.79990  0.75410  0.31209  Biso   1.000  O
  O3       1.0000 0.29990  0.74590  0.81209  Biso   1.000  O
  O4       1.0000 0.20010  0.24590  0.68791  Biso   1.000  O
  O5       1.0000 0.60460  0.09070  0.19460  Biso   1.000  O
  O6       1.0000 0.89540  0.59070  0.30540  Biso   1.000  O
  O7       1.0000 0.39540  0.90930  0.80540  Biso   1.000  O
  O8       1.0000 0.10460  0.40930  0.69460  Biso   1.000  O
  O9       1.0000 0.24340  0.25920  0.25180  Biso   1.000  O
  O10      1.0000 0.25660  0.75920  0.24820  Biso   1.000  O
  O11      1.0000 0.75660  0.74080  0.74820  Biso   1.000  O
  O12      1.0000 0.74340  0.24080  0.75180  Biso   1.000  O
  O13      1.0000 0.31750  0.16090  0.17720  Biso   1.000  O
  O14      1.0000 0.18250  0.66090  0.32280  Biso   1.000  O
  O15      1.0000 0.68250  0.83910  0.82280  Biso   1.000  O
  O16      1.0000 0.81750  0.33910  0.67720  Biso   1.000  O
  O17      1.0000 0.00400  0.81820  0.20860  Biso   1.000  O
  O18      1.0000 0.49600  0.31820  0.29140  Biso   1.000  O
  O19      1.0000 0.99600  0.18180  0.79140  Biso   1.000  O
  O20      1.0000 0.50400  0.68180  0.70860  Biso   1.000  O
  H1       1.0000 0.08570  0.79900  0.21340  Biso   1.000  H
  H2       1.0000 0.41430  0.29900  0.28660  Biso   1.000  H
  H3       1.0000 0.91430  0.20100  0.78660  Biso   1.000  H
  H4       1.0000 0.58570  0.70100  0.71340  Biso   1.000  H
  O21      1.0000 0.97020  0.07250  0.05810  Biso   1.000  O
  O22      1.0000 0.52980  0.57250  0.44190  Biso   1.000  O
  O23      1.0000 0.02980  0.92750  0.94190  Biso   1.000  O
  O24      1.0000 0.47020  0.42750  0.55810  Biso   1.000  O
  O25      1.0000 0.11380  0.21630  0.06778  Biso   1.000  O
  O26      1.0000 0.38620  0.71630  0.43222  Biso   1.000  O
  O27      1.0000 0.88620  0.78370  0.93222  Biso   1.000  O
  O28      1.0000 0.61380  0.28370  0.56778  Biso   1.000  O
  O29      1.0000 0.45160  0.17560  0.06758  Biso   1.000  O
  O30      1.0000 0.04840  0.67560  0.43242  Biso   1.000  O
  O31      1.0000 0.54840  0.82440  0.93242  Biso   1.000  O
  O32      1.0000 0.95160  0.32440  0.56758  Biso   1.000  O
  O33      1.0000 0.39270  0.31390  0.00470  Biso   1.000  O
  O34      1.0000 0.10730  0.81390  0.49530  Biso   1.000  O
  O35      1.0000 0.60730  0.68610  0.99530  Biso   1.000  O
  O36      1.0000 0.89270  0.18610  0.50470  Biso   1.000  O
  O37      1.0000 0.82900  0.55590  0.02740  Biso   1.000  O
  O38      1.0000 0.67100  0.05590  0.47260  Biso   1.000  O
  O39      1.0000 0.17100  0.44410  0.97260  Biso   1.000  O
  O40      1.0000 0.32900  0.94410  0.52740  Biso   1.000  O
  H5       1.0000 0.76490  0.58760  0.00790  Biso   1.000  H
  H6       1.0000 0.73510  0.08760  0.49210  Biso   1.000  H
  H7       1.0000 0.23510  0.41240  0.99210  Biso   1.000  H
  H8       1.0000 0.26490  0.91240  0.50790  Biso   1.000  H
  O41      1.0000 0.23110  0.08280  0.96770  Biso   1.000  O
  O42      1.0000 0.26890  0.58280  0.53230  Biso   1.000  O
  O43      1.0000 0.76890  0.91720  0.03230  Biso   1.000  O
  O44      1.0000 0.73110  0.41720  0.46770  Biso   1.000  O
  H9       1.0000 0.16800  0.03900  0.95820  Biso   1.000  H
  H10      1.0000 0.33200  0.53900  0.54180  Biso   1.000  H
  H11      1.0000 0.83200  0.96100  0.04180  Biso   1.000  H
  H12      1.0000 0.66800  0.46100  0.45820  Biso   1.000  H
  H13      1.0000 0.22200  0.14000  0.94700  Biso   1.000  H
  H14      1.0000 0.27800  0.64000  0.55300  Biso   1.000  H
  H15      1.0000 0.77800  0.86000  0.05300  Biso   1.000  H
  H16      1.0000 0.72200  0.36000  0.44700  Biso   1.000  H
  O45      1.0000 0.67570  0.24120  0.38840  Biso   1.000  O
  O46      1.0000 0.82430  0.74120  0.11160  Biso   1.000  O
  O47      1.0000 0.32430  0.75880  0.61160  Biso   1.000  O
  O48      1.0000 0.17570  0.25880  0.88840  Biso   1.000  O
  H17      1.0000 0.65000  0.18300  0.40300  Biso   1.000  H
  H18      1.0000 0.85000  0.68300  0.09700  Biso   1.000  H
  H19      1.0000 0.35000  0.81700  0.59700  Biso   1.000  H
  H20      1.0000 0.15000  0.31700  0.90300  Biso   1.000  H
  H21      1.0000 0.62000  0.25900  0.36100  Biso   1.000  H
  H22      1.0000 0.88000  0.75900  0.13900  Biso   1.000  H
  H23      1.0000 0.38000  0.74100  0.63900  Biso   1.000  H
  H24      1.0000 0.12000  0.24100  0.86100  Biso   1.000  H
  N1       1.0000 0.44370  0.38590  0.15420  Biso   1.000  N
  N2       1.0000 0.05630  0.88590  0.34580  Biso   1.000  N
  N3       1.0000 0.55630  0.61410  0.84580  Biso   1.000  N
  N4       1.0000 0.94370  0.11410  0.65420  Biso   1.000  N
  N5       1.0000 0.29440  0.95580  0.08160  Biso   1.000  N
  N6       1.0000 0.20560  0.45580  0.41840  Biso   1.000  N
  N7       1.0000 0.70560  0.04420  0.91840  Biso   1.000  N
  N8       1.0000 0.79440  0.54420  0.58160  Biso   1.000  N
  C1       1.0000 0.99610  0.93290  0.20700  Biso   1.000  C
  C2       1.0000 0.50390  0.43290  0.29300  Biso   1.000  C
  C3       1.0000 0.00390  0.06710  0.79300  Biso   1.000  C
  C4       1.0000 0.49610  0.56710  0.70700  Biso   1.000  C
  C5       1.0000 0.86700  0.98100  0.20220  Biso   1.000  C
  C6       1.0000 0.63300  0.48100  0.29780  Biso   1.000  C
  C7       1.0000 0.13300  0.01900  0.79780  Biso   1.000  C
  C8       1.0000 0.36700  0.51900  0.70220  Biso   1.000  C
  H25      1.0000 0.78800  0.93620  0.19940  Biso   1.000  H
  H26      1.0000 0.71200  0.43620  0.30060  Biso   1.000  H
  H27      1.0000 0.21200  0.06380  0.80060  Biso   1.000  H
  H28      1.0000 0.28800  0.56380  0.69940  Biso   1.000  H
  C9       1.0000 0.85440  0.09630  0.20150  Biso   1.000  C
  C10      1.0000 0.64560  0.59630  0.29850  Biso   1.000  C
  C11      1.0000 0.14560  0.90370  0.79850  Biso   1.000  C
  C12      1.0000 0.35440  0.40370  0.70150  Biso   1.000  C
  C13      1.0000 0.97060  0.16330  0.20630  Biso   1.000  C
  C14      1.0000 0.52940  0.66330  0.29370  Biso   1.000  C
  C15      1.0000 0.02940  0.83670  0.79370  Biso   1.000  C
  C16      1.0000 0.47060  0.33670  0.70630  Biso   1.000  C
  H29      1.0000 0.96200  0.24090  0.20720  Biso   1.000  H
  H30      1.0000 0.53800  0.74090  0.29280  Biso   1.000  H
  H31      1.0000 0.03800  0.75910  0.79280  Biso   1.000  H
  H32      1.0000 0.46200  0.25910  0.70720  Biso   1.000  H
  C17      1.0000 0.10080  0.11380  0.20990  Biso   1.000  C
  C18      1.0000 0.39920  0.61380  0.29010  Biso   1.000  C
  C19      1.0000 0.89920  0.88620  0.79010  Biso   1.000  C
  C20      1.0000 0.60080  0.38620  0.70990  Biso   1.000  C
  C21      1.0000 0.11110  0.99810  0.20890  Biso   1.000  C
  C22      1.0000 0.38890  0.49810  0.29110  Biso   1.000  C
  C23      1.0000 0.88890  0.00190  0.79110  Biso   1.000  C
  C24      1.0000 0.61110  0.50190  0.70890  Biso   1.000  C
  H33      1.0000 0.19810  0.96470  0.20950  Biso   1.000  H
  H34      1.0000 0.30190  0.46470  0.29050  Biso   1.000  H
  H35      1.0000 0.80190  0.03530  0.79050  Biso   1.000  H
  H36      1.0000 0.69810  0.53530  0.70950  Biso   1.000  H
  C25      1.0000 0.71340  0.15060  0.19440  Biso   1.000  C
  C26      1.0000 0.78660  0.65060  0.30560  Biso   1.000  C
  C27      1.0000 0.28660  0.84940  0.80560  Biso   1.000  C
  C28      1.0000 0.21340  0.34940  0.69440  Biso   1.000  C
  C29      1.0000 0.22990  0.18470  0.21360  Biso   1.000  C
  C30      1.0000 0.27010  0.68470  0.28640  Biso   1.000  C
  C31      1.0000 0.77010  0.81530  0.78640  Biso   1.000  C
  C32      1.0000 0.72990  0.31530  0.71360  Biso   1.000  C
  C33      1.0000 0.54150  0.46510  0.15720  Biso   1.000  C
  C34      1.0000 0.95850  0.96510  0.34280  Biso   1.000  C
  C35      1.0000 0.45850  0.53490  0.84280  Biso   1.000  C
  C36      1.0000 0.04150  0.03490  0.65720  Biso   1.000  C
  H37      1.0000 0.63260  0.44400  0.16880  Biso   1.000  H
  H38      1.0000 0.86740  0.94400  0.33120  Biso   1.000  H
  H39      1.0000 0.36740  0.55600  0.83120  Biso   1.000  H
  H40      1.0000 0.13260  0.05600  0.66880  Biso   1.000  H
  C37      1.0000 0.31630  0.42080  0.13640  Biso   1.000  C
  C38      1.0000 0.18370  0.92080  0.36360  Biso   1.000  C
  C39      1.0000 0.68370  0.57920  0.86360  Biso   1.000  C
  C40      1.0000 0.81630  0.07920  0.63640  Biso   1.000  C
  H41      1.0000 0.24550  0.36770  0.13320  Biso   1.000  H
  H42      1.0000 0.25450  0.86770  0.36680  Biso   1.000  H
  H43      1.0000 0.75450  0.63230  0.86680  Biso   1.000  H
  H44      1.0000 0.74550  0.13230  0.63320  Biso   1.000  H
  C41      1.0000 0.51590  0.57520  0.14420  Biso   1.000  C
  C42      1.0000 0.98410  0.07520  0.35580  Biso   1.000  C
  C43      1.0000 0.48410  0.42480  0.85580  Biso   1.000  C
  C44      1.0000 0.01590  0.92480  0.64420  Biso   1.000  C
  H45      1.0000 0.58870  0.62640  0.14780  Biso   1.000  H
  H46      1.0000 0.91130  0.12640  0.35220  Biso   1.000  H
  H47      1.0000 0.41130  0.37360  0.85220  Biso   1.000  H
  H48      1.0000 0.08870  0.87360  0.64780  Biso   1.000  H
  C45      1.0000 0.28200  0.53020  0.12230  Biso   1.000  C
  C46      1.0000 0.21800  0.03020  0.37770  Biso   1.000  C
  C47      1.0000 0.71800  0.46980  0.87770  Biso   1.000  C
  C48      1.0000 0.78200  0.96980  0.62230  Biso   1.000  C
  H49      1.0000 0.19040  0.54920  0.11050  Biso   1.000  H
  H50      1.0000 0.30960  0.04920  0.38950  Biso   1.000  H
  H51      1.0000 0.80960  0.45080  0.88950  Biso   1.000  H
  H52      1.0000 0.69040  0.95080  0.61050  Biso   1.000  H
  C49      1.0000 0.38370  0.61150  0.12590  Biso   1.000  C
  C50      1.0000 0.11630  0.11150  0.37410  Biso   1.000  C
  C51      1.0000 0.61630  0.38850  0.87410  Biso   1.000  C
  C52      1.0000 0.88370  0.88850  0.62590  Biso   1.000  C
  C53      1.0000 0.35190  0.73140  0.11140  Biso   1.000  C
  C54      1.0000 0.14810  0.23140  0.38860  Biso   1.000  C
  C55      1.0000 0.64810  0.26860  0.88860  Biso   1.000  C
  C56      1.0000 0.85190  0.76860  0.61140  Biso   1.000  C
  C57      1.0000 0.45680  0.80950  0.10860  Biso   1.000  C
  C58      1.0000 0.04320  0.30950  0.39140  Biso   1.000  C
  C59      1.0000 0.54320  0.19050  0.89140  Biso   1.000  C
  C60      1.0000 0.95680  0.69050  0.60860  Biso   1.000  C
  H53      1.0000 0.54890  0.78780  0.11670  Biso   1.000  H
  H54      1.0000 0.95110  0.28780  0.38330  Biso   1.000  H
  H55      1.0000 0.45110  0.21220  0.88330  Biso   1.000  H
  H56      1.0000 0.04890  0.71220  0.61670  Biso   1.000  H
  C61      1.0000 0.21850  0.76900  0.09890  Biso   1.000  C
  C62      1.0000 0.28150  0.26900  0.40110  Biso   1.000  C
  C63      1.0000 0.78150  0.23100  0.90110  Biso   1.000  C
  C64      1.0000 0.71850  0.73100  0.59890  Biso   1.000  C
  H57      1.0000 0.14460  0.71950  0.10040  Biso   1.000  H
  H58      1.0000 0.35540  0.21950  0.39960  Biso   1.000  H
  H59      1.0000 0.85540  0.28050  0.89960  Biso   1.000  H
  H60      1.0000 0.64460  0.78050  0.60040  Biso   1.000  H
  C65      1.0000 0.42570  0.91830  0.09410  Biso   1.000  C
  C66      1.0000 0.07430  0.41830  0.40590  Biso   1.000  C
  C67      1.0000 0.57430  0.08170  0.90590  Biso   1.000  C
  C68      1.0000 0.92570  0.58170  0.59410  Biso   1.000  C
  H61      1.0000 0.49830  0.96900  0.09270  Biso   1.000  H
  H62      1.0000 0.00170  0.46900  0.40730  Biso   1.000  H
  H63      1.0000 0.50170  0.03100  0.90730  Biso   1.000  H
  H64      1.0000 0.99830  0.53100  0.59270  Biso   1.000  H
  C69      1.0000 0.19330  0.87940  0.08420  Biso   1.000  C
  C70      1.0000 0.30670  0.37940  0.41580  Biso   1.000  C
  C71      1.0000 0.80670  0.12060  0.91580  Biso   1.000  C
  C72      1.0000 0.69330  0.62060  0.58420  Biso   1.000  C
  H65      1.0000 0.10170  0.90230  0.07570  Biso   1.000  H
  H66      1.0000 0.39830  0.40230  0.42430  Biso   1.000  H
  H67      1.0000 0.89830  0.09770  0.92430  Biso   1.000  H
  H68      1.0000 0.60170  0.59770  0.57570  Biso   1.000  H
  C73      1.0000 0.79560  0.44540  0.03460  Biso   1.000  C
  C74      1.0000 0.70440  0.94540  0.46540  Biso   1.000  C
  C75      1.0000 0.20440  0.55460  0.96540  Biso   1.000  C
  C76      1.0000 0.29560  0.05460  0.53460  Biso   1.000  C
  C77      1.0000 0.90290  0.36890  0.04560  Biso   1.000  C
  C78      1.0000 0.59710  0.86890  0.45440  Biso   1.000  C
  C79      1.0000 0.09710  0.63110  0.95440  Biso   1.000  C
  C80      1.0000 0.40290  0.13110  0.54560  Biso   1.000  C
  H69      1.0000 0.99460  0.39290  0.04700  Biso   1.000  H
  H70      1.0000 0.50540  0.89290  0.45300  Biso   1.000  H
  H71      1.0000 0.00540  0.60710  0.95300  Biso   1.000  H
  H72      1.0000 0.49460  0.10710  0.54700  Biso   1.000  H
  C81      1.0000 0.87400  0.25820  0.05430  Biso   1.000  C
  C82      1.0000 0.62600  0.75820  0.44570  Biso   1.000  C
  C83      1.0000 0.12600  0.74180  0.94570  Biso   1.000  C
  C84      1.0000 0.37400  0.24180  0.55430  Biso   1.000  C
  C85      1.0000 0.73630  0.22200  0.05170  Biso   1.000  C
  C86      1.0000 0.76370  0.72200  0.44830  Biso   1.000  C
  C87      1.0000 0.26370  0.77800  0.94830  Biso   1.000  C
  C88      1.0000 0.23630  0.27800  0.55170  Biso   1.000  C
  H73      1.0000 0.71740  0.14680  0.05820  Biso   1.000  H
  H74      1.0000 0.78260  0.64680  0.44180  Biso   1.000  H
  H75      1.0000 0.28260  0.85320  0.94180  Biso   1.000  H
  H76      1.0000 0.21740  0.35320  0.55820  Biso   1.000  H
  C89      1.0000 0.62930  0.29510  0.03970  Biso   1.000  C
  C90      1.0000 0.87070  0.79510  0.46030  Biso   1.000  C
  C91      1.0000 0.37070  0.70490  0.96030  Biso   1.000  C
  C92      1.0000 0.12930  0.20490  0.53970  Biso   1.000  C
  C93      1.0000 0.66060  0.40770  0.03050  Biso   1.000  C
  C94      1.0000 0.83940  0.90770  0.46950  Biso   1.000  C
  C95      1.0000 0.33940  0.59230  0.96950  Biso   1.000  C
  C96      1.0000 0.16060  0.09230  0.53050  Biso   1.000  C
  H77      1.0000 0.58860  0.45830  0.02130  Biso   1.000  H
  H78      1.0000 0.91140  0.95830  0.47870  Biso   1.000  H
  H79      1.0000 0.41140  0.54170  0.97870  Biso   1.000  H
  H80      1.0000 0.08860  0.04170  0.52130  Biso   1.000  H
  C97      1.0000 0.99150  0.17580  0.06080  Biso   1.000  C
  C98      1.0000 0.50850  0.67580  0.43920  Biso   1.000  C
  C99      1.0000 0.00850  0.82420  0.93920  Biso   1.000  C
  C100     1.0000 0.49150  0.32420  0.56080  Biso   1.000  C
  C101     1.0000 0.47990  0.26050  0.03620  Biso   1.000  C
  C102     1.0000 0.02010  0.76050  0.46380  Biso   1.000  C
  C103     1.0000 0.52010  0.73950  0.96380  Biso   1.000  C
  C104     1.0000 0.97990  0.23950  0.53620  Biso   1.000  C
  O49      1.0000 0.95240  0.51170  0.18380  Biso   1.000  O
  O50      1.0000 0.54760  0.01170  0.31620  Biso   1.000  O
  O51      1.0000 0.04760  0.48830  0.81620  Biso   1.000  O
  O52      1.0000 0.45240  0.98830  0.68380  Biso   1.000  O
