data_image0
_cell_length_a       14.3062
_cell_length_b       7.3389
_cell_length_c       14.963
_cell_angle_alpha    90
_cell_angle_beta     102.636
_cell_angle_gamma    90

_symmetry_space_group_name_H-M    "P 1"
_symmetry_int_tables_number       1

loop_
  _symmetry_equiv_pos_as_xyz
  'x, y, z'

loop_
  _atom_site_label
  _atom_site_occupancy
  _atom_site_fract_x
  _atom_site_fract_y
  _atom_site_fract_z
  _atom_site_thermal_displace_type
  _atom_site_B_iso_or_equiv
  _atom_site_type_symbol
  Cu1      1.0000 0.00000  0.00000  0.00000  Biso   1.000  Cu
  Cu2      1.0000 0.00000  0.50000  0.50000  Biso   1.000  Cu
  N1       1.0000 0.22030  0.44140  0.89000  Biso   1.000  N
  N2       1.0000 0.77970  0.94140  0.61000  Biso   1.000  N
  N3       1.0000 0.77970  0.55860  0.11000  Biso   1.000  N
  N4       1.0000 0.22030  0.05860  0.39000  Biso   1.000  N
  H1       1.0000 0.17990  0.43600  0.92810  Biso   1.000  H
  H2       1.0000 0.82010  0.93600  0.57190  Biso   1.000  H
  H3       1.0000 0.82010  0.56400  0.07190  Biso   1.000  H
  H4       1.0000 0.17990  0.06400  0.42810  Biso   1.000  H
  C1       1.0000 0.24466  0.24990  0.86647  Biso   1.000  C
  C2       1.0000 0.75534  0.74990  0.63353  Biso   1.000  C
  C3       1.0000 0.75534  0.75010  0.13353  Biso   1.000  C
  C4       1.0000 0.24466  0.25010  0.36647  Biso   1.000  C
  H5       1.0000 0.29530  0.25430  0.83070  Biso   1.000  H
  H6       1.0000 0.70470  0.75430  0.66930  Biso   1.000  H
  H7       1.0000 0.70470  0.74570  0.16930  Biso   1.000  H
  H8       1.0000 0.29530  0.24570  0.33070  Biso   1.000  H
  H9       1.0000 0.18730  0.19250  0.82770  Biso   1.000  H
  H10      1.0000 0.81270  0.69250  0.67230  Biso   1.000  H
  H11      1.0000 0.81270  0.80750  0.17230  Biso   1.000  H
  H12      1.0000 0.18730  0.30750  0.32770  Biso   1.000  H
  C5       1.0000 0.27909  0.13460  0.95149  Biso   1.000  C
  C6       1.0000 0.72091  0.63460  0.54851  Biso   1.000  C
  C7       1.0000 0.72091  0.86540  0.04851  Biso   1.000  C
  C8       1.0000 0.27909  0.36540  0.45149  Biso   1.000  C
  H13      1.0000 0.32870  0.20440  0.99450  Biso   1.000  H
  H14      1.0000 0.67130  0.70440  0.50550  Biso   1.000  H
  H15      1.0000 0.67130  0.79560  0.00550  Biso   1.000  H
  H16      1.0000 0.32870  0.29560  0.49450  Biso   1.000  H
  H17      1.0000 0.31030  0.02430  0.93350  Biso   1.000  H
  H18      1.0000 0.68970  0.52430  0.56650  Biso   1.000  H
  H19      1.0000 0.68970  0.97570  0.06650  Biso   1.000  H
  H20      1.0000 0.31030  0.47570  0.43350  Biso   1.000  H
  C9       1.0000 0.20314  0.07420  0.00287  Biso   1.000  C
  C10      1.0000 0.79686  0.57420  0.49713  Biso   1.000  C
  C11      1.0000 0.79686  0.92580  0.99713  Biso   1.000  C
  C12      1.0000 0.20314  0.42580  0.50287  Biso   1.000  C
  O1       1.0000 0.11645  0.07315  0.95792  Biso   1.000  O
  O2       1.0000 0.88355  0.57315  0.54208  Biso   1.000  O
  O3       1.0000 0.88355  0.92685  0.04208  Biso   1.000  O
  O4       1.0000 0.11645  0.42685  0.45792  Biso   1.000  O
  O5       1.0000 0.23159  0.02200  0.08364  Biso   1.000  O
  O6       1.0000 0.76841  0.52200  0.41636  Biso   1.000  O
  O7       1.0000 0.76841  0.97800  0.91636  Biso   1.000  O
  O8       1.0000 0.23159  0.47800  0.58364  Biso   1.000  O
  O9       1.0000 0.96483  0.70850  0.89773  Biso   1.000  O
  O10      1.0000 0.03517  0.20850  0.60227  Biso   1.000  O
  O11      1.0000 0.03517  0.29150  0.10227  Biso   1.000  O
  O12      1.0000 0.96483  0.79150  0.39773  Biso   1.000  O
  H21      1.0000 0.92100  0.64000  0.91450  Biso   1.000  H
  H22      1.0000 0.07900  0.14000  0.58550  Biso   1.000  H
  H23      1.0000 0.07900  0.36000  0.08550  Biso   1.000  H
  H24      1.0000 0.92100  0.86000  0.41450  Biso   1.000  H
  C13      1.0000 0.16840  0.54530  0.80627  Biso   1.000  C
  C14      1.0000 0.83160  0.04530  0.69373  Biso   1.000  C
  C15      1.0000 0.83160  0.45470  0.19373  Biso   1.000  C
  C16      1.0000 0.16840  0.95470  0.30627  Biso   1.000  C
  H25      1.0000 0.13030  0.45960  0.76160  Biso   1.000  H
  H26      1.0000 0.86970  0.95960  0.73840  Biso   1.000  H
  H27      1.0000 0.86970  0.54040  0.23840  Biso   1.000  H
  H28      1.0000 0.13030  0.04040  0.26160  Biso   1.000  H
  H29      1.0000 0.21560  0.60560  0.77660  Biso   1.000  H
  H30      1.0000 0.78440  0.10560  0.72340  Biso   1.000  H
  H31      1.0000 0.78440  0.39440  0.22340  Biso   1.000  H
  H32      1.0000 0.21560  0.89440  0.27660  Biso   1.000  H
  C17      1.0000 0.10277  0.68750  0.83360  Biso   1.000  C
  C18      1.0000 0.89723  0.18750  0.66640  Biso   1.000  C
  C19      1.0000 0.89723  0.31250  0.16640  Biso   1.000  C
  C20      1.0000 0.10277  0.81250  0.33360  Biso   1.000  C
  H33      1.0000 0.13920  0.76140  0.88490  Biso   1.000  H
  H34      1.0000 0.86080  0.26140  0.61510  Biso   1.000  H
  H35      1.0000 0.86080  0.23860  0.11510  Biso   1.000  H
  H36      1.0000 0.13920  0.73860  0.38490  Biso   1.000  H
  H37      1.0000 0.07890  0.77010  0.78120  Biso   1.000  H
  H38      1.0000 0.92110  0.27010  0.71880  Biso   1.000  H
  H39      1.0000 0.92110  0.22990  0.21880  Biso   1.000  H
  H40      1.0000 0.07890  0.72990  0.28120  Biso   1.000  H
  C21      1.0000 0.01916  0.59800  0.86226  Biso   1.000  C
  C22      1.0000 0.98084  0.09800  0.63774  Biso   1.000  C
  C23      1.0000 0.98084  0.40200  0.13774  Biso   1.000  C
  C24      1.0000 0.01916  0.90200  0.36226  Biso   1.000  C
  O13      1.0000 0.00477  0.43493  0.85213  Biso   1.000  O
  O14      1.0000 0.99523  0.93493  0.64787  Biso   1.000  O
  O15      1.0000 0.99523  0.56507  0.14787  Biso   1.000  O
  O16      1.0000 0.00477  0.06507  0.35213  Biso   1.000  O
  O17      1.0000 0.24607  0.58080  0.16788  Biso   1.000  O
  O18      1.0000 0.75393  0.08080  0.33212  Biso   1.000  O
  O19      1.0000 0.75393  0.41920  0.83212  Biso   1.000  O
  O20      1.0000 0.24607  0.91920  0.66788  Biso   1.000  O
  C25      1.0000 0.30376  0.54580  0.94171  Biso   1.000  C
  C26      1.0000 0.69624  0.04580  0.55829  Biso   1.000  C
  C27      1.0000 0.69624  0.45420  0.05829  Biso   1.000  C
  C28      1.0000 0.30376  0.95420  0.44171  Biso   1.000  C
  C29      1.0000 0.37566  0.59450  0.89703  Biso   1.000  C
  C30      1.0000 0.62434  0.09450  0.60297  Biso   1.000  C
  C31      1.0000 0.62434  0.40550  0.10297  Biso   1.000  C
  C32      1.0000 0.37566  0.90550  0.39703  Biso   1.000  C
  H41      1.0000 0.37250  0.55610  0.83580  Biso   1.000  H
  H42      1.0000 0.62750  0.05610  0.66420  Biso   1.000  H
  H43      1.0000 0.62750  0.44390  0.16420  Biso   1.000  H
  H44      1.0000 0.37250  0.94390  0.33580  Biso   1.000  H
  C33      1.0000 0.45216  0.69970  0.94251  Biso   1.000  C
  C34      1.0000 0.54784  0.19970  0.55749  Biso   1.000  C
  C35      1.0000 0.54784  0.30030  0.05749  Biso   1.000  C
  C36      1.0000 0.45216  0.80030  0.44251  Biso   1.000  C
  H45      1.0000 0.50130  0.73390  0.91220  Biso   1.000  H
  H46      1.0000 0.49870  0.23390  0.58780  Biso   1.000  H
  H47      1.0000 0.49870  0.26610  0.08780  Biso   1.000  H
  H48      1.0000 0.50130  0.76610  0.41220  Biso   1.000  H
  C37      1.0000 0.45708  0.75520  0.03222  Biso   1.000  C
  C38      1.0000 0.54292  0.25520  0.46778  Biso   1.000  C
  C39      1.0000 0.54292  0.24480  0.96778  Biso   1.000  C
  C40      1.0000 0.45708  0.74480  0.53222  Biso   1.000  C
  H49      1.0000 0.50880  0.82900  0.06290  Biso   1.000  H
  H50      1.0000 0.49120  0.32900  0.43710  Biso   1.000  H
  H51      1.0000 0.49120  0.17100  0.93710  Biso   1.000  H
  H52      1.0000 0.50880  0.67100  0.56290  Biso   1.000  H
  C41      1.0000 0.38593  0.70230  0.07666  Biso   1.000  C
  C42      1.0000 0.61407  0.20230  0.42334  Biso   1.000  C
  C43      1.0000 0.61407  0.29770  0.92334  Biso   1.000  C
  C44      1.0000 0.38593  0.79770  0.57666  Biso   1.000  C
  H53      1.0000 0.39040  0.73830  0.13840  Biso   1.000  H
  H54      1.0000 0.60960  0.23830  0.36160  Biso   1.000  H
  H55      1.0000 0.60960  0.26170  0.86160  Biso   1.000  H
  H56      1.0000 0.39040  0.76170  0.63840  Biso   1.000  H
  C45      1.0000 0.30790  0.59720  0.03274  Biso   1.000  C
  C46      1.0000 0.69210  0.09720  0.46726  Biso   1.000  C
  C47      1.0000 0.69210  0.40280  0.96726  Biso   1.000  C
  C48      1.0000 0.30790  0.90280  0.53274  Biso   1.000  C
  C49      1.0000 0.23253  0.54540  0.08565  Biso   1.000  C
  C50      1.0000 0.76747  0.04540  0.41435  Biso   1.000  C
  C51      1.0000 0.76747  0.45460  0.91435  Biso   1.000  C
  C52      1.0000 0.23253  0.95460  0.58565  Biso   1.000  C
  O21      1.0000 0.15771  0.46550  0.03866  Biso   1.000  O
  O22      1.0000 0.84229  0.96550  0.46134  Biso   1.000  O
  O23      1.0000 0.84229  0.53450  0.96134  Biso   1.000  O
  O24      1.0000 0.15771  0.03450  0.53866  Biso   1.000  O
  O25      1.0000 0.92715  0.12840  0.89530  Biso   1.000  O
  O26      1.0000 0.07285  0.62840  0.60470  Biso   1.000  O
  O27      1.0000 0.07285  0.87160  0.10470  Biso   1.000  O
  O28      1.0000 0.92715  0.37160  0.39530  Biso   1.000  O
  H57      1.0000 0.86500  0.10700  0.89180  Biso   1.000  H
  H58      1.0000 0.13500  0.60700  0.60820  Biso   1.000  H
  H59      1.0000 0.13500  0.89300  0.10820  Biso   1.000  H
  H60      1.0000 0.86500  0.39300  0.39180  Biso   1.000  H
  H61      1.0000 0.94100  0.24200  0.89230  Biso   1.000  H
  H62      1.0000 0.05900  0.74200  0.60770  Biso   1.000  H
  H63      1.0000 0.05900  0.75800  0.10770  Biso   1.000  H
  H64      1.0000 0.94100  0.25800  0.39230  Biso   1.000  H
  O29      1.0000 0.41262  0.43870  0.27847  Biso   1.000  O
  O30      1.0000 0.58738  0.93870  0.22153  Biso   1.000  O
  O31      1.0000 0.58738  0.56130  0.72153  Biso   1.000  O
  O32      1.0000 0.41262  0.06130  0.77847  Biso   1.000  O
  H65      1.0000 0.46100  0.49900  0.27800  Biso   1.000  H
  H66      1.0000 0.53900  0.99900  0.22200  Biso   1.000  H
  H67      1.0000 0.53900  0.50100  0.72200  Biso   1.000  H
  H68      1.0000 0.46100  0.00100  0.77800  Biso   1.000  H
  H69      1.0000 0.37100  0.50900  0.24500  Biso   1.000  H
  H70      1.0000 0.62900  0.00900  0.25500  Biso   1.000  H
  H71      1.0000 0.62900  0.49100  0.75500  Biso   1.000  H
  H72      1.0000 0.37100  0.99100  0.74500  Biso   1.000  H
  O33      1.0000 0.40790  0.09780  0.20044  Biso   1.000  O
  O34      1.0000 0.59210  0.59780  0.29956  Biso   1.000  O
  O35      1.0000 0.59210  0.90220  0.79956  Biso   1.000  O
  O36      1.0000 0.40790  0.40220  0.70044  Biso   1.000  O
  H73      1.0000 0.35700  0.07800  0.16300  Biso   1.000  H
  H74      1.0000 0.64300  0.57800  0.33700  Biso   1.000  H
  H75      1.0000 0.64300  0.92200  0.83700  Biso   1.000  H
  H76      1.0000 0.35700  0.42200  0.66300  Biso   1.000  H
  H77      1.0000 0.40500  0.20400  0.21800  Biso   1.000  H
  H78      1.0000 0.59500  0.70400  0.28200  Biso   1.000  H
  H79      1.0000 0.59500  0.79600  0.78200  Biso   1.000  H
  H80      1.0000 0.40500  0.29600  0.71800  Biso   1.000  H
