data_image0
_cell_length_a       22.6828
_cell_length_b       7.4054
_cell_length_c       10.1719
_cell_angle_alpha    90
_cell_angle_beta     90
_cell_angle_gamma    90

_symmetry_space_group_name_H-M    "P 1"
_symmetry_int_tables_number       1

loop_
  _symmetry_equiv_pos_as_xyz
  'x, y, z'

loop_
  _atom_site_label
  _atom_site_occupancy
  _atom_site_fract_x
  _atom_site_fract_y
  _atom_site_fract_z
  _atom_site_thermal_displace_type
  _atom_site_B_iso_or_equiv
  _atom_site_type_symbol
  Cu1      1.0000 0.03412  0.20640  0.74807  Biso   1.000  Cu
  Cu2      1.0000 0.96588  0.79360  0.74807  Biso   1.000  Cu
  Cu3      1.0000 0.46588  0.70640  0.25193  Biso   1.000  Cu
  Cu4      1.0000 0.53412  0.29360  0.25193  Biso   1.000  Cu
  Cu5      1.0000 0.00000  0.00000  0.33576  Biso   1.000  Cu
  Cu6      1.0000 0.50000  0.50000  0.66424  Biso   1.000  Cu
  N1       1.0000 0.12265  0.25960  0.75210  Biso   1.000  N
  N2       1.0000 0.87735  0.74040  0.75210  Biso   1.000  N
  N3       1.0000 0.37735  0.75960  0.24790  Biso   1.000  N
  N4       1.0000 0.62265  0.24040  0.24790  Biso   1.000  N
  C1       1.0000 0.15251  0.08660  0.79220  Biso   1.000  C
  C2       1.0000 0.84749  0.91340  0.79220  Biso   1.000  C
  C3       1.0000 0.34749  0.58660  0.20780  Biso   1.000  C
  C4       1.0000 0.65251  0.41340  0.20780  Biso   1.000  C
  H1       1.0000 0.13530  0.04570  0.87650  Biso   1.000  H
  H2       1.0000 0.86470  0.95430  0.87650  Biso   1.000  H
  H3       1.0000 0.36470  0.54570  0.12350  Biso   1.000  H
  H4       1.0000 0.63530  0.45430  0.12350  Biso   1.000  H
  H5       1.0000 0.19480  0.11200  0.80790  Biso   1.000  H
  H6       1.0000 0.80520  0.88800  0.80790  Biso   1.000  H
  H7       1.0000 0.30520  0.61200  0.19210  Biso   1.000  H
  H8       1.0000 0.69480  0.38800  0.19210  Biso   1.000  H
  C5       1.0000 0.14778  0.93410  0.69360  Biso   1.000  C
  C6       1.0000 0.85222  0.06590  0.69360  Biso   1.000  C
  C7       1.0000 0.35222  0.43410  0.30640  Biso   1.000  C
  C8       1.0000 0.64778  0.56590  0.30640  Biso   1.000  C
  H9       1.0000 0.17820  0.84300  0.71570  Biso   1.000  H
  H10      1.0000 0.82180  0.15700  0.71570  Biso   1.000  H
  H11      1.0000 0.32180  0.34300  0.28430  Biso   1.000  H
  H12      1.0000 0.67820  0.65700  0.28430  Biso   1.000  H
  H13      1.0000 0.15770  0.98300  0.60580  Biso   1.000  H
  H14      1.0000 0.84230  0.01700  0.60580  Biso   1.000  H
  H15      1.0000 0.34230  0.48300  0.39420  Biso   1.000  H
  H16      1.0000 0.65770  0.51700  0.39420  Biso   1.000  H
  C9       1.0000 0.08864  0.83710  0.68280  Biso   1.000  C
  C10      1.0000 0.91136  0.16290  0.68280  Biso   1.000  C
  C11      1.0000 0.41136  0.33710  0.31720  Biso   1.000  C
  C12      1.0000 0.58864  0.66290  0.31720  Biso   1.000  C
  O1       1.0000 0.04855  0.88070  0.76379  Biso   1.000  O
  O2       1.0000 0.95145  0.11930  0.76379  Biso   1.000  O
  O3       1.0000 0.45145  0.38070  0.23621  Biso   1.000  O
  O4       1.0000 0.54855  0.61930  0.23621  Biso   1.000  O
  O5       1.0000 0.08456  0.71670  0.59778  Biso   1.000  O
  O6       1.0000 0.91544  0.28330  0.59778  Biso   1.000  O
  O7       1.0000 0.41544  0.21670  0.40222  Biso   1.000  O
  O8       1.0000 0.58456  0.78330  0.40222  Biso   1.000  O
  C13      1.0000 0.12732  0.38960  0.86330  Biso   1.000  C
  C14      1.0000 0.87268  0.61040  0.86330  Biso   1.000  C
  C15      1.0000 0.37268  0.88960  0.13670  Biso   1.000  C
  C16      1.0000 0.62732  0.11040  0.13670  Biso   1.000  C
  H17      1.0000 0.12200  0.51400  0.82970  Biso   1.000  H
  H18      1.0000 0.87800  0.48600  0.82970  Biso   1.000  H
  H19      1.0000 0.37800  0.01400  0.17030  Biso   1.000  H
  H20      1.0000 0.62200  0.98600  0.17030  Biso   1.000  H
  H21      1.0000 0.16720  0.38120  0.90250  Biso   1.000  H
  H22      1.0000 0.83280  0.61880  0.90250  Biso   1.000  H
  H23      1.0000 0.33280  0.88120  0.09750  Biso   1.000  H
  H24      1.0000 0.66720  0.11880  0.09750  Biso   1.000  H
  C17      1.0000 0.08133  0.35230  0.96900  Biso   1.000  C
  C18      1.0000 0.91867  0.64770  0.96900  Biso   1.000  C
  C19      1.0000 0.41867  0.85230  0.03100  Biso   1.000  C
  C20      1.0000 0.58133  0.14770  0.03100  Biso   1.000  C
  O9       1.0000 0.03689  0.25790  0.93614  Biso   1.000  O
  O10      1.0000 0.96311  0.74210  0.93614  Biso   1.000  O
  O11      1.0000 0.46311  0.75790  0.06386  Biso   1.000  O
  O12      1.0000 0.53689  0.24210  0.06386  Biso   1.000  O
  O13      1.0000 0.08993  0.42090  0.07803  Biso   1.000  O
  O14      1.0000 0.91007  0.57910  0.07803  Biso   1.000  O
  O15      1.0000 0.41007  0.92090  0.92197  Biso   1.000  O
  O16      1.0000 0.58993  0.07910  0.92197  Biso   1.000  O
  C21      1.0000 0.15079  0.33810  0.63510  Biso   1.000  C
  C22      1.0000 0.84921  0.66190  0.63510  Biso   1.000  C
  C23      1.0000 0.34921  0.83810  0.36490  Biso   1.000  C
  C24      1.0000 0.65079  0.16190  0.36490  Biso   1.000  C
  C25      1.0000 0.20290  0.43580  0.65150  Biso   1.000  C
  C26      1.0000 0.79710  0.56420  0.65150  Biso   1.000  C
  C27      1.0000 0.29710  0.93580  0.34850  Biso   1.000  C
  C28      1.0000 0.70290  0.06420  0.34850  Biso   1.000  C
  H25      1.0000 0.22080  0.44110  0.73580  Biso   1.000  H
  H26      1.0000 0.77920  0.55890  0.73580  Biso   1.000  H
  H27      1.0000 0.27920  0.94110  0.26420  Biso   1.000  H
  H28      1.0000 0.72080  0.05890  0.26420  Biso   1.000  H
  C29      1.0000 0.22897  0.52520  0.54700  Biso   1.000  C
  C30      1.0000 0.77103  0.47480  0.54700  Biso   1.000  C
  C31      1.0000 0.27103  0.02520  0.45300  Biso   1.000  C
  C32      1.0000 0.72897  0.97480  0.45300  Biso   1.000  C
  H29      1.0000 0.26410  0.59230  0.56040  Biso   1.000  H
  H30      1.0000 0.73590  0.40770  0.56040  Biso   1.000  H
  H31      1.0000 0.23590  0.09230  0.43960  Biso   1.000  H
  H32      1.0000 0.76410  0.90770  0.43960  Biso   1.000  H
  C33      1.0000 0.20397  0.51690  0.42330  Biso   1.000  C
  C34      1.0000 0.79603  0.48310  0.42330  Biso   1.000  C
  C35      1.0000 0.29603  0.01690  0.57670  Biso   1.000  C
  C36      1.0000 0.70397  0.98310  0.57670  Biso   1.000  C
  H33      1.0000 0.22050  0.58310  0.35230  Biso   1.000  H
  H34      1.0000 0.77950  0.41690  0.35230  Biso   1.000  H
  H35      1.0000 0.27950  0.08310  0.64770  Biso   1.000  H
  H36      1.0000 0.72050  0.91690  0.64770  Biso   1.000  H
  C37      1.0000 0.15453  0.41090  0.40430  Biso   1.000  C
  C38      1.0000 0.84547  0.58910  0.40430  Biso   1.000  C
  C39      1.0000 0.34547  0.91090  0.59570  Biso   1.000  C
  C40      1.0000 0.65453  0.08910  0.59570  Biso   1.000  C
  H37      1.0000 0.13850  0.39970  0.31840  Biso   1.000  H
  H38      1.0000 0.86150  0.60030  0.31840  Biso   1.000  H
  H39      1.0000 0.36150  0.89970  0.68160  Biso   1.000  H
  H40      1.0000 0.63850  0.10030  0.68160  Biso   1.000  H
  C41      1.0000 0.12755  0.32010  0.50830  Biso   1.000  C
  C42      1.0000 0.87245  0.67990  0.50830  Biso   1.000  C
  C43      1.0000 0.37245  0.82010  0.49170  Biso   1.000  C
  C44      1.0000 0.62755  0.17990  0.49170  Biso   1.000  C
  C45      1.0000 0.07515  0.20560  0.47600  Biso   1.000  C
  C46      1.0000 0.92485  0.79440  0.47600  Biso   1.000  C
  C47      1.0000 0.42485  0.70560  0.52400  Biso   1.000  C
  C48      1.0000 0.57515  0.29440  0.52400  Biso   1.000  C
  O17      1.0000 0.03858  0.15470  0.56137  Biso   1.000  O
  O18      1.0000 0.96142  0.84530  0.56137  Biso   1.000  O
  O19      1.0000 0.46142  0.65470  0.43863  Biso   1.000  O
  O20      1.0000 0.53858  0.34530  0.43863  Biso   1.000  O
  O21      1.0000 0.06931  0.15780  0.35717  Biso   1.000  O
  O22      1.0000 0.93069  0.84220  0.35717  Biso   1.000  O
  O23      1.0000 0.43069  0.65780  0.64283  Biso   1.000  O
  O24      1.0000 0.56931  0.34220  0.64283  Biso   1.000  O
  O25      1.0000 0.00000  0.50000  0.69190  Biso   1.000  O
  O26      1.0000 0.50000  0.00000  0.30810  Biso   1.000  O
  H41      1.0000 0.97850  0.44600  0.64100  Biso   1.000  H
  H42      1.0000 0.02150  0.55400  0.64100  Biso   1.000  H
  H43      1.0000 0.52150  0.94600  0.35900  Biso   1.000  H
  H44      1.0000 0.47850  0.05400  0.35900  Biso   1.000  H
  O27      1.0000 0.00000  0.00000  0.12350  Biso   1.000  O
  O28      1.0000 0.50000  0.50000  0.87650  Biso   1.000  O
  H45      1.0000 0.01300  0.06800  0.07800  Biso   1.000  H
  H46      1.0000 0.98700  0.93200  0.07800  Biso   1.000  H
  H47      1.0000 0.48700  0.56800  0.92200  Biso   1.000  H
  H48      1.0000 0.51300  0.43200  0.92200  Biso   1.000  H
  O29      1.0000 0.94538  0.20870  0.34230  Biso   1.000  O
  O30      1.0000 0.05462  0.79130  0.34230  Biso   1.000  O
  O31      1.0000 0.55462  0.70870  0.65770  Biso   1.000  O
  O32      1.0000 0.44538  0.29130  0.65770  Biso   1.000  O
  H49      1.0000 0.93310  0.22900  0.41400  Biso   1.000  H
  H50      1.0000 0.06690  0.77100  0.41400  Biso   1.000  H
  H51      1.0000 0.56690  0.72900  0.58600  Biso   1.000  H
  H52      1.0000 0.43310  0.27100  0.58600  Biso   1.000  H
  H53      1.0000 0.95610  0.28400  0.30800  Biso   1.000  H
  H54      1.0000 0.04390  0.71600  0.30800  Biso   1.000  H
  H55      1.0000 0.54390  0.78400  0.69200  Biso   1.000  H
  H56      1.0000 0.45610  0.21600  0.69200  Biso   1.000  H
  O33      1.0000 0.00000  0.50000  0.24060  Biso   1.000  O
  O34      1.0000 0.50000  0.00000  0.75940  Biso   1.000  O
  H57      1.0000 0.97670  0.55100  0.19400  Biso   1.000  H
  H58      1.0000 0.02330  0.44900  0.19400  Biso   1.000  H
  H59      1.0000 0.52330  0.05100  0.80600  Biso   1.000  H
  H60      1.0000 0.47670  0.94900  0.80600  Biso   1.000  H
  O35      1.0000 0.25446  0.76860  0.89670  Biso   1.000  O
  O36      1.0000 0.74554  0.23140  0.89670  Biso   1.000  O
  O37      1.0000 0.24554  0.26860  0.10330  Biso   1.000  O
  O38      1.0000 0.75446  0.73140  0.10330  Biso   1.000  O
  H61      1.0000 0.28100  0.71000  0.86400  Biso   1.000  H
  H62      1.0000 0.71900  0.29000  0.86400  Biso   1.000  H
  H63      1.0000 0.21900  0.21000  0.13600  Biso   1.000  H
  H64      1.0000 0.78100  0.79000  0.13600  Biso   1.000  H
  H65      1.0000 0.27300  0.87100  0.89800  Biso   1.000  H
  H66      1.0000 0.72700  0.12900  0.89800  Biso   1.000  H
  H67      1.0000 0.22700  0.37100  0.10200  Biso   1.000  H
  H68      1.0000 0.77300  0.62900  0.10200  Biso   1.000  H
  O39      1.0000 0.16386  0.01990  0.18310  Biso   1.000  O
  O40      1.0000 0.83614  0.98010  0.18310  Biso   1.000  O
  O41      1.0000 0.33614  0.51990  0.81690  Biso   1.000  O
  O42      1.0000 0.66386  0.48010  0.81690  Biso   1.000  O
  H69      1.0000 0.13140  0.04500  0.22100  Biso   1.000  H
  H70      1.0000 0.86860  0.95500  0.22100  Biso   1.000  H
  H71      1.0000 0.36860  0.54500  0.77900  Biso   1.000  H
  H72      1.0000 0.63140  0.45500  0.77900  Biso   1.000  H
  H73      1.0000 0.16400  0.90600  0.15400  Biso   1.000  H
  H74      1.0000 0.83600  0.09400  0.15400  Biso   1.000  H
  H75      1.0000 0.33600  0.40600  0.84600  Biso   1.000  H
  H76      1.0000 0.66400  0.59400  0.84600  Biso   1.000  H
  O43      1.0000 0.19231  0.64120  0.11200  Biso   1.000  O
  O44      1.0000 0.80769  0.35880  0.11200  Biso   1.000  O
  O45      1.0000 0.30769  0.14120  0.88800  Biso   1.000  O
  O46      1.0000 0.69231  0.85880  0.88800  Biso   1.000  O
  H77      1.0000 0.21060  0.67200  0.05000  Biso   1.000  H
  H78      1.0000 0.78940  0.32800  0.05000  Biso   1.000  H
  H79      1.0000 0.28940  0.17200  0.95000  Biso   1.000  H
  H80      1.0000 0.71060  0.82800  0.95000  Biso   1.000  H
  H81      1.0000 0.15960  0.59900  0.09400  Biso   1.000  H
  H82      1.0000 0.84040  0.40100  0.09400  Biso   1.000  H
  H83      1.0000 0.34040  0.09900  0.90600  Biso   1.000  H
  H84      1.0000 0.65960  0.90100  0.90600  Biso   1.000  H
