data_image0
_cell_length_a       8.4438
_cell_length_b       10.0791
_cell_length_c       19.41
_cell_angle_alpha    90
_cell_angle_beta     92.264
_cell_angle_gamma    90

_symmetry_space_group_name_H-M    "P 1"
_symmetry_int_tables_number       1

loop_
  _symmetry_equiv_pos_as_xyz
  'x, y, z'

loop_
  _atom_site_label
  _atom_site_occupancy
  _atom_site_fract_x
  _atom_site_fract_y
  _atom_site_fract_z
  _atom_site_thermal_displace_type
  _atom_site_B_iso_or_equiv
  _atom_site_type_symbol
  Ag1      1.0000 0.41431  0.72622  0.12913  Biso   1.000  Ag
  Ag2      1.0000 0.08569  0.22622  0.37087  Biso   1.000  Ag
  Ag3      1.0000 0.58569  0.27378  0.87087  Biso   1.000  Ag
  Ag4      1.0000 0.91431  0.77378  0.62913  Biso   1.000  Ag
  Cu1      1.0000 0.62767  0.53583  0.27100  Biso   1.000  Cu
  Cu2      1.0000 0.87233  0.03583  0.22900  Biso   1.000  Cu
  Cu3      1.0000 0.37233  0.46417  0.72900  Biso   1.000  Cu
  Cu4      1.0000 0.12767  0.96417  0.77100  Biso   1.000  Cu
  Cu5      1.0000 0.31772  0.45460  0.03570  Biso   1.000  Cu
  Cu6      1.0000 0.18228  0.95460  0.46430  Biso   1.000  Cu
  Cu7      1.0000 0.68228  0.54540  0.96430  Biso   1.000  Cu
  Cu8      1.0000 0.81772  0.04540  0.53570  Biso   1.000  Cu
  O1       1.0000 0.18420  0.36140  0.96483  Biso   1.000  O
  O2       1.0000 0.31580  0.86140  0.53517  Biso   1.000  O
  O3       1.0000 0.81580  0.63860  0.03517  Biso   1.000  O
  O4       1.0000 0.68420  0.13860  0.46483  Biso   1.000  O
  O5       1.0000 0.14890  0.60950  0.11600  Biso   1.000  O
  O6       1.0000 0.35110  0.10950  0.38400  Biso   1.000  O
  O7       1.0000 0.85110  0.39050  0.88400  Biso   1.000  O
  O8       1.0000 0.64890  0.89050  0.61600  Biso   1.000  O
  H1       1.0000 0.11500  0.56500  0.15100  Biso   1.000  H
  H2       1.0000 0.38500  0.06500  0.34900  Biso   1.000  H
  H3       1.0000 0.88500  0.43500  0.84900  Biso   1.000  H
  H4       1.0000 0.61500  0.93500  0.65100  Biso   1.000  H
  H5       1.0000 0.09700  0.68200  0.12500  Biso   1.000  H
  H6       1.0000 0.40300  0.18200  0.37500  Biso   1.000  H
  H7       1.0000 0.90300  0.31800  0.87500  Biso   1.000  H
  H8       1.0000 0.59700  0.81800  0.62500  Biso   1.000  H
  O9       1.0000 0.04530  0.17540  0.94766  Biso   1.000  O
  O10      1.0000 0.45470  0.67540  0.55234  Biso   1.000  O
  O11      1.0000 0.95470  0.82460  0.05234  Biso   1.000  O
  O12      1.0000 0.54530  0.32460  0.44766  Biso   1.000  O
  O13      1.0000 0.78580  0.63180  0.19246  Biso   1.000  O
  O14      1.0000 0.71420  0.13180  0.30754  Biso   1.000  O
  O15      1.0000 0.21420  0.36820  0.80754  Biso   1.000  O
  O16      1.0000 0.28580  0.86820  0.69246  Biso   1.000  O
  H9       1.0000 0.79200  0.71440  0.19200  Biso   1.000  H
  H10      1.0000 0.70800  0.21440  0.30800  Biso   1.000  H
  H11      1.0000 0.20800  0.28560  0.80800  Biso   1.000  H
  H12      1.0000 0.29200  0.78560  0.69200  Biso   1.000  H
  H13      1.0000 0.80900  0.60500  0.15340  Biso   1.000  H
  H14      1.0000 0.69100  0.10500  0.34660  Biso   1.000  H
  H15      1.0000 0.19100  0.39500  0.84660  Biso   1.000  H
  H16      1.0000 0.30900  0.89500  0.65340  Biso   1.000  H
  O17      1.0000 0.53520  0.38930  0.22201  Biso   1.000  O
  O18      1.0000 0.96480  0.88930  0.27799  Biso   1.000  O
  O19      1.0000 0.46480  0.61070  0.77799  Biso   1.000  O
  O20      1.0000 0.03520  0.11070  0.72201  Biso   1.000  O
  O21      1.0000 0.46190  0.48740  0.12244  Biso   1.000  O
  O22      1.0000 0.03810  0.98740  0.37756  Biso   1.000  O
  O23      1.0000 0.53810  0.51260  0.87756  Biso   1.000  O
  O24      1.0000 0.96190  0.01260  0.62244  Biso   1.000  O
  O25      1.0000 0.24880  0.93440  0.17648  Biso   1.000  O
  O26      1.0000 0.25120  0.43440  0.32352  Biso   1.000  O
  O27      1.0000 0.75120  0.06560  0.82352  Biso   1.000  O
  O28      1.0000 0.74880  0.56560  0.67648  Biso   1.000  O
  H17      1.0000 0.30620  0.92970  0.21150  Biso   1.000  H
  H18      1.0000 0.19380  0.42970  0.28850  Biso   1.000  H
  H19      1.0000 0.69380  0.07030  0.78850  Biso   1.000  H
  H20      1.0000 0.80620  0.57030  0.71150  Biso   1.000  H
  O29      1.0000 0.56370  0.89590  0.08539  Biso   1.000  O
  O30      1.0000 0.93630  0.39590  0.41461  Biso   1.000  O
  O31      1.0000 0.43630  0.10410  0.91461  Biso   1.000  O
  O32      1.0000 0.06370  0.60410  0.58539  Biso   1.000  O
  O33      1.0000 0.71960  0.91040  0.18103  Biso   1.000  O
  O34      1.0000 0.78040  0.41040  0.31897  Biso   1.000  O
  O35      1.0000 0.28040  0.08960  0.81897  Biso   1.000  O
  O36      1.0000 0.21960  0.58960  0.68103  Biso   1.000  O
  O37      1.0000 0.07260  0.39890  0.20690  Biso   1.000  O
  O38      1.0000 0.42740  0.89890  0.29310  Biso   1.000  O
  O39      1.0000 0.92740  0.60110  0.79310  Biso   1.000  O
  O40      1.0000 0.57260  0.10110  0.70690  Biso   1.000  O
  O41      1.0000 0.02260  0.19560  0.24607  Biso   1.000  O
  O42      1.0000 0.47740  0.69560  0.25393  Biso   1.000  O
  O43      1.0000 0.97740  0.80440  0.75393  Biso   1.000  O
  O44      1.0000 0.52260  0.30440  0.74607  Biso   1.000  O
  O45      1.0000 0.63780  0.37540  0.99751  Biso   1.000  O
  O46      1.0000 0.86220  0.87540  0.50249  Biso   1.000  O
  O47      1.0000 0.36220  0.62460  0.00249  Biso   1.000  O
  O48      1.0000 0.13780  0.12460  0.49751  Biso   1.000  O
  N1       1.0000 0.29970  0.28920  0.08075  Biso   1.000  N
  N2       1.0000 0.20030  0.78920  0.41925  Biso   1.000  N
  N3       1.0000 0.70030  0.71080  0.91925  Biso   1.000  N
  N4       1.0000 0.79970  0.21080  0.58075  Biso   1.000  N
  N5       1.0000 0.81790  0.14230  0.15190  Biso   1.000  N
  N6       1.0000 0.68210  0.64230  0.34810  Biso   1.000  N
  N7       1.0000 0.18210  0.85770  0.84810  Biso   1.000  N
  N8       1.0000 0.31790  0.35770  0.65190  Biso   1.000  N
  C1       1.0000 0.21030  0.19450  0.05051  Biso   1.000  C
  C2       1.0000 0.28970  0.69450  0.44949  Biso   1.000  C
  C3       1.0000 0.78970  0.80550  0.94949  Biso   1.000  C
  C4       1.0000 0.71030  0.30550  0.55051  Biso   1.000  C
  C5       1.0000 0.19150  0.07260  0.08170  Biso   1.000  C
  C6       1.0000 0.30850  0.57260  0.41830  Biso   1.000  C
  C7       1.0000 0.80850  0.92740  0.91830  Biso   1.000  C
  C8       1.0000 0.69150  0.42740  0.58170  Biso   1.000  C
  H21      1.0000 0.12970  0.00630  0.06080  Biso   1.000  H
  H22      1.0000 0.37030  0.50630  0.43920  Biso   1.000  H
  H23      1.0000 0.87030  0.99370  0.93920  Biso   1.000  H
  H24      1.0000 0.62970  0.49370  0.56080  Biso   1.000  H
  C9       1.0000 0.26910  0.05270  0.14600  Biso   1.000  C
  C10      1.0000 0.23090  0.55270  0.35400  Biso   1.000  C
  C11      1.0000 0.73090  0.94730  0.85400  Biso   1.000  C
  C12      1.0000 0.76910  0.44730  0.64600  Biso   1.000  C
  C13      1.0000 0.36130  0.15230  0.17682  Biso   1.000  C
  C14      1.0000 0.13870  0.65230  0.32318  Biso   1.000  C
  C15      1.0000 0.63870  0.84770  0.82318  Biso   1.000  C
  C16      1.0000 0.86130  0.34770  0.67682  Biso   1.000  C
  H25      1.0000 0.41300  0.13960  0.21950  Biso   1.000  H
  H26      1.0000 0.08700  0.63960  0.28050  Biso   1.000  H
  H27      1.0000 0.58700  0.86040  0.78050  Biso   1.000  H
  H28      1.0000 0.91300  0.36040  0.71950  Biso   1.000  H
  C17      1.0000 0.37320  0.26980  0.14199  Biso   1.000  C
  C18      1.0000 0.12680  0.76980  0.35801  Biso   1.000  C
  C19      1.0000 0.62680  0.73020  0.85801  Biso   1.000  C
  C20      1.0000 0.87320  0.23020  0.64199  Biso   1.000  C
  C21      1.0000 0.13880  0.24350  0.98200  Biso   1.000  C
  C22      1.0000 0.36120  0.74350  0.51800  Biso   1.000  C
  C23      1.0000 0.86120  0.75650  0.01800  Biso   1.000  C
  C24      1.0000 0.63880  0.25650  0.48200  Biso   1.000  C
  C25      1.0000 0.46440  0.39160  0.16431  Biso   1.000  C
  C26      1.0000 0.03560  0.89160  0.33569  Biso   1.000  C
  C27      1.0000 0.53560  0.60840  0.83569  Biso   1.000  C
  C28      1.0000 0.96440  0.10840  0.66431  Biso   1.000  C
  C29      1.0000 0.71180  0.09370  0.10557  Biso   1.000  C
  C30      1.0000 0.78820  0.59370  0.39443  Biso   1.000  C
  C31      1.0000 0.28820  0.90630  0.89443  Biso   1.000  C
  C32      1.0000 0.21180  0.40630  0.60557  Biso   1.000  C
  C33      1.0000 0.65550  0.16830  0.05066  Biso   1.000  C
  C34      1.0000 0.84450  0.66830  0.44934  Biso   1.000  C
  C35      1.0000 0.34450  0.83170  0.94934  Biso   1.000  C
  C36      1.0000 0.15550  0.33170  0.55066  Biso   1.000  C
  H29      1.0000 0.58430  0.13240  0.01800  Biso   1.000  H
  H30      1.0000 0.91570  0.63240  0.48200  Biso   1.000  H
  H31      1.0000 0.41570  0.86760  0.98200  Biso   1.000  H
  H32      1.0000 0.08430  0.36760  0.51800  Biso   1.000  H
  C37      1.0000 0.70800  0.30050  0.04486  Biso   1.000  C
  C38      1.0000 0.79200  0.80050  0.45514  Biso   1.000  C
  C39      1.0000 0.29200  0.69950  0.95514  Biso   1.000  C
  C40      1.0000 0.20800  0.19950  0.54486  Biso   1.000  C
  C41      1.0000 0.82850  0.34600  0.09233  Biso   1.000  C
  C42      1.0000 0.67150  0.84600  0.40767  Biso   1.000  C
  C43      1.0000 0.17150  0.65400  0.90767  Biso   1.000  C
  C44      1.0000 0.32850  0.15400  0.59233  Biso   1.000  C
  H33      1.0000 0.87270  0.42990  0.08760  Biso   1.000  H
  H34      1.0000 0.62730  0.92990  0.41240  Biso   1.000  H
  H35      1.0000 0.12730  0.57010  0.91240  Biso   1.000  H
  H36      1.0000 0.37270  0.07010  0.58760  Biso   1.000  H
  C45      1.0000 0.87870  0.26340  0.14545  Biso   1.000  C
  C46      1.0000 0.62130  0.76340  0.35455  Biso   1.000  C
  C47      1.0000 0.12130  0.73660  0.85455  Biso   1.000  C
  C48      1.0000 0.37870  0.23660  0.64545  Biso   1.000  C
  C49      1.0000 0.65920  0.95500  0.12420  Biso   1.000  C
  C50      1.0000 0.84080  0.45500  0.37580  Biso   1.000  C
  C51      1.0000 0.34080  0.04500  0.87580  Biso   1.000  C
  C52      1.0000 0.15920  0.54500  0.62420  Biso   1.000  C
  C53      1.0000 0.00160  0.29160  0.20370  Biso   1.000  C
  C54      1.0000 0.49840  0.79160  0.29630  Biso   1.000  C
  C55      1.0000 0.99840  0.70840  0.79630  Biso   1.000  C
  C56      1.0000 0.50160  0.20840  0.70370  Biso   1.000  C
