data_image0
_cell_length_a       7.3744
_cell_length_b       8.4911
_cell_length_c       10.8364
_cell_angle_alpha    88.1732
_cell_angle_beta     80.1801
_cell_angle_gamma    65.2284

_symmetry_space_group_name_H-M    "P 1"
_symmetry_int_tables_number       1

loop_
  _symmetry_equiv_pos_as_xyz
  'x, y, z'

loop_
  _atom_site_label
  _atom_site_occupancy
  _atom_site_fract_x
  _atom_site_fract_y
  _atom_site_fract_z
  _atom_site_thermal_displace_type
  _atom_site_B_iso_or_equiv
  _atom_site_type_symbol
  Cu1      1.0000 0.00000  0.00000  0.00000  Biso   1.000  Cu
  Cu2      1.0000 0.58237  0.01774  0.38555  Biso   1.000  Cu
  Cu3      1.0000 0.41763  0.98226  0.61445  Biso   1.000  Cu
  O1       1.0000 0.75170  0.96640  0.99836  Biso   1.000  O
  O2       1.0000 0.24830  0.03360  0.00164  Biso   1.000  O
  O3       1.0000 0.71710  0.03040  0.19818  Biso   1.000  O
  O4       1.0000 0.28290  0.96960  0.80182  Biso   1.000  O
  O5       1.0000 0.61650  0.77630  0.36150  Biso   1.000  O
  O6       1.0000 0.38350  0.22370  0.63850  Biso   1.000  O
  O7       1.0000 0.47960  0.74400  0.55450  Biso   1.000  O
  O8       1.0000 0.52040  0.25600  0.44550  Biso   1.000  O
  O9       1.0000 0.30210  0.10200  0.35240  Biso   1.000  O
  O10      1.0000 0.69790  0.89800  0.64760  Biso   1.000  O
  O11      1.0000 0.16460  0.07040  0.54620  Biso   1.000  O
  O12      1.0000 0.83540  0.92960  0.45380  Biso   1.000  O
  N1       1.0000 0.13860  0.75520  0.04390  Biso   1.000  N
  N2       1.0000 0.86140  0.24480  0.95610  Biso   1.000  N
  C1       1.0000 0.65900  0.98880  0.11020  Biso   1.000  C
  C2       1.0000 0.34100  0.01120  0.88980  Biso   1.000  C
  C3       1.0000 0.18690  0.61930  0.97260  Biso   1.000  C
  C4       1.0000 0.81310  0.38070  0.02740  Biso   1.000  C
  C5       1.0000 0.27990  0.44230  0.03230  Biso   1.000  C
  C6       1.0000 0.72010  0.55770  0.96770  Biso   1.000  C
  C7       1.0000 0.29610  0.45060  0.16050  Biso   1.000  C
  C8       1.0000 0.70390  0.54940  0.83950  Biso   1.000  C
  C9       1.0000 0.24360  0.58570  0.22780  Biso   1.000  C
  C10      1.0000 0.75640  0.41430  0.77220  Biso   1.000  C
  C11      1.0000 0.17310  0.73090  0.16700  Biso   1.000  C
  C12      1.0000 0.82690  0.26910  0.83300  Biso   1.000  C
  C13      1.0000 0.15610  0.64290  0.84890  Biso   1.000  C
  C14      1.0000 0.84390  0.35710  0.15110  Biso   1.000  C
  C15      1.0000 0.56310  0.69460  0.44560  Biso   1.000  C
  C16      1.0000 0.43690  0.30540  0.55440  Biso   1.000  C
  C17      1.0000 0.15990  0.11010  0.43330  Biso   1.000  C
  C18      1.0000 0.84010  0.88990  0.56670  Biso   1.000  C
  H1       1.0000 0.52782  0.97261  0.12692  Biso   1.000  H
  H2       1.0000 0.47218  0.02739  0.87308  Biso   1.000  H
  H3       1.0000 0.32987  0.32642  0.97397  Biso   1.000  H
  H4       1.0000 0.67013  0.67358  0.02603  Biso   1.000  H
  H5       1.0000 0.36644  0.32928  0.18710  Biso   1.000  H
  H6       1.0000 0.63356  0.67072  0.81290  Biso   1.000  H
  H7       1.0000 0.25817  0.57280  0.31673  Biso   1.000  H
  H8       1.0000 0.74183  0.42720  0.68327  Biso   1.000  H
  H9       1.0000 0.14602  0.84564  0.22435  Biso   1.000  H
  H10      1.0000 0.85398  0.15436  0.77565  Biso   1.000  H
  H11      1.0000 0.58810  0.57245  0.42288  Biso   1.000  H
  H12      1.0000 0.41190  0.42755  0.57712  Biso   1.000  H
  H13      1.0000 0.02494  0.15170  0.40729  Biso   1.000  H
  H14      1.0000 0.97506  0.84830  0.59271  Biso   1.000  H
  H15      1.0000 0.21853  0.53185  0.80469  Biso   1.000  H
  H16      1.0000 0.78147  0.46815  0.19531  Biso   1.000  H
  H17      1.0000 0.21873  0.71837  0.80860  Biso   1.000  H
  H18      1.0000 0.78127  0.28163  0.19140  Biso   1.000  H
  H19      1.0000 0.01323  0.69282  0.84610  Biso   1.000  H
  H20      1.0000 0.98677  0.30718  0.15390  Biso   1.000  H
