data_image0
_cell_length_a       11.1283
_cell_length_b       15.5927
_cell_length_c       22.3178
_cell_angle_alpha    90
_cell_angle_beta     90
_cell_angle_gamma    90

_symmetry_space_group_name_H-M    "P 1"
_symmetry_int_tables_number       1

loop_
  _symmetry_equiv_pos_as_xyz
  'x, y, z'

loop_
  _atom_site_label
  _atom_site_occupancy
  _atom_site_fract_x
  _atom_site_fract_y
  _atom_site_fract_z
  _atom_site_thermal_displace_type
  _atom_site_B_iso_or_equiv
  _atom_site_type_symbol
  Cu1      1.0000 0.00000  0.00000  0.25000  Biso   1.000  Cu
  Cu2      1.0000 0.50000  0.50000  0.75000  Biso   1.000  Cu
  Cu3      1.0000 0.00000  0.00000  0.75000  Biso   1.000  Cu
  Cu4      1.0000 0.50000  0.50000  0.25000  Biso   1.000  Cu
  O1       1.0000 0.00000  0.83860  0.25000  Biso   1.000  O
  O2       1.0000 0.50000  0.33860  0.75000  Biso   1.000  O
  O3       1.0000 0.00000  0.83860  0.75000  Biso   1.000  O
  O4       1.0000 0.50000  0.66140  0.25000  Biso   1.000  O
  O5       1.0000 0.50000  0.33860  0.25000  Biso   1.000  O
  O6       1.0000 0.00000  0.16140  0.75000  Biso   1.000  O
  O7       1.0000 0.00000  0.16140  0.25000  Biso   1.000  O
  O8       1.0000 0.50000  0.66140  0.75000  Biso   1.000  O
  H1       1.0000 0.99340  0.82110  0.28450  Biso   1.000  H
  H2       1.0000 0.49340  0.32110  0.78450  Biso   1.000  H
  H3       1.0000 0.99340  0.82110  0.71550  Biso   1.000  H
  H4       1.0000 0.49340  0.67890  0.28450  Biso   1.000  H
  H5       1.0000 0.50660  0.32110  0.28450  Biso   1.000  H
  H6       1.0000 0.49340  0.32110  0.21550  Biso   1.000  H
  H7       1.0000 0.99340  0.17890  0.78450  Biso   1.000  H
  H8       1.0000 0.00660  0.82110  0.78450  Biso   1.000  H
  H9       1.0000 0.00660  0.17890  0.71550  Biso   1.000  H
  H10      1.0000 0.50660  0.67890  0.21550  Biso   1.000  H
  H11      1.0000 0.00660  0.17890  0.28450  Biso   1.000  H
  H12      1.0000 0.50660  0.32110  0.71550  Biso   1.000  H
  H13      1.0000 0.49340  0.67890  0.71550  Biso   1.000  H
  H14      1.0000 0.50660  0.67890  0.78450  Biso   1.000  H
  H15      1.0000 0.00660  0.82110  0.21550  Biso   1.000  H
  H16      1.0000 0.99340  0.17890  0.21550  Biso   1.000  H
  N1       1.0000 0.18310  0.00000  0.25000  Biso   1.000  N
  N2       1.0000 0.68310  0.50000  0.75000  Biso   1.000  N
  N3       1.0000 0.18310  0.00000  0.75000  Biso   1.000  N
  N4       1.0000 0.68310  0.50000  0.25000  Biso   1.000  N
  N5       1.0000 0.31690  0.50000  0.25000  Biso   1.000  N
  N6       1.0000 0.81690  0.00000  0.75000  Biso   1.000  N
  N7       1.0000 0.81690  0.00000  0.25000  Biso   1.000  N
  N8       1.0000 0.31690  0.50000  0.75000  Biso   1.000  N
  N9       1.0000 0.00000  0.00000  0.34122  Biso   1.000  N
  N10      1.0000 0.50000  0.50000  0.84122  Biso   1.000  N
  N11      1.0000 0.00000  0.00000  0.65878  Biso   1.000  N
  N12      1.0000 0.50000  0.50000  0.34122  Biso   1.000  N
  N13      1.0000 0.50000  0.50000  0.15878  Biso   1.000  N
  N14      1.0000 0.00000  0.00000  0.84122  Biso   1.000  N
  N15      1.0000 0.50000  0.50000  0.65878  Biso   1.000  N
  N16      1.0000 0.00000  0.00000  0.15878  Biso   1.000  N
  N17      1.0000 0.28480  0.15960  0.50000  Biso   1.000  N
  N18      1.0000 0.78480  0.65960  0.00000  Biso   1.000  N
  N19      1.0000 0.78480  0.34040  0.50000  Biso   1.000  N
  N20      1.0000 0.21520  0.65960  0.50000  Biso   1.000  N
  N21      1.0000 0.28480  0.84040  0.00000  Biso   1.000  N
  N22      1.0000 0.71520  0.15960  0.00000  Biso   1.000  N
  N23      1.0000 0.71520  0.84040  0.50000  Biso   1.000  N
  N24      1.0000 0.21520  0.34040  0.00000  Biso   1.000  N
  H17      1.0000 0.23320  0.20070  0.50000  Biso   1.000  H
  H18      1.0000 0.73320  0.70070  0.00000  Biso   1.000  H
  H19      1.0000 0.73320  0.29930  0.50000  Biso   1.000  H
  H20      1.0000 0.26680  0.70070  0.50000  Biso   1.000  H
  H21      1.0000 0.23320  0.79930  0.00000  Biso   1.000  H
  H22      1.0000 0.76680  0.20070  0.00000  Biso   1.000  H
  H23      1.0000 0.76680  0.79930  0.50000  Biso   1.000  H
  H24      1.0000 0.26680  0.29930  0.00000  Biso   1.000  H
  C1       1.0000 0.24500  0.06630  0.27159  Biso   1.000  C
  C2       1.0000 0.74500  0.56630  0.77159  Biso   1.000  C
  C3       1.0000 0.24500  0.06630  0.72841  Biso   1.000  C
  C4       1.0000 0.74500  0.43370  0.27159  Biso   1.000  C
  C5       1.0000 0.25500  0.56630  0.27159  Biso   1.000  C
  C6       1.0000 0.74500  0.56630  0.22841  Biso   1.000  C
  C7       1.0000 0.24500  0.93370  0.77159  Biso   1.000  C
  C8       1.0000 0.75500  0.06630  0.77159  Biso   1.000  C
  C9       1.0000 0.75500  0.93370  0.72841  Biso   1.000  C
  C10      1.0000 0.25500  0.43370  0.22841  Biso   1.000  C
  C11      1.0000 0.75500  0.93370  0.27159  Biso   1.000  C
  C12      1.0000 0.25500  0.56630  0.72841  Biso   1.000  C
  C13      1.0000 0.74500  0.43370  0.72841  Biso   1.000  C
  C14      1.0000 0.25500  0.43370  0.77159  Biso   1.000  C
  C15      1.0000 0.75500  0.06630  0.22841  Biso   1.000  C
  C16      1.0000 0.24500  0.93370  0.22841  Biso   1.000  C
  H25      1.0000 0.20270  0.11280  0.28690  Biso   1.000  H
  H26      1.0000 0.70270  0.61280  0.78690  Biso   1.000  H
  H27      1.0000 0.20270  0.11280  0.71310  Biso   1.000  H
  H28      1.0000 0.70270  0.38720  0.28690  Biso   1.000  H
  H29      1.0000 0.29730  0.61280  0.28690  Biso   1.000  H
  H30      1.0000 0.70270  0.61280  0.21310  Biso   1.000  H
  H31      1.0000 0.20270  0.88720  0.78690  Biso   1.000  H
  H32      1.0000 0.79730  0.11280  0.78690  Biso   1.000  H
  H33      1.0000 0.79730  0.88720  0.71310  Biso   1.000  H
  H34      1.0000 0.29730  0.38720  0.21310  Biso   1.000  H
  H35      1.0000 0.79730  0.88720  0.28690  Biso   1.000  H
  H36      1.0000 0.29730  0.61280  0.71310  Biso   1.000  H
  H37      1.0000 0.70270  0.38720  0.71310  Biso   1.000  H
  H38      1.0000 0.29730  0.38720  0.78690  Biso   1.000  H
  H39      1.0000 0.79730  0.11280  0.21310  Biso   1.000  H
  H40      1.0000 0.20270  0.88720  0.21310  Biso   1.000  H
  C17      1.0000 0.36870  0.06900  0.27191  Biso   1.000  C
  C18      1.0000 0.86870  0.56900  0.77191  Biso   1.000  C
  C19      1.0000 0.36870  0.06900  0.72809  Biso   1.000  C
  C20      1.0000 0.86870  0.43100  0.27191  Biso   1.000  C
  C21      1.0000 0.13130  0.56900  0.27191  Biso   1.000  C
  C22      1.0000 0.86870  0.56900  0.22809  Biso   1.000  C
  C23      1.0000 0.36870  0.93100  0.77191  Biso   1.000  C
  C24      1.0000 0.63130  0.06900  0.77191  Biso   1.000  C
  C25      1.0000 0.63130  0.93100  0.72809  Biso   1.000  C
  C26      1.0000 0.13130  0.43100  0.22809  Biso   1.000  C
  C27      1.0000 0.63130  0.93100  0.27191  Biso   1.000  C
  C28      1.0000 0.13130  0.56900  0.72809  Biso   1.000  C
  C29      1.0000 0.86870  0.43100  0.72809  Biso   1.000  C
  C30      1.0000 0.13130  0.43100  0.77191  Biso   1.000  C
  C31      1.0000 0.63130  0.06900  0.22809  Biso   1.000  C
  C32      1.0000 0.36870  0.93100  0.22809  Biso   1.000  C
  H41      1.0000 0.40850  0.11680  0.28701  Biso   1.000  H
  H42      1.0000 0.90850  0.61680  0.78701  Biso   1.000  H
  H43      1.0000 0.40850  0.11680  0.71299  Biso   1.000  H
  H44      1.0000 0.90850  0.38320  0.28701  Biso   1.000  H
  H45      1.0000 0.09150  0.61680  0.28701  Biso   1.000  H
  H46      1.0000 0.90850  0.61680  0.21299  Biso   1.000  H
  H47      1.0000 0.40850  0.88320  0.78701  Biso   1.000  H
  H48      1.0000 0.59150  0.11680  0.78701  Biso   1.000  H
  H49      1.0000 0.59150  0.88320  0.71299  Biso   1.000  H
  H50      1.0000 0.09150  0.38320  0.21299  Biso   1.000  H
  H51      1.0000 0.59150  0.88320  0.28701  Biso   1.000  H
  H52      1.0000 0.09150  0.61680  0.71299  Biso   1.000  H
  H53      1.0000 0.90850  0.38320  0.71299  Biso   1.000  H
  H54      1.0000 0.09150  0.38320  0.78701  Biso   1.000  H
  H55      1.0000 0.59150  0.11680  0.21299  Biso   1.000  H
  H56      1.0000 0.40850  0.88320  0.21299  Biso   1.000  H
  C33      1.0000 0.43330  0.00000  0.25000  Biso   1.000  C
  C34      1.0000 0.93330  0.50000  0.75000  Biso   1.000  C
  C35      1.0000 0.43330  0.00000  0.75000  Biso   1.000  C
  C36      1.0000 0.93330  0.50000  0.25000  Biso   1.000  C
  C37      1.0000 0.06670  0.50000  0.25000  Biso   1.000  C
  C38      1.0000 0.56670  0.00000  0.75000  Biso   1.000  C
  C39      1.0000 0.56670  0.00000  0.25000  Biso   1.000  C
  C40      1.0000 0.06670  0.50000  0.75000  Biso   1.000  C
  C41      1.0000 0.06730  0.94530  0.37250  Biso   1.000  C
  C42      1.0000 0.56730  0.44530  0.87250  Biso   1.000  C
  C43      1.0000 0.06730  0.94530  0.62750  Biso   1.000  C
  C44      1.0000 0.56730  0.55470  0.37250  Biso   1.000  C
  C45      1.0000 0.43270  0.44530  0.37250  Biso   1.000  C
  C46      1.0000 0.56730  0.44530  0.12750  Biso   1.000  C
  C47      1.0000 0.06730  0.05470  0.87250  Biso   1.000  C
  C48      1.0000 0.93270  0.94530  0.87250  Biso   1.000  C
  C49      1.0000 0.93270  0.05470  0.62750  Biso   1.000  C
  C50      1.0000 0.43270  0.55470  0.12750  Biso   1.000  C
  C51      1.0000 0.93270  0.05470  0.37250  Biso   1.000  C
  C52      1.0000 0.43270  0.44530  0.62750  Biso   1.000  C
  C53      1.0000 0.56730  0.55470  0.62750  Biso   1.000  C
  C54      1.0000 0.43270  0.55470  0.87250  Biso   1.000  C
  C55      1.0000 0.93270  0.94530  0.12750  Biso   1.000  C
  C56      1.0000 0.06730  0.05470  0.12750  Biso   1.000  C
  H57      1.0000 0.11490  0.90640  0.35168  Biso   1.000  H
  H58      1.0000 0.61490  0.40640  0.85168  Biso   1.000  H
  H59      1.0000 0.11490  0.90640  0.64832  Biso   1.000  H
  H60      1.0000 0.61490  0.59360  0.35168  Biso   1.000  H
  H61      1.0000 0.38510  0.40640  0.35168  Biso   1.000  H
  H62      1.0000 0.61490  0.40640  0.14832  Biso   1.000  H
  H63      1.0000 0.11490  0.09360  0.85168  Biso   1.000  H
  H64      1.0000 0.88510  0.90640  0.85168  Biso   1.000  H
  H65      1.0000 0.88510  0.09360  0.64832  Biso   1.000  H
  H66      1.0000 0.38510  0.59360  0.14832  Biso   1.000  H
  H67      1.0000 0.88510  0.09360  0.35168  Biso   1.000  H
  H68      1.0000 0.38510  0.40640  0.64832  Biso   1.000  H
  H69      1.0000 0.61490  0.59360  0.64832  Biso   1.000  H
  H70      1.0000 0.38510  0.59360  0.85168  Biso   1.000  H
  H71      1.0000 0.88510  0.90640  0.14832  Biso   1.000  H
  H72      1.0000 0.11490  0.09360  0.14832  Biso   1.000  H
  C57      1.0000 0.06970  0.94360  0.43378  Biso   1.000  C
  C58      1.0000 0.56970  0.44360  0.93378  Biso   1.000  C
  C59      1.0000 0.06970  0.94360  0.56622  Biso   1.000  C
  C60      1.0000 0.56970  0.55640  0.43378  Biso   1.000  C
  C61      1.0000 0.43030  0.44360  0.43378  Biso   1.000  C
  C62      1.0000 0.56970  0.44360  0.06622  Biso   1.000  C
  C63      1.0000 0.06970  0.05640  0.93378  Biso   1.000  C
  C64      1.0000 0.93030  0.94360  0.93378  Biso   1.000  C
  C65      1.0000 0.93030  0.05640  0.56622  Biso   1.000  C
  C66      1.0000 0.43030  0.55640  0.06622  Biso   1.000  C
  C67      1.0000 0.93030  0.05640  0.43378  Biso   1.000  C
  C68      1.0000 0.43030  0.44360  0.56622  Biso   1.000  C
  C69      1.0000 0.56970  0.55640  0.56622  Biso   1.000  C
  C70      1.0000 0.43030  0.55640  0.93378  Biso   1.000  C
  C71      1.0000 0.93030  0.94360  0.06622  Biso   1.000  C
  C72      1.0000 0.06970  0.05640  0.06622  Biso   1.000  C
  H73      1.0000 0.11810  0.90390  0.45340  Biso   1.000  H
  H74      1.0000 0.61810  0.40390  0.95340  Biso   1.000  H
  H75      1.0000 0.11810  0.90390  0.54660  Biso   1.000  H
  H76      1.0000 0.61810  0.59610  0.45340  Biso   1.000  H
  H77      1.0000 0.38190  0.40390  0.45340  Biso   1.000  H
  H78      1.0000 0.61810  0.40390  0.04660  Biso   1.000  H
  H79      1.0000 0.11810  0.09610  0.95340  Biso   1.000  H
  H80      1.0000 0.88190  0.90390  0.95340  Biso   1.000  H
  H81      1.0000 0.88190  0.09610  0.54660  Biso   1.000  H
  H82      1.0000 0.38190  0.59610  0.04660  Biso   1.000  H
  H83      1.0000 0.88190  0.09610  0.45340  Biso   1.000  H
  H84      1.0000 0.38190  0.40390  0.54660  Biso   1.000  H
  H85      1.0000 0.61810  0.59610  0.54660  Biso   1.000  H
  H86      1.0000 0.38190  0.59610  0.95340  Biso   1.000  H
  H87      1.0000 0.88190  0.90390  0.04660  Biso   1.000  H
  H88      1.0000 0.11810  0.09610  0.04660  Biso   1.000  H
  C73      1.0000 0.00000  0.00000  0.46691  Biso   1.000  C
  C74      1.0000 0.50000  0.50000  0.96691  Biso   1.000  C
  C75      1.0000 0.00000  0.00000  0.53309  Biso   1.000  C
  C76      1.0000 0.50000  0.50000  0.46691  Biso   1.000  C
  C77      1.0000 0.50000  0.50000  0.03309  Biso   1.000  C
  C78      1.0000 0.00000  0.00000  0.96691  Biso   1.000  C
  C79      1.0000 0.50000  0.50000  0.53309  Biso   1.000  C
  C80      1.0000 0.00000  0.00000  0.03309  Biso   1.000  C
  C81      1.0000 0.32330  0.12880  0.45090  Biso   1.000  C
  C82      1.0000 0.82330  0.62880  0.95090  Biso   1.000  C
  C83      1.0000 0.32330  0.12880  0.54910  Biso   1.000  C
  C84      1.0000 0.82330  0.37120  0.45090  Biso   1.000  C
  C85      1.0000 0.17670  0.62880  0.45090  Biso   1.000  C
  C86      1.0000 0.82330  0.62880  0.04910  Biso   1.000  C
  C87      1.0000 0.32330  0.87120  0.95090  Biso   1.000  C
  C88      1.0000 0.67670  0.12880  0.95090  Biso   1.000  C
  C89      1.0000 0.67670  0.87120  0.54910  Biso   1.000  C
  C90      1.0000 0.17670  0.37120  0.04910  Biso   1.000  C
  C91      1.0000 0.67670  0.87120  0.45090  Biso   1.000  C
  C92      1.0000 0.17670  0.62880  0.54910  Biso   1.000  C
  C93      1.0000 0.82330  0.37120  0.54910  Biso   1.000  C
  C94      1.0000 0.17670  0.37120  0.95090  Biso   1.000  C
  C95      1.0000 0.67670  0.12880  0.04910  Biso   1.000  C
  C96      1.0000 0.32330  0.87120  0.04910  Biso   1.000  C
  H89      1.0000 0.29050  0.14820  0.41500  Biso   1.000  H
  H90      1.0000 0.79050  0.64820  0.91500  Biso   1.000  H
  H91      1.0000 0.29050  0.14820  0.58500  Biso   1.000  H
  H92      1.0000 0.79050  0.35180  0.41500  Biso   1.000  H
  H93      1.0000 0.20950  0.64820  0.41500  Biso   1.000  H
  H94      1.0000 0.79050  0.64820  0.08500  Biso   1.000  H
  H95      1.0000 0.29050  0.85180  0.91500  Biso   1.000  H
  H96      1.0000 0.70950  0.14820  0.91500  Biso   1.000  H
  H97      1.0000 0.70950  0.85180  0.58500  Biso   1.000  H
  H98      1.0000 0.20950  0.35180  0.08500  Biso   1.000  H
  H99      1.0000 0.70950  0.85180  0.41500  Biso   1.000  H
  H100     1.0000 0.20950  0.64820  0.58500  Biso   1.000  H
  H101     1.0000 0.79050  0.35180  0.58500  Biso   1.000  H
  H102     1.0000 0.20950  0.35180  0.91500  Biso   1.000  H
  H103     1.0000 0.70950  0.14820  0.08500  Biso   1.000  H
  H104     1.0000 0.29050  0.85180  0.08500  Biso   1.000  H
  C97      1.0000 0.40840  0.06530  0.44960  Biso   1.000  C
  C98      1.0000 0.90840  0.56530  0.94960  Biso   1.000  C
  C99      1.0000 0.40840  0.06530  0.55040  Biso   1.000  C
  C100     1.0000 0.90840  0.43470  0.44960  Biso   1.000  C
  C101     1.0000 0.09160  0.56530  0.44960  Biso   1.000  C
  C102     1.0000 0.90840  0.56530  0.05040  Biso   1.000  C
  C103     1.0000 0.40840  0.93470  0.94960  Biso   1.000  C
  C104     1.0000 0.59160  0.06530  0.94960  Biso   1.000  C
  C105     1.0000 0.59160  0.93470  0.55040  Biso   1.000  C
  C106     1.0000 0.09160  0.43470  0.05040  Biso   1.000  C
  C107     1.0000 0.59160  0.93470  0.44960  Biso   1.000  C
  C108     1.0000 0.09160  0.56530  0.55040  Biso   1.000  C
  C109     1.0000 0.90840  0.43470  0.55040  Biso   1.000  C
  C110     1.0000 0.09160  0.43470  0.94960  Biso   1.000  C
  C111     1.0000 0.59160  0.06530  0.05040  Biso   1.000  C
  C112     1.0000 0.40840  0.93470  0.05040  Biso   1.000  C
  H105     1.0000 0.43770  0.04550  0.41310  Biso   1.000  H
  H106     1.0000 0.93770  0.54550  0.91310  Biso   1.000  H
  H107     1.0000 0.43770  0.04550  0.58690  Biso   1.000  H
  H108     1.0000 0.93770  0.45450  0.41310  Biso   1.000  H
  H109     1.0000 0.06230  0.54550  0.41310  Biso   1.000  H
  H110     1.0000 0.93770  0.54550  0.08690  Biso   1.000  H
  H111     1.0000 0.43770  0.95450  0.91310  Biso   1.000  H
  H112     1.0000 0.56230  0.04550  0.91310  Biso   1.000  H
  H113     1.0000 0.56230  0.95450  0.58690  Biso   1.000  H
  H114     1.0000 0.06230  0.45450  0.08690  Biso   1.000  H
  H115     1.0000 0.56230  0.95450  0.41310  Biso   1.000  H
  H116     1.0000 0.06230  0.54550  0.58690  Biso   1.000  H
  H117     1.0000 0.93770  0.45450  0.58690  Biso   1.000  H
  H118     1.0000 0.06230  0.45450  0.91310  Biso   1.000  H
  H119     1.0000 0.56230  0.04550  0.08690  Biso   1.000  H
  H120     1.0000 0.43770  0.95450  0.08690  Biso   1.000  H
  C113     1.0000 0.45290  0.03340  0.50000  Biso   1.000  C
  C114     1.0000 0.95290  0.53340  0.00000  Biso   1.000  C
  C115     1.0000 0.95290  0.46660  0.50000  Biso   1.000  C
  C116     1.0000 0.04710  0.53340  0.50000  Biso   1.000  C
  C117     1.0000 0.45290  0.96660  0.00000  Biso   1.000  C
  C118     1.0000 0.54710  0.03340  0.00000  Biso   1.000  C
  C119     1.0000 0.54710  0.96660  0.50000  Biso   1.000  C
  C120     1.0000 0.04710  0.46660  0.00000  Biso   1.000  C
  Cl1      1.0000 0.13500  0.29458  0.37714  Biso   1.000  Cl
  Cl2      1.0000 0.63500  0.79458  0.87714  Biso   1.000  Cl
  Cl3      1.0000 0.13500  0.29458  0.62286  Biso   1.000  Cl
  Cl4      1.0000 0.63500  0.20542  0.37714  Biso   1.000  Cl
  Cl5      1.0000 0.36500  0.79458  0.37714  Biso   1.000  Cl
  Cl6      1.0000 0.63500  0.79458  0.12286  Biso   1.000  Cl
  Cl7      1.0000 0.13500  0.70542  0.87714  Biso   1.000  Cl
  Cl8      1.0000 0.86500  0.29458  0.87714  Biso   1.000  Cl
  Cl9      1.0000 0.86500  0.70542  0.62286  Biso   1.000  Cl
  Cl10     1.0000 0.36500  0.20542  0.12286  Biso   1.000  Cl
  Cl11     1.0000 0.86500  0.70542  0.37714  Biso   1.000  Cl
  Cl12     1.0000 0.36500  0.79458  0.62286  Biso   1.000  Cl
  Cl13     1.0000 0.63500  0.20542  0.62286  Biso   1.000  Cl
  Cl14     1.0000 0.36500  0.20542  0.87714  Biso   1.000  Cl
  Cl15     1.0000 0.86500  0.29458  0.12286  Biso   1.000  Cl
  Cl16     1.0000 0.13500  0.70542  0.12286  Biso   1.000  Cl
  O9       1.0000 0.02400  0.27880  0.34860  Biso   1.000  O
  O10      1.0000 0.52400  0.77880  0.84860  Biso   1.000  O
  O11      1.0000 0.02400  0.27880  0.65140  Biso   1.000  O
  O12      1.0000 0.52400  0.22120  0.34860  Biso   1.000  O
  O13      1.0000 0.47600  0.77880  0.34860  Biso   1.000  O
  O14      1.0000 0.52400  0.77880  0.15140  Biso   1.000  O
  O15      1.0000 0.02400  0.72120  0.84860  Biso   1.000  O
  O16      1.0000 0.97600  0.27880  0.84860  Biso   1.000  O
  O17      1.0000 0.97600  0.72120  0.65140  Biso   1.000  O
  O18      1.0000 0.47600  0.22120  0.15140  Biso   1.000  O
  O19      1.0000 0.97600  0.72120  0.34860  Biso   1.000  O
  O20      1.0000 0.47600  0.77880  0.65140  Biso   1.000  O
  O21      1.0000 0.52400  0.22120  0.65140  Biso   1.000  O
  O22      1.0000 0.47600  0.22120  0.84860  Biso   1.000  O
  O23      1.0000 0.97600  0.27880  0.15140  Biso   1.000  O
  O24      1.0000 0.02400  0.72120  0.15140  Biso   1.000  O
  O25      1.0000 0.14760  0.38510  0.37320  Biso   1.000  O
  O26      1.0000 0.64760  0.88510  0.87320  Biso   1.000  O
  O27      1.0000 0.14760  0.38510  0.62680  Biso   1.000  O
  O28      1.0000 0.64760  0.11490  0.37320  Biso   1.000  O
  O29      1.0000 0.35240  0.88510  0.37320  Biso   1.000  O
  O30      1.0000 0.64760  0.88510  0.12680  Biso   1.000  O
  O31      1.0000 0.14760  0.61490  0.87320  Biso   1.000  O
  O32      1.0000 0.85240  0.38510  0.87320  Biso   1.000  O
  O33      1.0000 0.85240  0.61490  0.62680  Biso   1.000  O
  O34      1.0000 0.35240  0.11490  0.12680  Biso   1.000  O
  O35      1.0000 0.85240  0.61490  0.37320  Biso   1.000  O
  O36      1.0000 0.35240  0.88510  0.62680  Biso   1.000  O
  O37      1.0000 0.64760  0.11490  0.62680  Biso   1.000  O
  O38      1.0000 0.35240  0.11490  0.87320  Biso   1.000  O
  O39      1.0000 0.85240  0.38510  0.12680  Biso   1.000  O
  O40      1.0000 0.14760  0.61490  0.12680  Biso   1.000  O
  O41      1.0000 0.22440  0.25250  0.34530  Biso   1.000  O
  O42      1.0000 0.72440  0.75250  0.84530  Biso   1.000  O
  O43      1.0000 0.22440  0.25250  0.65470  Biso   1.000  O
  O44      1.0000 0.72440  0.24750  0.34530  Biso   1.000  O
  O45      1.0000 0.27560  0.75250  0.34530  Biso   1.000  O
  O46      1.0000 0.72440  0.75250  0.15470  Biso   1.000  O
  O47      1.0000 0.22440  0.74750  0.84530  Biso   1.000  O
  O48      1.0000 0.77560  0.25250  0.84530  Biso   1.000  O
  O49      1.0000 0.77560  0.74750  0.65470  Biso   1.000  O
  O50      1.0000 0.27560  0.24750  0.15470  Biso   1.000  O
  O51      1.0000 0.77560  0.74750  0.34530  Biso   1.000  O
  O52      1.0000 0.27560  0.75250  0.65470  Biso   1.000  O
  O53      1.0000 0.72440  0.24750  0.65470  Biso   1.000  O
  O54      1.0000 0.27560  0.24750  0.84530  Biso   1.000  O
  O55      1.0000 0.77560  0.25250  0.15470  Biso   1.000  O
  O56      1.0000 0.22440  0.74750  0.15470  Biso   1.000  O
  O57      1.0000 0.12600  0.26940  0.43620  Biso   1.000  O
  O58      1.0000 0.62600  0.76940  0.93620  Biso   1.000  O
  O59      1.0000 0.12600  0.26940  0.56380  Biso   1.000  O
  O60      1.0000 0.62600  0.23060  0.43620  Biso   1.000  O
  O61      1.0000 0.37400  0.76940  0.43620  Biso   1.000  O
  O62      1.0000 0.62600  0.76940  0.06380  Biso   1.000  O
  O63      1.0000 0.12600  0.73060  0.93620  Biso   1.000  O
  O64      1.0000 0.87400  0.26940  0.93620  Biso   1.000  O
  O65      1.0000 0.87400  0.73060  0.56380  Biso   1.000  O
  O66      1.0000 0.37400  0.23060  0.06380  Biso   1.000  O
  O67      1.0000 0.87400  0.73060  0.43620  Biso   1.000  O
  O68      1.0000 0.37400  0.76940  0.56380  Biso   1.000  O
  O69      1.0000 0.62600  0.23060  0.56380  Biso   1.000  O
  O70      1.0000 0.37400  0.23060  0.93620  Biso   1.000  O
  O71      1.0000 0.87400  0.26940  0.06380  Biso   1.000  O
  O72      1.0000 0.12600  0.73060  0.06380  Biso   1.000  O
  O73      1.0000 0.08200  0.21770  0.38040  Biso   1.000  O
  O74      1.0000 0.58200  0.71770  0.88040  Biso   1.000  O
  O75      1.0000 0.08200  0.21770  0.61960  Biso   1.000  O
  O76      1.0000 0.58200  0.28230  0.38040  Biso   1.000  O
  O77      1.0000 0.41800  0.71770  0.38040  Biso   1.000  O
  O78      1.0000 0.58200  0.71770  0.11960  Biso   1.000  O
  O79      1.0000 0.08200  0.78230  0.88040  Biso   1.000  O
  O80      1.0000 0.91800  0.21770  0.88040  Biso   1.000  O
  O81      1.0000 0.91800  0.78230  0.61960  Biso   1.000  O
  O82      1.0000 0.41800  0.28230  0.11960  Biso   1.000  O
  O83      1.0000 0.91800  0.78230  0.38040  Biso   1.000  O
  O84      1.0000 0.41800  0.71770  0.61960  Biso   1.000  O
  O85      1.0000 0.58200  0.28230  0.61960  Biso   1.000  O
  O86      1.0000 0.41800  0.28230  0.88040  Biso   1.000  O
  O87      1.0000 0.91800  0.21770  0.11960  Biso   1.000  O
  O88      1.0000 0.08200  0.78230  0.11960  Biso   1.000  O
  O89      1.0000 0.07700  0.36150  0.35680  Biso   1.000  O
  O90      1.0000 0.57700  0.86150  0.85680  Biso   1.000  O
  O91      1.0000 0.07700  0.36150  0.64320  Biso   1.000  O
  O92      1.0000 0.57700  0.13850  0.35680  Biso   1.000  O
  O93      1.0000 0.42300  0.86150  0.35680  Biso   1.000  O
  O94      1.0000 0.57700  0.86150  0.14320  Biso   1.000  O
  O95      1.0000 0.07700  0.63850  0.85680  Biso   1.000  O
  O96      1.0000 0.92300  0.36150  0.85680  Biso   1.000  O
  O97      1.0000 0.92300  0.63850  0.64320  Biso   1.000  O
  O98      1.0000 0.42300  0.13850  0.14320  Biso   1.000  O
  O99      1.0000 0.92300  0.63850  0.35680  Biso   1.000  O
  O100     1.0000 0.42300  0.86150  0.64320  Biso   1.000  O
  O101     1.0000 0.57700  0.13850  0.64320  Biso   1.000  O
  O102     1.0000 0.42300  0.13850  0.85680  Biso   1.000  O
  O103     1.0000 0.92300  0.36150  0.14320  Biso   1.000  O
  O104     1.0000 0.07700  0.63850  0.14320  Biso   1.000  O
  O105     1.0000 0.23850  0.27740  0.33590  Biso   1.000  O
  O106     1.0000 0.73850  0.77740  0.83590  Biso   1.000  O
  O107     1.0000 0.23850  0.27740  0.66410  Biso   1.000  O
  O108     1.0000 0.73850  0.22260  0.33590  Biso   1.000  O
  O109     1.0000 0.26150  0.77740  0.33590  Biso   1.000  O
  O110     1.0000 0.73850  0.77740  0.16410  Biso   1.000  O
  O111     1.0000 0.23850  0.72260  0.83590  Biso   1.000  O
  O112     1.0000 0.76150  0.27740  0.83590  Biso   1.000  O
  O113     1.0000 0.76150  0.72260  0.66410  Biso   1.000  O
  O114     1.0000 0.26150  0.22260  0.16410  Biso   1.000  O
  O115     1.0000 0.76150  0.72260  0.33590  Biso   1.000  O
  O116     1.0000 0.26150  0.77740  0.66410  Biso   1.000  O
  O117     1.0000 0.73850  0.22260  0.66410  Biso   1.000  O
  O118     1.0000 0.26150  0.22260  0.83590  Biso   1.000  O
  O119     1.0000 0.76150  0.27740  0.16410  Biso   1.000  O
  O120     1.0000 0.23850  0.72260  0.16410  Biso   1.000  O
  O121     1.0000 0.20150  0.31090  0.42920  Biso   1.000  O
  O122     1.0000 0.70150  0.81090  0.92920  Biso   1.000  O
  O123     1.0000 0.20150  0.31090  0.57080  Biso   1.000  O
  O124     1.0000 0.70150  0.18910  0.42920  Biso   1.000  O
  O125     1.0000 0.29850  0.81090  0.42920  Biso   1.000  O
  O126     1.0000 0.70150  0.81090  0.07080  Biso   1.000  O
  O127     1.0000 0.20150  0.68910  0.92920  Biso   1.000  O
  O128     1.0000 0.79850  0.31090  0.92920  Biso   1.000  O
  O129     1.0000 0.79850  0.68910  0.57080  Biso   1.000  O
  O130     1.0000 0.29850  0.18910  0.07080  Biso   1.000  O
  O131     1.0000 0.79850  0.68910  0.42920  Biso   1.000  O
  O132     1.0000 0.29850  0.81090  0.57080  Biso   1.000  O
  O133     1.0000 0.70150  0.18910  0.57080  Biso   1.000  O
  O134     1.0000 0.29850  0.18910  0.92920  Biso   1.000  O
  O135     1.0000 0.79850  0.31090  0.07080  Biso   1.000  O
  O136     1.0000 0.20150  0.68910  0.07080  Biso   1.000  O
