data_image0
_cell_length_a       11.832
_cell_length_b       15.121
_cell_length_c       13.911
_cell_angle_alpha    90
_cell_angle_beta     97.137
_cell_angle_gamma    90

_symmetry_space_group_name_H-M    "P 1"
_symmetry_int_tables_number       1

loop_
  _symmetry_equiv_pos_as_xyz
  'x, y, z'

loop_
  _atom_site_label
  _atom_site_occupancy
  _atom_site_fract_x
  _atom_site_fract_y
  _atom_site_fract_z
  _atom_site_thermal_displace_type
  _atom_site_B_iso_or_equiv
  _atom_site_type_symbol
  C1       1.0000 0.83370  0.93520  0.49670  Biso   1.000  C
  C2       1.0000 0.16630  0.93520  0.00330  Biso   1.000  C
  C3       1.0000 0.33370  0.43520  0.49670  Biso   1.000  C
  C4       1.0000 0.66630  0.43520  0.00330  Biso   1.000  C
  C5       1.0000 0.16630  0.06480  0.50330  Biso   1.000  C
  C6       1.0000 0.83370  0.06480  0.99670  Biso   1.000  C
  C7       1.0000 0.66630  0.56480  0.50330  Biso   1.000  C
  C8       1.0000 0.33370  0.56480  0.99670  Biso   1.000  C
  H1       1.0000 0.89790  0.90780  0.47810  Biso   1.000  H
  H2       1.0000 0.10210  0.90780  0.02190  Biso   1.000  H
  H3       1.0000 0.39790  0.40780  0.47810  Biso   1.000  H
  H4       1.0000 0.60210  0.40780  0.02190  Biso   1.000  H
  H5       1.0000 0.10210  0.09220  0.52190  Biso   1.000  H
  H6       1.0000 0.89790  0.09220  0.97810  Biso   1.000  H
  H7       1.0000 0.60210  0.59220  0.52190  Biso   1.000  H
  H8       1.0000 0.39790  0.59220  0.97810  Biso   1.000  H
  C9       1.0000 0.83170  0.02590  0.50260  Biso   1.000  C
  C10      1.0000 0.16830  0.02590  0.99740  Biso   1.000  C
  C11      1.0000 0.33170  0.52590  0.50260  Biso   1.000  C
  C12      1.0000 0.66830  0.52590  0.99740  Biso   1.000  C
  C13      1.0000 0.16830  0.97410  0.49740  Biso   1.000  C
  C14      1.0000 0.83170  0.97410  0.00260  Biso   1.000  C
  C15      1.0000 0.66830  0.47410  0.49740  Biso   1.000  C
  C16      1.0000 0.33170  0.47410  0.00260  Biso   1.000  C
  H9       1.0000 0.89220  0.05910  0.48540  Biso   1.000  H
  H10      1.0000 0.10780  0.05910  0.01460  Biso   1.000  H
  H11      1.0000 0.39220  0.55910  0.48540  Biso   1.000  H
  H12      1.0000 0.60780  0.55910  0.01460  Biso   1.000  H
  H13      1.0000 0.10780  0.94090  0.51460  Biso   1.000  H
  H14      1.0000 0.89220  0.94090  0.98540  Biso   1.000  H
  H15      1.0000 0.60780  0.44090  0.51460  Biso   1.000  H
  H16      1.0000 0.39220  0.44090  0.98540  Biso   1.000  H
  C17      1.0000 0.73900  0.06720  0.53420  Biso   1.000  C
  C18      1.0000 0.26100  0.06720  0.96580  Biso   1.000  C
  C19      1.0000 0.23900  0.56720  0.53420  Biso   1.000  C
  C20      1.0000 0.76100  0.56720  0.96580  Biso   1.000  C
  C21      1.0000 0.26100  0.93280  0.46580  Biso   1.000  C
  C22      1.0000 0.73900  0.93280  0.03420  Biso   1.000  C
  C23      1.0000 0.76100  0.43280  0.46580  Biso   1.000  C
  C24      1.0000 0.23900  0.43280  0.03420  Biso   1.000  C
  H17      1.0000 0.73740  0.12830  0.54160  Biso   1.000  H
  H18      1.0000 0.26260  0.12830  0.95840  Biso   1.000  H
  H19      1.0000 0.23740  0.62830  0.54160  Biso   1.000  H
  H20      1.0000 0.76260  0.62830  0.95840  Biso   1.000  H
  H21      1.0000 0.26260  0.87170  0.45840  Biso   1.000  H
  H22      1.0000 0.73740  0.87170  0.04160  Biso   1.000  H
  H23      1.0000 0.76260  0.37170  0.45840  Biso   1.000  H
  H24      1.0000 0.23740  0.37170  0.04160  Biso   1.000  H
  C25      1.0000 0.64970  0.01590  0.55450  Biso   1.000  C
  C26      1.0000 0.35030  0.01590  0.94550  Biso   1.000  C
  C27      1.0000 0.14970  0.51590  0.55450  Biso   1.000  C
  C28      1.0000 0.85030  0.51590  0.94550  Biso   1.000  C
  C29      1.0000 0.35030  0.98410  0.44550  Biso   1.000  C
  C30      1.0000 0.64970  0.98410  0.05450  Biso   1.000  C
  C31      1.0000 0.85030  0.48410  0.44550  Biso   1.000  C
  C32      1.0000 0.14970  0.48410  0.05450  Biso   1.000  C
  H25      1.0000 0.58480  0.04190  0.57350  Biso   1.000  H
  H26      1.0000 0.41520  0.04190  0.92650  Biso   1.000  H
  H27      1.0000 0.08480  0.54190  0.57350  Biso   1.000  H
  H28      1.0000 0.91520  0.54190  0.92650  Biso   1.000  H
  H29      1.0000 0.41520  0.95810  0.42650  Biso   1.000  H
  H30      1.0000 0.58480  0.95810  0.07350  Biso   1.000  H
  H31      1.0000 0.91520  0.45810  0.42650  Biso   1.000  H
  H32      1.0000 0.08480  0.45810  0.07350  Biso   1.000  H
  C33      1.0000 0.65680  0.92590  0.54640  Biso   1.000  C
  C34      1.0000 0.34320  0.92590  0.95360  Biso   1.000  C
  C35      1.0000 0.15680  0.42590  0.54640  Biso   1.000  C
  C36      1.0000 0.84320  0.42590  0.95360  Biso   1.000  C
  C37      1.0000 0.34320  0.07410  0.45360  Biso   1.000  C
  C38      1.0000 0.65680  0.07410  0.04640  Biso   1.000  C
  C39      1.0000 0.84320  0.57410  0.45360  Biso   1.000  C
  C40      1.0000 0.15680  0.57410  0.04640  Biso   1.000  C
  H33      1.0000 0.59650  0.89170  0.56230  Biso   1.000  H
  H34      1.0000 0.40350  0.89170  0.93770  Biso   1.000  H
  H35      1.0000 0.09650  0.39170  0.56230  Biso   1.000  H
  H36      1.0000 0.90350  0.39170  0.93770  Biso   1.000  H
  H37      1.0000 0.40350  0.10830  0.43770  Biso   1.000  H
  H38      1.0000 0.59650  0.10830  0.06230  Biso   1.000  H
  H39      1.0000 0.90350  0.60830  0.43770  Biso   1.000  H
  H40      1.0000 0.09650  0.60830  0.06230  Biso   1.000  H
  C41      1.0000 0.58980  0.92900  0.29080  Biso   1.000  C
  C42      1.0000 0.41020  0.92900  0.20920  Biso   1.000  C
  C43      1.0000 0.08980  0.42900  0.29080  Biso   1.000  C
  C44      1.0000 0.91020  0.42900  0.20920  Biso   1.000  C
  C45      1.0000 0.41020  0.07100  0.70920  Biso   1.000  C
  C46      1.0000 0.58980  0.07100  0.79080  Biso   1.000  C
  C47      1.0000 0.91020  0.57100  0.70920  Biso   1.000  C
  C48      1.0000 0.08980  0.57100  0.79080  Biso   1.000  C
  H41      1.0000 0.65320  0.89800  0.31920  Biso   1.000  H
  H42      1.0000 0.34680  0.89800  0.18080  Biso   1.000  H
  H43      1.0000 0.15320  0.39800  0.31920  Biso   1.000  H
  H44      1.0000 0.84680  0.39800  0.18080  Biso   1.000  H
  H45      1.0000 0.34680  0.10200  0.68080  Biso   1.000  H
  H46      1.0000 0.65320  0.10200  0.81920  Biso   1.000  H
  H47      1.0000 0.84680  0.60200  0.68080  Biso   1.000  H
  H48      1.0000 0.15320  0.60200  0.81920  Biso   1.000  H
  C49      1.0000 0.59200  0.02000  0.29240  Biso   1.000  C
  C50      1.0000 0.40800  0.02000  0.20760  Biso   1.000  C
  C51      1.0000 0.09200  0.52000  0.29240  Biso   1.000  C
  C52      1.0000 0.90800  0.52000  0.20760  Biso   1.000  C
  C53      1.0000 0.40800  0.98000  0.70760  Biso   1.000  C
  C54      1.0000 0.59200  0.98000  0.79240  Biso   1.000  C
  C55      1.0000 0.90800  0.48000  0.70760  Biso   1.000  C
  C56      1.0000 0.09200  0.48000  0.79240  Biso   1.000  C
  H49      1.0000 0.65580  0.04960  0.32220  Biso   1.000  H
  H50      1.0000 0.34420  0.04960  0.17780  Biso   1.000  H
  H51      1.0000 0.15580  0.54960  0.32220  Biso   1.000  H
  H52      1.0000 0.84420  0.54960  0.17780  Biso   1.000  H
  H53      1.0000 0.34420  0.95040  0.67780  Biso   1.000  H
  H54      1.0000 0.65580  0.95040  0.82220  Biso   1.000  H
  H55      1.0000 0.84420  0.45040  0.67780  Biso   1.000  H
  H56      1.0000 0.15580  0.45040  0.82220  Biso   1.000  H
  C57      1.0000 0.50000  0.06680  0.25000  Biso   1.000  C
  C58      1.0000 0.00000  0.56680  0.25000  Biso   1.000  C
  C59      1.0000 0.50000  0.93320  0.75000  Biso   1.000  C
  C60      1.0000 0.00000  0.43320  0.75000  Biso   1.000  C
  H57      1.0000 0.50000  0.12830  0.25000  Biso   1.000  H
  H58      1.0000 0.00000  0.62830  0.25000  Biso   1.000  H
  H59      1.0000 0.50000  0.87170  0.75000  Biso   1.000  H
  H60      1.0000 0.00000  0.37170  0.75000  Biso   1.000  H
  C61      1.0000 0.40530  0.57340  0.25510  Biso   1.000  C
  C62      1.0000 0.59470  0.57340  0.24490  Biso   1.000  C
  C63      1.0000 0.90530  0.07340  0.25510  Biso   1.000  C
  C64      1.0000 0.09470  0.07340  0.24490  Biso   1.000  C
  C65      1.0000 0.59470  0.42660  0.74490  Biso   1.000  C
  C66      1.0000 0.40530  0.42660  0.75510  Biso   1.000  C
  C67      1.0000 0.09470  0.92660  0.74490  Biso   1.000  C
  C68      1.0000 0.90530  0.92660  0.75510  Biso   1.000  C
  H61      1.0000 0.33820  0.60430  0.25930  Biso   1.000  H
  H62      1.0000 0.66180  0.60430  0.24070  Biso   1.000  H
  H63      1.0000 0.83820  0.10430  0.25930  Biso   1.000  H
  H64      1.0000 0.16180  0.10430  0.24070  Biso   1.000  H
  H65      1.0000 0.66180  0.39570  0.74070  Biso   1.000  H
  H66      1.0000 0.33820  0.39570  0.75930  Biso   1.000  H
  H67      1.0000 0.16180  0.89570  0.74070  Biso   1.000  H
  H68      1.0000 0.83820  0.89570  0.75930  Biso   1.000  H
  C69      1.0000 0.40230  0.48240  0.25450  Biso   1.000  C
  C70      1.0000 0.59770  0.48240  0.24550  Biso   1.000  C
  C71      1.0000 0.90230  0.98240  0.25450  Biso   1.000  C
  C72      1.0000 0.09770  0.98240  0.24550  Biso   1.000  C
  C73      1.0000 0.59770  0.51760  0.74550  Biso   1.000  C
  C74      1.0000 0.40230  0.51760  0.75450  Biso   1.000  C
  C75      1.0000 0.09770  0.01760  0.74550  Biso   1.000  C
  C76      1.0000 0.90230  0.01760  0.75450  Biso   1.000  C
  H69      1.0000 0.33400  0.45270  0.25720  Biso   1.000  H
  H70      1.0000 0.66600  0.45270  0.24280  Biso   1.000  H
  H71      1.0000 0.83400  0.95270  0.25720  Biso   1.000  H
  H72      1.0000 0.16600  0.95270  0.24280  Biso   1.000  H
  H73      1.0000 0.66600  0.54730  0.74280  Biso   1.000  H
  H74      1.0000 0.33400  0.54730  0.75720  Biso   1.000  H
  H75      1.0000 0.16600  0.04730  0.74280  Biso   1.000  H
  H76      1.0000 0.83400  0.04730  0.75720  Biso   1.000  H
  C77      1.0000 0.50000  0.43640  0.25000  Biso   1.000  C
  C78      1.0000 0.00000  0.93640  0.25000  Biso   1.000  C
  C79      1.0000 0.50000  0.56360  0.75000  Biso   1.000  C
  C80      1.0000 0.00000  0.06360  0.75000  Biso   1.000  C
  H77      1.0000 0.50000  0.37490  0.25000  Biso   1.000  H
  H78      1.0000 0.00000  0.87490  0.25000  Biso   1.000  H
  H79      1.0000 0.50000  0.62510  0.75000  Biso   1.000  H
  H80      1.0000 0.00000  0.12510  0.75000  Biso   1.000  H
  C81      1.0000 0.49590  0.74986  0.43090  Biso   1.000  C
  C82      1.0000 0.50410  0.74986  0.06910  Biso   1.000  C
  C83      1.0000 0.99590  0.24986  0.43090  Biso   1.000  C
  C84      1.0000 0.00410  0.24986  0.06910  Biso   1.000  C
  C85      1.0000 0.50410  0.25014  0.56910  Biso   1.000  C
  C86      1.0000 0.49590  0.25014  0.93090  Biso   1.000  C
  C87      1.0000 0.00410  0.75014  0.56910  Biso   1.000  C
  C88      1.0000 0.99590  0.75014  0.93090  Biso   1.000  C
  C89      1.0000 0.47010  0.74310  0.52930  Biso   1.000  C
  C90      1.0000 0.52990  0.74310  0.97070  Biso   1.000  C
  C91      1.0000 0.97010  0.24310  0.52930  Biso   1.000  C
  C92      1.0000 0.02990  0.24310  0.97070  Biso   1.000  C
  C93      1.0000 0.52990  0.25690  0.47070  Biso   1.000  C
  C94      1.0000 0.47010  0.25690  0.02930  Biso   1.000  C
  C95      1.0000 0.02990  0.75690  0.47070  Biso   1.000  C
  C96      1.0000 0.97010  0.75690  0.02930  Biso   1.000  C
  H81      1.0000 0.51240  0.69500  0.56120  Biso   1.000  H
  H82      1.0000 0.48760  0.69500  0.93880  Biso   1.000  H
  H83      1.0000 0.01240  0.19500  0.56120  Biso   1.000  H
  H84      1.0000 0.98760  0.19500  0.93880  Biso   1.000  H
  H85      1.0000 0.48760  0.30500  0.43880  Biso   1.000  H
  H86      1.0000 0.51240  0.30500  0.06120  Biso   1.000  H
  H87      1.0000 0.98760  0.80500  0.43880  Biso   1.000  H
  H88      1.0000 0.01240  0.80500  0.06120  Biso   1.000  H
  H89      1.0000 0.39010  0.73260  0.52910  Biso   1.000  H
  H90      1.0000 0.60990  0.73260  0.97090  Biso   1.000  H
  H91      1.0000 0.89010  0.23260  0.52910  Biso   1.000  H
  H92      1.0000 0.10990  0.23260  0.97090  Biso   1.000  H
  H93      1.0000 0.60990  0.26740  0.47090  Biso   1.000  H
  H94      1.0000 0.39010  0.26740  0.02910  Biso   1.000  H
  H95      1.0000 0.10990  0.76740  0.47090  Biso   1.000  H
  H96      1.0000 0.89010  0.76740  0.02910  Biso   1.000  H
  H97      1.0000 0.49070  0.79720  0.56310  Biso   1.000  H
  H98      1.0000 0.50930  0.79720  0.93690  Biso   1.000  H
  H99      1.0000 0.99070  0.29720  0.56310  Biso   1.000  H
  H100     1.0000 0.00930  0.29720  0.93690  Biso   1.000  H
  H101     1.0000 0.50930  0.20280  0.43690  Biso   1.000  H
  H102     1.0000 0.49070  0.20280  0.06310  Biso   1.000  H
  H103     1.0000 0.00930  0.70280  0.43690  Biso   1.000  H
  H104     1.0000 0.99070  0.70280  0.06310  Biso   1.000  H
  Cu1      1.0000 0.75000  0.75000  0.50000  Biso   1.000  Cu
  Cu2      1.0000 0.25000  0.75000  0.00000  Biso   1.000  Cu
  Cu3      1.0000 0.25000  0.25000  0.50000  Biso   1.000  Cu
  Cu4      1.0000 0.75000  0.25000  0.00000  Biso   1.000  Cu
  Cu5      1.0000 0.50000  0.75155  0.25000  Biso   1.000  Cu
  Cu6      1.0000 0.00000  0.25155  0.25000  Biso   1.000  Cu
  Cu7      1.0000 0.50000  0.24845  0.75000  Biso   1.000  Cu
  Cu8      1.0000 0.00000  0.74845  0.75000  Biso   1.000  Cu
  N1       1.0000 0.74640  0.88467  0.51680  Biso   1.000  N
  N2       1.0000 0.25360  0.88467  0.98320  Biso   1.000  N
  N3       1.0000 0.24640  0.38467  0.51680  Biso   1.000  N
  N4       1.0000 0.75360  0.38467  0.98320  Biso   1.000  N
  N5       1.0000 0.25360  0.11533  0.48320  Biso   1.000  N
  N6       1.0000 0.74640  0.11533  0.01680  Biso   1.000  N
  N7       1.0000 0.75360  0.61533  0.48320  Biso   1.000  N
  N8       1.0000 0.24640  0.61533  0.01680  Biso   1.000  N
  N9       1.0000 0.50000  0.88420  0.25000  Biso   1.000  N
  N10      1.0000 0.00000  0.38420  0.25000  Biso   1.000  N
  N11      1.0000 0.50000  0.11580  0.75000  Biso   1.000  N
  N12      1.0000 0.00000  0.61580  0.75000  Biso   1.000  N
  N13      1.0000 0.50000  0.61820  0.25000  Biso   1.000  N
  N14      1.0000 0.00000  0.11820  0.25000  Biso   1.000  N
  N15      1.0000 0.50000  0.38180  0.75000  Biso   1.000  N
  N16      1.0000 0.00000  0.88180  0.75000  Biso   1.000  N
  O1       1.0000 0.60106  0.75320  0.41992  Biso   1.000  O
  O2       1.0000 0.39894  0.75320  0.08008  Biso   1.000  O
  O3       1.0000 0.10106  0.25320  0.41992  Biso   1.000  O
  O4       1.0000 0.89894  0.25320  0.08008  Biso   1.000  O
  O5       1.0000 0.39894  0.24680  0.58008  Biso   1.000  O
  O6       1.0000 0.60106  0.24680  0.91992  Biso   1.000  O
  O7       1.0000 0.89894  0.74680  0.58008  Biso   1.000  O
  O8       1.0000 0.10106  0.74680  0.91992  Biso   1.000  O
  O9       1.0000 0.41795  0.75139  0.36581  Biso   1.000  O
  O10      1.0000 0.58205  0.75139  0.13419  Biso   1.000  O
  O11      1.0000 0.91795  0.25139  0.36581  Biso   1.000  O
  O12      1.0000 0.08205  0.25139  0.13419  Biso   1.000  O
  O13      1.0000 0.58205  0.24861  0.63419  Biso   1.000  O
  O14      1.0000 0.41795  0.24861  0.86581  Biso   1.000  O
  O15      1.0000 0.08205  0.74861  0.63419  Biso   1.000  O
  O16      1.0000 0.91795  0.74861  0.86581  Biso   1.000  O
