data_image0
_cell_length_a       18.132
_cell_length_b       14.927
_cell_length_c       8.629
_cell_angle_alpha    90
_cell_angle_beta     90
_cell_angle_gamma    90

_symmetry_space_group_name_H-M    "P 1"
_symmetry_int_tables_number       1

loop_
  _symmetry_equiv_pos_as_xyz
  'x, y, z'

loop_
  _atom_site_label
  _atom_site_occupancy
  _atom_site_fract_x
  _atom_site_fract_y
  _atom_site_fract_z
  _atom_site_thermal_displace_type
  _atom_site_B_iso_or_equiv
  _atom_site_type_symbol
  Cu1      1.0000 0.27996  0.38933  0.17330  Biso   1.000  Cu
  Cu2      1.0000 0.22004  0.88933  0.17330  Biso   1.000  Cu
  Cu3      1.0000 0.27996  0.11067  0.67330  Biso   1.000  Cu
  Cu4      1.0000 0.77996  0.38933  0.32670  Biso   1.000  Cu
  Cu5      1.0000 0.72004  0.61067  0.82670  Biso   1.000  Cu
  Cu6      1.0000 0.77996  0.11067  0.82670  Biso   1.000  Cu
  Cu7      1.0000 0.72004  0.88933  0.32670  Biso   1.000  Cu
  Cu8      1.0000 0.22004  0.61067  0.67330  Biso   1.000  Cu
  N1       1.0000 0.33000  0.29110  0.05590  Biso   1.000  N
  N2       1.0000 0.17000  0.79110  0.05590  Biso   1.000  N
  N3       1.0000 0.33000  0.20890  0.55590  Biso   1.000  N
  N4       1.0000 0.83000  0.29110  0.44410  Biso   1.000  N
  N5       1.0000 0.67000  0.70890  0.94410  Biso   1.000  N
  N6       1.0000 0.83000  0.20890  0.94410  Biso   1.000  N
  N7       1.0000 0.67000  0.79110  0.44410  Biso   1.000  N
  N8       1.0000 0.17000  0.70890  0.55590  Biso   1.000  N
  N9       1.0000 0.31180  0.32660  0.39600  Biso   1.000  N
  N10      1.0000 0.18820  0.82660  0.39600  Biso   1.000  N
  N11      1.0000 0.31180  0.17340  0.89600  Biso   1.000  N
  N12      1.0000 0.81180  0.32660  0.10400  Biso   1.000  N
  N13      1.0000 0.68820  0.67340  0.60400  Biso   1.000  N
  N14      1.0000 0.81180  0.17340  0.60400  Biso   1.000  N
  N15      1.0000 0.68820  0.82660  0.10400  Biso   1.000  N
  N16      1.0000 0.18820  0.67340  0.89600  Biso   1.000  N
  N17      1.0000 0.18800  0.32730  0.08640  Biso   1.000  N
  N18      1.0000 0.31200  0.82730  0.08640  Biso   1.000  N
  N19      1.0000 0.18800  0.17270  0.58640  Biso   1.000  N
  N20      1.0000 0.68800  0.32730  0.41360  Biso   1.000  N
  N21      1.0000 0.81200  0.67270  0.91360  Biso   1.000  N
  N22      1.0000 0.68800  0.17270  0.91360  Biso   1.000  N
  N23      1.0000 0.81200  0.82730  0.41360  Biso   1.000  N
  N24      1.0000 0.31200  0.67270  0.58640  Biso   1.000  N
  N25      1.0000 0.21870  0.49530  0.22880  Biso   1.000  N
  N26      1.0000 0.28130  0.99530  0.22880  Biso   1.000  N
  N27      1.0000 0.21870  0.00470  0.72880  Biso   1.000  N
  N28      1.0000 0.71870  0.49530  0.27120  Biso   1.000  N
  N29      1.0000 0.78130  0.50470  0.77120  Biso   1.000  N
  N30      1.0000 0.71870  0.00470  0.77120  Biso   1.000  N
  N31      1.0000 0.78130  0.99530  0.27120  Biso   1.000  N
  N32      1.0000 0.28130  0.50470  0.72880  Biso   1.000  N
  N33      1.0000 0.38180  0.63070  0.20620  Biso   1.000  N
  N34      1.0000 0.11820  0.13070  0.20620  Biso   1.000  N
  N35      1.0000 0.38180  0.86930  0.70620  Biso   1.000  N
  N36      1.0000 0.88180  0.63070  0.29380  Biso   1.000  N
  N37      1.0000 0.61820  0.36930  0.79380  Biso   1.000  N
  N38      1.0000 0.88180  0.86930  0.79380  Biso   1.000  N
  N39      1.0000 0.61820  0.13070  0.29380  Biso   1.000  N
  N40      1.0000 0.11820  0.36930  0.70620  Biso   1.000  N
  N41      1.0000 0.35970  0.48300  0.16730  Biso   1.000  N
  N42      1.0000 0.14030  0.98300  0.16730  Biso   1.000  N
  N43      1.0000 0.35970  0.01700  0.66730  Biso   1.000  N
  N44      1.0000 0.85970  0.48300  0.33270  Biso   1.000  N
  N45      1.0000 0.64030  0.51700  0.83270  Biso   1.000  N
  N46      1.0000 0.85970  0.01700  0.83270  Biso   1.000  N
  N47      1.0000 0.64030  0.98300  0.33270  Biso   1.000  N
  N48      1.0000 0.14030  0.51700  0.66730  Biso   1.000  N
  C1       1.0000 0.39640  0.25400  0.02900  Biso   1.000  C
  C2       1.0000 0.10360  0.75400  0.02900  Biso   1.000  C
  C3       1.0000 0.39640  0.24600  0.52900  Biso   1.000  C
  C4       1.0000 0.89640  0.25400  0.47100  Biso   1.000  C
  C5       1.0000 0.60360  0.74600  0.97100  Biso   1.000  C
  C6       1.0000 0.89640  0.24600  0.97100  Biso   1.000  C
  C7       1.0000 0.60360  0.75400  0.47100  Biso   1.000  C
  C8       1.0000 0.10360  0.74600  0.52900  Biso   1.000  C
  H1       1.0000 0.44150  0.27240  0.06900  Biso   1.000  H
  H2       1.0000 0.05850  0.77240  0.06900  Biso   1.000  H
  H3       1.0000 0.44150  0.22760  0.56900  Biso   1.000  H
  H4       1.0000 0.94150  0.27240  0.43100  Biso   1.000  H
  H5       1.0000 0.55850  0.72760  0.93100  Biso   1.000  H
  H6       1.0000 0.94150  0.22760  0.93100  Biso   1.000  H
  H7       1.0000 0.55850  0.77240  0.43100  Biso   1.000  H
  H8       1.0000 0.05850  0.72760  0.56900  Biso   1.000  H
  C9       1.0000 0.38370  0.18180  0.92850  Biso   1.000  C
  C10      1.0000 0.11630  0.68180  0.92850  Biso   1.000  C
  C11      1.0000 0.38370  0.31820  0.42850  Biso   1.000  C
  C12      1.0000 0.88370  0.18180  0.57150  Biso   1.000  C
  C13      1.0000 0.61630  0.81820  0.07150  Biso   1.000  C
  C14      1.0000 0.88370  0.31820  0.07150  Biso   1.000  C
  C15      1.0000 0.61630  0.68180  0.57150  Biso   1.000  C
  C16      1.0000 0.11630  0.81820  0.42850  Biso   1.000  C
  H9       1.0000 0.42040  0.14470  0.88940  Biso   1.000  H
  H10      1.0000 0.07960  0.64470  0.88940  Biso   1.000  H
  H11      1.0000 0.42040  0.35530  0.38940  Biso   1.000  H
  H12      1.0000 0.92040  0.14470  0.61060  Biso   1.000  H
  H13      1.0000 0.57960  0.85530  0.11060  Biso   1.000  H
  H14      1.0000 0.92040  0.35530  0.11060  Biso   1.000  H
  H15      1.0000 0.57960  0.64470  0.61060  Biso   1.000  H
  H16      1.0000 0.07960  0.85530  0.38940  Biso   1.000  H
  C17      1.0000 0.28150  0.24000  0.97640  Biso   1.000  C
  C18      1.0000 0.21850  0.74000  0.97640  Biso   1.000  C
  C19      1.0000 0.28150  0.26000  0.47640  Biso   1.000  C
  C20      1.0000 0.78150  0.24000  0.52360  Biso   1.000  C
  C21      1.0000 0.71850  0.76000  0.02360  Biso   1.000  C
  C22      1.0000 0.78150  0.26000  0.02360  Biso   1.000  C
  C23      1.0000 0.71850  0.74000  0.52360  Biso   1.000  C
  C24      1.0000 0.21850  0.76000  0.47640  Biso   1.000  C
  C25      1.0000 0.20380  0.26240  0.99250  Biso   1.000  C
  C26      1.0000 0.29620  0.76240  0.99250  Biso   1.000  C
  C27      1.0000 0.20380  0.23760  0.49250  Biso   1.000  C
  C28      1.0000 0.70380  0.26240  0.50750  Biso   1.000  C
  C29      1.0000 0.79620  0.73760  0.00750  Biso   1.000  C
  C30      1.0000 0.70380  0.23760  0.00750  Biso   1.000  C
  C31      1.0000 0.79620  0.76240  0.50750  Biso   1.000  C
  C32      1.0000 0.29620  0.73760  0.49250  Biso   1.000  C
  H17      1.0000 0.16740  0.23180  0.93810  Biso   1.000  H
  H18      1.0000 0.33260  0.73180  0.93810  Biso   1.000  H
  H19      1.0000 0.16740  0.26820  0.43810  Biso   1.000  H
  H20      1.0000 0.66740  0.23180  0.56190  Biso   1.000  H
  H21      1.0000 0.83260  0.76820  0.06190  Biso   1.000  H
  H22      1.0000 0.66740  0.26820  0.06190  Biso   1.000  H
  H23      1.0000 0.83260  0.73180  0.56190  Biso   1.000  H
  H24      1.0000 0.33260  0.76820  0.43810  Biso   1.000  H
  C33      1.0000 0.11080  0.35140  0.10670  Biso   1.000  C
  C34      1.0000 0.38920  0.85140  0.10670  Biso   1.000  C
  C35      1.0000 0.11080  0.14860  0.60670  Biso   1.000  C
  C36      1.0000 0.61080  0.35140  0.39330  Biso   1.000  C
  C37      1.0000 0.88920  0.64860  0.89330  Biso   1.000  C
  C38      1.0000 0.61080  0.14860  0.89330  Biso   1.000  C
  C39      1.0000 0.88920  0.85140  0.39330  Biso   1.000  C
  C40      1.0000 0.38920  0.64860  0.60670  Biso   1.000  C
  H25      1.0000 0.09250  0.32470  0.20170  Biso   1.000  H
  H26      1.0000 0.40750  0.82470  0.20170  Biso   1.000  H
  H27      1.0000 0.09250  0.17530  0.70170  Biso   1.000  H
  H28      1.0000 0.59250  0.32470  0.29830  Biso   1.000  H
  H29      1.0000 0.90750  0.67530  0.79830  Biso   1.000  H
  H30      1.0000 0.59250  0.17530  0.79830  Biso   1.000  H
  H31      1.0000 0.90750  0.82470  0.29830  Biso   1.000  H
  H32      1.0000 0.40750  0.67530  0.70170  Biso   1.000  H
  H33      1.0000 0.08230  0.32710  0.02130  Biso   1.000  H
  H34      1.0000 0.41770  0.82710  0.02130  Biso   1.000  H
  H35      1.0000 0.08230  0.17290  0.52130  Biso   1.000  H
  H36      1.0000 0.58230  0.32710  0.47870  Biso   1.000  H
  H37      1.0000 0.91770  0.67290  0.97870  Biso   1.000  H
  H38      1.0000 0.58230  0.17290  0.97870  Biso   1.000  H
  H39      1.0000 0.91770  0.82710  0.47870  Biso   1.000  H
  H40      1.0000 0.41770  0.67290  0.52130  Biso   1.000  H
  C41      1.0000 0.09940  0.45250  0.11350  Biso   1.000  C
  C42      1.0000 0.40060  0.95250  0.11350  Biso   1.000  C
  C43      1.0000 0.09940  0.04750  0.61350  Biso   1.000  C
  C44      1.0000 0.59940  0.45250  0.38650  Biso   1.000  C
  C45      1.0000 0.90060  0.54750  0.88650  Biso   1.000  C
  C46      1.0000 0.59940  0.04750  0.88650  Biso   1.000  C
  C47      1.0000 0.90060  0.95250  0.38650  Biso   1.000  C
  C48      1.0000 0.40060  0.54750  0.61350  Biso   1.000  C
  H41      1.0000 0.07170  0.48370  0.04070  Biso   1.000  H
  H42      1.0000 0.42830  0.98370  0.04070  Biso   1.000  H
  H43      1.0000 0.07170  0.01630  0.54070  Biso   1.000  H
  H44      1.0000 0.57170  0.48370  0.45930  Biso   1.000  H
  H45      1.0000 0.92830  0.51630  0.95930  Biso   1.000  H
  H46      1.0000 0.57170  0.01630  0.95930  Biso   1.000  H
  H47      1.0000 0.92830  0.98370  0.45930  Biso   1.000  H
  H48      1.0000 0.42830  0.51630  0.54070  Biso   1.000  H
  C49      1.0000 0.13780  0.49820  0.25120  Biso   1.000  C
  C50      1.0000 0.36220  0.99820  0.25120  Biso   1.000  C
  C51      1.0000 0.13780  0.00180  0.75120  Biso   1.000  C
  C52      1.0000 0.63780  0.49820  0.24880  Biso   1.000  C
  C53      1.0000 0.86220  0.50180  0.74880  Biso   1.000  C
  C54      1.0000 0.63780  0.00180  0.74880  Biso   1.000  C
  C55      1.0000 0.86220  0.99820  0.24880  Biso   1.000  C
  C56      1.0000 0.36220  0.50180  0.75120  Biso   1.000  C
  H49      1.0000 0.12150  0.55990  0.25900  Biso   1.000  H
  H50      1.0000 0.37850  0.05990  0.25900  Biso   1.000  H
  H51      1.0000 0.12150  0.94010  0.75900  Biso   1.000  H
  H52      1.0000 0.62150  0.55990  0.24100  Biso   1.000  H
  H53      1.0000 0.87850  0.44010  0.74100  Biso   1.000  H
  H54      1.0000 0.62150  0.94010  0.74100  Biso   1.000  H
  H55      1.0000 0.87850  0.05990  0.24100  Biso   1.000  H
  H56      1.0000 0.37850  0.44010  0.75900  Biso   1.000  H
  H57      1.0000 0.12480  0.46770  0.34670  Biso   1.000  H
  H58      1.0000 0.37520  0.96770  0.34670  Biso   1.000  H
  H59      1.0000 0.12480  0.03230  0.84670  Biso   1.000  H
  H60      1.0000 0.62480  0.46770  0.15330  Biso   1.000  H
  H61      1.0000 0.87520  0.53230  0.65330  Biso   1.000  H
  H62      1.0000 0.62480  0.03230  0.65330  Biso   1.000  H
  H63      1.0000 0.87520  0.96770  0.15330  Biso   1.000  H
  H64      1.0000 0.37520  0.53230  0.84670  Biso   1.000  H
  C57      1.0000 0.25470  0.56790  0.23280  Biso   1.000  C
  C58      1.0000 0.24530  0.06790  0.23280  Biso   1.000  C
  C59      1.0000 0.25470  0.93210  0.73280  Biso   1.000  C
  C60      1.0000 0.75470  0.56790  0.26720  Biso   1.000  C
  C61      1.0000 0.74530  0.43210  0.76720  Biso   1.000  C
  C62      1.0000 0.75470  0.93210  0.76720  Biso   1.000  C
  C63      1.0000 0.74530  0.06790  0.26720  Biso   1.000  C
  C64      1.0000 0.24530  0.43210  0.73280  Biso   1.000  C
  H65      1.0000 0.23130  0.62190  0.25440  Biso   1.000  H
  H66      1.0000 0.26870  0.12190  0.25440  Biso   1.000  H
  H67      1.0000 0.23130  0.87810  0.75440  Biso   1.000  H
  H68      1.0000 0.73130  0.62190  0.24560  Biso   1.000  H
  H69      1.0000 0.76870  0.37810  0.74560  Biso   1.000  H
  H70      1.0000 0.73130  0.87810  0.74560  Biso   1.000  H
  H71      1.0000 0.76870  0.12190  0.24560  Biso   1.000  H
  H72      1.0000 0.26870  0.37810  0.75440  Biso   1.000  H
  C65      1.0000 0.33270  0.56480  0.20320  Biso   1.000  C
  C66      1.0000 0.16730  0.06480  0.20320  Biso   1.000  C
  C67      1.0000 0.33270  0.93520  0.70320  Biso   1.000  C
  C68      1.0000 0.83270  0.56480  0.29680  Biso   1.000  C
  C69      1.0000 0.66730  0.43520  0.79680  Biso   1.000  C
  C70      1.0000 0.83270  0.93520  0.79680  Biso   1.000  C
  C71      1.0000 0.66730  0.06480  0.29680  Biso   1.000  C
  C72      1.0000 0.16730  0.43520  0.70320  Biso   1.000  C
  C73      1.0000 0.44590  0.58700  0.17600  Biso   1.000  C
  C74      1.0000 0.05410  0.08700  0.17600  Biso   1.000  C
  C75      1.0000 0.44590  0.91300  0.67600  Biso   1.000  C
  C76      1.0000 0.94590  0.58700  0.32400  Biso   1.000  C
  C77      1.0000 0.55410  0.41300  0.82400  Biso   1.000  C
  C78      1.0000 0.94590  0.91300  0.82400  Biso   1.000  C
  C79      1.0000 0.55410  0.08700  0.32400  Biso   1.000  C
  C80      1.0000 0.05410  0.41300  0.67600  Biso   1.000  C
  H73      1.0000 0.49210  0.61380  0.17330  Biso   1.000  H
  H74      1.0000 0.00790  0.11380  0.17330  Biso   1.000  H
  H75      1.0000 0.49210  0.88620  0.67330  Biso   1.000  H
  H76      1.0000 0.99210  0.61380  0.32670  Biso   1.000  H
  H77      1.0000 0.50790  0.38620  0.82670  Biso   1.000  H
  H78      1.0000 0.99210  0.88620  0.82670  Biso   1.000  H
  H79      1.0000 0.50790  0.11380  0.32670  Biso   1.000  H
  H80      1.0000 0.00790  0.38620  0.67330  Biso   1.000  H
  C81      1.0000 0.43290  0.49820  0.15030  Biso   1.000  C
  C82      1.0000 0.06710  0.99820  0.15030  Biso   1.000  C
  C83      1.0000 0.43290  0.00180  0.65030  Biso   1.000  C
  C84      1.0000 0.93290  0.49820  0.34970  Biso   1.000  C
  C85      1.0000 0.56710  0.50180  0.84970  Biso   1.000  C
  C86      1.0000 0.93290  0.00180  0.84970  Biso   1.000  C
  C87      1.0000 0.56710  0.99820  0.34970  Biso   1.000  C
  C88      1.0000 0.06710  0.50180  0.65030  Biso   1.000  C
  H81      1.0000 0.46820  0.45540  0.12540  Biso   1.000  H
  H82      1.0000 0.03180  0.95540  0.12540  Biso   1.000  H
  H83      1.0000 0.46820  0.04460  0.62540  Biso   1.000  H
  H84      1.0000 0.96820  0.45540  0.37460  Biso   1.000  H
  H85      1.0000 0.53180  0.54460  0.87460  Biso   1.000  H
  H86      1.0000 0.96820  0.04460  0.87460  Biso   1.000  H
  H87      1.0000 0.53180  0.95540  0.37460  Biso   1.000  H
  H88      1.0000 0.03180  0.54460  0.62540  Biso   1.000  H
