data_image0
_cell_length_a       22.8304
_cell_length_b       22.8304
_cell_length_c       13.5999
_cell_angle_alpha    90
_cell_angle_beta     90
_cell_angle_gamma    120

_symmetry_space_group_name_H-M    "P 1"
_symmetry_int_tables_number       1

loop_
  _symmetry_equiv_pos_as_xyz
  'x, y, z'

loop_
  _atom_site_label
  _atom_site_occupancy
  _atom_site_fract_x
  _atom_site_fract_y
  _atom_site_fract_z
  _atom_site_thermal_displace_type
  _atom_site_B_iso_or_equiv
  _atom_site_type_symbol
  Cu1      1.0000 0.45129  0.22618  0.00554  Biso   1.000  Cu
  Cu2      1.0000 0.77382  0.22511  0.67221  Biso   1.000  Cu
  Cu3      1.0000 0.77489  0.54871  0.33887  Biso   1.000  Cu
  Cu4      1.0000 0.78451  0.89082  0.01116  Biso   1.000  Cu
  Cu5      1.0000 0.10918  0.89369  0.67783  Biso   1.000  Cu
  Cu6      1.0000 0.10631  0.21549  0.34449  Biso   1.000  Cu
  Cu7      1.0000 0.11792  0.55961  0.02417  Biso   1.000  Cu
  Cu8      1.0000 0.44039  0.55831  0.69084  Biso   1.000  Cu
  Cu9      1.0000 0.44169  0.88208  0.35750  Biso   1.000  Cu
  O1       1.0000 0.45430  0.13430  0.08400  Biso   1.000  O
  O2       1.0000 0.86570  0.32000  0.75067  Biso   1.000  O
  O3       1.0000 0.68000  0.54570  0.41733  Biso   1.000  O
  O4       1.0000 0.45190  0.31860  0.92580  Biso   1.000  O
  O5       1.0000 0.68140  0.13330  0.59247  Biso   1.000  O
  O6       1.0000 0.86670  0.54810  0.25913  Biso   1.000  O
  O7       1.0000 0.79780  0.80550  0.08950  Biso   1.000  O
  O8       1.0000 0.19450  0.99230  0.75617  Biso   1.000  O
  O9       1.0000 0.00770  0.20220  0.42283  Biso   1.000  O
  O10      1.0000 0.77440  0.98000  0.93150  Biso   1.000  O
  O11      1.0000 0.02000  0.79440  0.59817  Biso   1.000  O
  O12      1.0000 0.20560  0.22560  0.26483  Biso   1.000  O
  O13      1.0000 0.10900  0.46220  0.10110  Biso   1.000  O
  O14      1.0000 0.53780  0.64680  0.76777  Biso   1.000  O
  O15      1.0000 0.35320  0.89100  0.43443  Biso   1.000  O
  O16      1.0000 0.13110  0.65880  0.94390  Biso   1.000  O
  O17      1.0000 0.34120  0.47230  0.61057  Biso   1.000  O
  O18      1.0000 0.52770  0.86890  0.27723  Biso   1.000  O
  H1       1.0000 0.44100  0.14000  0.14100  Biso   1.000  H
  H2       1.0000 0.86000  0.30100  0.80767  Biso   1.000  H
  H3       1.0000 0.69900  0.55900  0.47433  Biso   1.000  H
  H4       1.0000 0.44400  0.30100  0.86830  Biso   1.000  H
  H5       1.0000 0.69900  0.14300  0.53497  Biso   1.000  H
  H6       1.0000 0.85700  0.55600  0.20163  Biso   1.000  H
  H7       1.0000 0.77300  0.80100  0.13900  Biso   1.000  H
  H8       1.0000 0.19900  0.97200  0.80567  Biso   1.000  H
  H9       1.0000 0.02800  0.22700  0.47233  Biso   1.000  H
  H10      1.0000 0.76900  0.96100  0.87500  Biso   1.000  H
  H11      1.0000 0.03900  0.80800  0.54167  Biso   1.000  H
  H12      1.0000 0.19200  0.23100  0.20833  Biso   1.000  H
  H13      1.0000 0.10900  0.47500  0.16070  Biso   1.000  H
  H14      1.0000 0.52500  0.63400  0.82737  Biso   1.000  H
  H15      1.0000 0.36600  0.89100  0.49403  Biso   1.000  H
  H16      1.0000 0.11900  0.64200  0.88570  Biso   1.000  H
  H17      1.0000 0.35800  0.47700  0.55237  Biso   1.000  H
  H18      1.0000 0.52300  0.88100  0.21903  Biso   1.000  H
  C1       1.0000 0.44380  0.06940  0.07050  Biso   1.000  C
  C2       1.0000 0.93060  0.37440  0.73717  Biso   1.000  C
  C3       1.0000 0.62560  0.55620  0.40383  Biso   1.000  C
  H19      1.0000 0.48570  0.06900  0.08500  Biso   1.000  H
  H20      1.0000 0.93100  0.41670  0.75167  Biso   1.000  H
  H21      1.0000 0.58330  0.51430  0.41833  Biso   1.000  H
  H22      1.0000 0.43050  0.05540  0.00210  Biso   1.000  H
  H23      1.0000 0.94460  0.37510  0.66877  Biso   1.000  H
  H24      1.0000 0.62490  0.56950  0.33543  Biso   1.000  H
  H25      1.0000 0.40790  0.03800  0.11460  Biso   1.000  H
  H26      1.0000 0.96200  0.36990  0.78127  Biso   1.000  H
  H27      1.0000 0.63010  0.59210  0.44793  Biso   1.000  H
  C4       1.0000 0.44800  0.37590  0.94120  Biso   1.000  C
  C5       1.0000 0.62410  0.07210  0.60787  Biso   1.000  C
  C6       1.0000 0.92790  0.55200  0.27453  Biso   1.000  C
  H28      1.0000 0.44440  0.38180  0.01180  Biso   1.000  H
  H29      1.0000 0.61820  0.06260  0.67847  Biso   1.000  H
  H30      1.0000 0.93740  0.55560  0.34513  Biso   1.000  H
  H31      1.0000 0.40810  0.37160  0.90740  Biso   1.000  H
  H32      1.0000 0.62840  0.03650  0.57407  Biso   1.000  H
  H33      1.0000 0.96350  0.59190  0.24073  Biso   1.000  H
  H34      1.0000 0.48880  0.41510  0.91520  Biso   1.000  H
  H35      1.0000 0.58490  0.07370  0.58187  Biso   1.000  H
  H36      1.0000 0.92630  0.51120  0.24853  Biso   1.000  H
  C7       1.0000 0.78130  0.73910  0.07440  Biso   1.000  C
  C8       1.0000 0.26090  0.04220  0.74107  Biso   1.000  C
  C9       1.0000 0.95780  0.21870  0.40773  Biso   1.000  C
  H37      1.0000 0.74570  0.70970  0.12060  Biso   1.000  H
  H38      1.0000 0.29030  0.03600  0.78727  Biso   1.000  H
  H39      1.0000 0.96400  0.25430  0.45393  Biso   1.000  H
  H40      1.0000 0.82140  0.73480  0.08510  Biso   1.000  H
  H41      1.0000 0.26520  0.08660  0.75177  Biso   1.000  H
  H42      1.0000 0.91340  0.17860  0.41843  Biso   1.000  H
  H43      1.0000 0.76510  0.72580  0.00690  Biso   1.000  H
  H44      1.0000 0.27420  0.03930  0.67357  Biso   1.000  H
  H45      1.0000 0.96070  0.23490  0.34023  Biso   1.000  H
  C10      1.0000 0.77500  0.04030  0.94270  Biso   1.000  C
  C11      1.0000 0.95970  0.73470  0.60937  Biso   1.000  C
  C12      1.0000 0.26530  0.22500  0.27603  Biso   1.000  C
  H46      1.0000 0.76970  0.04740  0.01240  Biso   1.000  H
  H47      1.0000 0.95260  0.72230  0.67907  Biso   1.000  H
  H48      1.0000 0.27770  0.23030  0.34573  Biso   1.000  H
  H49      1.0000 0.73770  0.03890  0.90490  Biso   1.000  H
  H50      1.0000 0.96110  0.69880  0.57157  Biso   1.000  H
  H51      1.0000 0.30120  0.26230  0.23823  Biso   1.000  H
  H52      1.0000 0.81810  0.07750  0.91860  Biso   1.000  H
  H53      1.0000 0.92250  0.74060  0.58527  Biso   1.000  H
  H54      1.0000 0.25940  0.18190  0.25193  Biso   1.000  H
  C13      1.0000 0.11060  0.40330  0.09020  Biso   1.000  C
  C14      1.0000 0.59670  0.70730  0.75687  Biso   1.000  C
  C15      1.0000 0.29270  0.88940  0.42353  Biso   1.000  C
  H55      1.0000 0.09940  0.38750  0.02210  Biso   1.000  H
  H56      1.0000 0.61250  0.71190  0.68877  Biso   1.000  H
  H57      1.0000 0.28810  0.90060  0.35543  Biso   1.000  H
  H58      1.0000 0.07750  0.36880  0.13460  Biso   1.000  H
  H59      1.0000 0.63120  0.70870  0.80127  Biso   1.000  H
  H60      1.0000 0.29130  0.92250  0.46793  Biso   1.000  H
  H61      1.0000 0.15590  0.41140  0.10610  Biso   1.000  H
  H62      1.0000 0.58860  0.74450  0.77277  Biso   1.000  H
  H63      1.0000 0.25550  0.84410  0.43943  Biso   1.000  H
  C16      1.0000 0.11280  0.70880  0.95680  Biso   1.000  C
  C17      1.0000 0.29120  0.40400  0.62347  Biso   1.000  C
  C18      1.0000 0.59600  0.88720  0.29013  Biso   1.000  C
  H64      1.0000 0.07240  0.69720  0.91760  Biso   1.000  H
  H65      1.0000 0.30280  0.37520  0.58427  Biso   1.000  H
  H66      1.0000 0.62480  0.92760  0.25093  Biso   1.000  H
  H67      1.0000 0.15000  0.75270  0.93540  Biso   1.000  H
  H68      1.0000 0.24730  0.39730  0.60207  Biso   1.000  H
  H69      1.0000 0.60270  0.85000  0.26873  Biso   1.000  H
  H70      1.0000 0.10310  0.71130  0.02640  Biso   1.000  H
  H71      1.0000 0.28870  0.39180  0.69307  Biso   1.000  H
  H72      1.0000 0.60820  0.89690  0.35973  Biso   1.000  H
  O19      1.0000 0.45160  0.18160  0.88130  Biso   1.000  O
  O20      1.0000 0.81840  0.27000  0.54797  Biso   1.000  O
  O21      1.0000 0.73000  0.54840  0.21463  Biso   1.000  O
  O22      1.0000 0.44060  0.24510  0.76870  Biso   1.000  O
  O23      1.0000 0.75490  0.19550  0.43537  Biso   1.000  O
  O24      1.0000 0.80450  0.55940  0.10203  Biso   1.000  O
  C19      1.0000 0.44460  0.19520  0.79370  Biso   1.000  C
  C20      1.0000 0.80480  0.24940  0.46037  Biso   1.000  C
  C21      1.0000 0.75060  0.55540  0.12703  Biso   1.000  C
  C22      1.0000 0.44050  0.14600  0.71790  Biso   1.000  C
  C23      1.0000 0.85400  0.29450  0.38457  Biso   1.000  C
  C24      1.0000 0.70550  0.55950  0.05123  Biso   1.000  C
  C25      1.0000 0.44650  0.09060  0.74480  Biso   1.000  C
  C26      1.0000 0.90940  0.35590  0.41147  Biso   1.000  C
  C27      1.0000 0.64410  0.55350  0.07813  Biso   1.000  C
  H73      1.0000 0.45480  0.08360  0.81110  Biso   1.000  H
  H74      1.0000 0.91640  0.37120  0.47777  Biso   1.000  H
  H75      1.0000 0.62880  0.54520  0.14443  Biso   1.000  H
  C28      1.0000 0.43990  0.04500  0.66970  Biso   1.000  C
  C29      1.0000 0.95500  0.39490  0.33637  Biso   1.000  C
  C30      1.0000 0.60510  0.56010  0.00303  Biso   1.000  C
  H76      1.0000 0.43980  0.00470  0.68740  Biso   1.000  H
  H77      1.0000 0.99530  0.43510  0.35407  Biso   1.000  H
  H78      1.0000 0.56490  0.56020  0.02073  Biso   1.000  H
  C31      1.0000 0.43400  0.05550  0.57870  Biso   1.000  C
  C32      1.0000 0.94450  0.37850  0.24537  Biso   1.000  C
  C33      1.0000 0.62150  0.56600  0.91203  Biso   1.000  C
  H79      1.0000 0.43370  0.02540  0.53020  Biso   1.000  H
  H80      1.0000 0.97460  0.40830  0.19687  Biso   1.000  H
  H81      1.0000 0.59170  0.56630  0.86353  Biso   1.000  H
  C34      1.0000 0.42800  0.11160  0.55020  Biso   1.000  C
  C35      1.0000 0.88840  0.31640  0.21687  Biso   1.000  C
  C36      1.0000 0.68360  0.57200  0.88353  Biso   1.000  C
  H82      1.0000 0.42150  0.11830  0.48300  Biso   1.000  H
  H83      1.0000 0.88170  0.30320  0.14967  Biso   1.000  H
  H84      1.0000 0.69680  0.57850  0.81633  Biso   1.000  H
  C37      1.0000 0.43160  0.15610  0.61970  Biso   1.000  C
  C38      1.0000 0.84390  0.27550  0.28637  Biso   1.000  C
  C39      1.0000 0.72450  0.56840  0.95303  Biso   1.000  C
  H85      1.0000 0.42800  0.19430  0.60090  Biso   1.000  H
  H86      1.0000 0.80570  0.23370  0.26757  Biso   1.000  H
  H87      1.0000 0.76630  0.57200  0.93423  Biso   1.000  H
  O25      1.0000 0.44950  0.26930  0.13030  Biso   1.000  O
  O26      1.0000 0.73070  0.18020  0.79697  Biso   1.000  O
  O27      1.0000 0.81980  0.55050  0.46363  Biso   1.000  O
  O28      1.0000 0.44000  0.19430  0.24170  Biso   1.000  O
  O29      1.0000 0.80570  0.24570  0.90837  Biso   1.000  O
  O30      1.0000 0.75430  0.56000  0.57503  Biso   1.000  O
  C40      1.0000 0.44450  0.24830  0.21650  Biso   1.000  C
  C41      1.0000 0.75170  0.19620  0.88317  Biso   1.000  C
  C42      1.0000 0.80380  0.55550  0.54983  Biso   1.000  C
  C43      1.0000 0.44160  0.29430  0.29390  Biso   1.000  C
  C44      1.0000 0.70570  0.14730  0.96057  Biso   1.000  C
  C45      1.0000 0.85270  0.55840  0.62723  Biso   1.000  C
  C46      1.0000 0.43000  0.27460  0.39310  Biso   1.000  C
  C47      1.0000 0.72540  0.15540  0.05977  Biso   1.000  C
  C48      1.0000 0.84460  0.57000  0.72643  Biso   1.000  C
  H88      1.0000 0.42380  0.23170  0.41090  Biso   1.000  H
  H89      1.0000 0.76830  0.19210  0.07757  Biso   1.000  H
  H90      1.0000 0.80790  0.57620  0.74423  Biso   1.000  H
  C49      1.0000 0.42730  0.31460  0.46410  Biso   1.000  C
  C50      1.0000 0.68540  0.11270  0.13077  Biso   1.000  C
  C51      1.0000 0.88730  0.57270  0.79743  Biso   1.000  C
  H91      1.0000 0.41830  0.29960  0.53040  Biso   1.000  H
  H92      1.0000 0.70040  0.11870  0.19707  Biso   1.000  H
  H93      1.0000 0.88130  0.58170  0.86373  Biso   1.000  H
  C52      1.0000 0.43810  0.37920  0.43770  Biso   1.000  C
  C53      1.0000 0.62080  0.05890  0.10437  Biso   1.000  C
  C54      1.0000 0.94110  0.56190  0.77103  Biso   1.000  C
  H94      1.0000 0.44040  0.40970  0.48720  Biso   1.000  H
  H95      1.0000 0.59030  0.03070  0.15387  Biso   1.000  H
  H96      1.0000 0.96930  0.55960  0.82053  Biso   1.000  H
  C55      1.0000 0.44480  0.39680  0.34530  Biso   1.000  C
  C56      1.0000 0.60320  0.04800  0.01197  Biso   1.000  C
  C57      1.0000 0.95200  0.55520  0.67863  Biso   1.000  C
  H97      1.0000 0.44530  0.43740  0.32850  Biso   1.000  H
  H98      1.0000 0.56260  0.00790  0.99517  Biso   1.000  H
  H99      1.0000 0.99210  0.55470  0.66183  Biso   1.000  H
  C58      1.0000 0.45140  0.35830  0.26860  Biso   1.000  C
  C59      1.0000 0.64170  0.09310  0.93527  Biso   1.000  C
  C60      1.0000 0.90690  0.54860  0.60193  Biso   1.000  C
  H100     1.0000 0.46210  0.37500  0.20320  Biso   1.000  H
  H101     1.0000 0.62500  0.08710  0.86987  Biso   1.000  H
  H102     1.0000 0.91290  0.53790  0.53653  Biso   1.000  H
  O31      1.0000 0.77400  0.84120  0.88750  Biso   1.000  O
  O32      1.0000 0.15880  0.93280  0.55417  Biso   1.000  O
  O33      1.0000 0.06720  0.22600  0.22083  Biso   1.000  O
  O34      1.0000 0.77740  0.91370  0.77260  Biso   1.000  O
  O35      1.0000 0.08630  0.86370  0.43927  Biso   1.000  O
  O36      1.0000 0.13630  0.22260  0.10593  Biso   1.000  O
  C61      1.0000 0.77530  0.86020  0.80110  Biso   1.000  C
  C62      1.0000 0.13980  0.91510  0.46777  Biso   1.000  C
  C63      1.0000 0.08490  0.22470  0.13443  Biso   1.000  C
  C64      1.0000 0.77170  0.81110  0.72020  Biso   1.000  C
  C65      1.0000 0.18890  0.96060  0.38687  Biso   1.000  C
  C66      1.0000 0.03940  0.22830  0.05353  Biso   1.000  C
  C67      1.0000 0.78100  0.75780  0.74610  Biso   1.000  C
  C68      1.0000 0.24220  0.02320  0.41277  Biso   1.000  C
  C69      1.0000 0.97680  0.21900  0.07943  Biso   1.000  C
  H103     1.0000 0.78990  0.75160  0.81240  Biso   1.000  H
  H104     1.0000 0.24840  0.03830  0.47907  Biso   1.000  H
  H105     1.0000 0.96170  0.21010  0.14573  Biso   1.000  H
  C70      1.0000 0.77710  0.71290  0.67180  Biso   1.000  C
  C71      1.0000 0.28710  0.06420  0.33847  Biso   1.000  C
  C72      1.0000 0.93580  0.22290  0.00513  Biso   1.000  C
  H106     1.0000 0.78030  0.67420  0.68870  Biso   1.000  H
  H107     1.0000 0.32580  0.10610  0.35537  Biso   1.000  H
  H108     1.0000 0.89390  0.21970  0.02203  Biso   1.000  H
  C73      1.0000 0.76920  0.72410  0.57950  Biso   1.000  C
  C74      1.0000 0.27590  0.04510  0.24617  Biso   1.000  C
  C75      1.0000 0.95490  0.23080  0.91283  Biso   1.000  C
  H109     1.0000 0.76970  0.69490  0.53040  Biso   1.000  H
  H110     1.0000 0.30510  0.07480  0.19707  Biso   1.000  H
  H111     1.0000 0.92520  0.23030  0.86373  Biso   1.000  H
  C76      1.0000 0.76000  0.77770  0.55120  Biso   1.000  C
  C77      1.0000 0.22230  0.98230  0.21787  Biso   1.000  C
  C78      1.0000 0.01770  0.24000  0.88453  Biso   1.000  C
  H112     1.0000 0.75190  0.78420  0.48460  Biso   1.000  H
  H113     1.0000 0.21580  0.96770  0.15127  Biso   1.000  H
  H114     1.0000 0.03230  0.24810  0.81793  Biso   1.000  H
  C79      1.0000 0.76310  0.82140  0.62590  Biso   1.000  C
  C80      1.0000 0.17860  0.94170  0.29257  Biso   1.000  C
  C81      1.0000 0.05830  0.23690  0.95923  Biso   1.000  C
  H115     1.0000 0.75900  0.85960  0.60890  Biso   1.000  H
  H116     1.0000 0.14040  0.89940  0.27557  Biso   1.000  H
  H117     1.0000 0.10060  0.24100  0.94223  Biso   1.000  H
  O37      1.0000 0.79393  0.93990  0.13460  Biso   1.000  O
  O38      1.0000 0.06010  0.85403  0.80127  Biso   1.000  O
  O39      1.0000 0.14597  0.20607  0.46793  Biso   1.000  O
  O40      1.0000 0.76890  0.85790  0.24760  Biso   1.000  O
  O41      1.0000 0.14210  0.91100  0.91427  Biso   1.000  O
  O42      1.0000 0.08900  0.23110  0.58093  Biso   1.000  O
  C82      1.0000 0.78010  0.91510  0.22070  Biso   1.000  C
  C83      1.0000 0.08490  0.86500  0.88737  Biso   1.000  C
  C84      1.0000 0.13500  0.21990  0.55403  Biso   1.000  C
  C85      1.0000 0.77690  0.96150  0.29830  Biso   1.000  C
  C86      1.0000 0.03850  0.81540  0.96497  Biso   1.000  C
  C87      1.0000 0.18460  0.22310  0.63163  Biso   1.000  C
  C88      1.0000 0.76590  0.94080  0.39520  Biso   1.000  C
  C89      1.0000 0.05920  0.82510  0.06187  Biso   1.000  C
  C90      1.0000 0.17490  0.23410  0.72853  Biso   1.000  C
  H118     1.0000 0.76120  0.89840  0.41320  Biso   1.000  H
  H119     1.0000 0.10160  0.86280  0.07987  Biso   1.000  H
  H120     1.0000 0.13720  0.23880  0.74653  Biso   1.000  H
  C91      1.0000 0.76170  0.98300  0.46720  Biso   1.000  C
  C92      1.0000 0.01700  0.77870  0.13387  Biso   1.000  C
  C93      1.0000 0.22130  0.23830  0.80053  Biso   1.000  C
  H121     1.0000 0.75580  0.97040  0.53460  Biso   1.000  H
  H122     1.0000 0.02960  0.78540  0.20127  Biso   1.000  H
  H123     1.0000 0.21460  0.24420  0.86793  Biso   1.000  H
  C94      1.0000 0.76640  0.04320  0.43760  Biso   1.000  C
  C95      1.0000 0.95680  0.72320  0.10427  Biso   1.000  C
  C96      1.0000 0.27680  0.23360  0.77093  Biso   1.000  C
  H124     1.0000 0.76090  0.07040  0.48550  Biso   1.000  H
  H125     1.0000 0.92960  0.69050  0.15217  Biso   1.000  H
  H126     1.0000 0.30950  0.23910  0.81883  Biso   1.000  H
  C97      1.0000 0.77840  0.06530  0.34220  Biso   1.000  C
  C98      1.0000 0.93470  0.71310  0.00887  Biso   1.000  C
  C99      1.0000 0.28690  0.22160  0.67553  Biso   1.000  C
  H127     1.0000 0.78290  0.10740  0.32350  Biso   1.000  H
  H128     1.0000 0.89260  0.67550  0.99017  Biso   1.000  H
  H129     1.0000 0.32450  0.21710  0.65683  Biso   1.000  H
  C100     1.0000 0.78380  0.02280  0.27420  Biso   1.000  C
  C101     1.0000 0.97720  0.76100  0.94087  Biso   1.000  C
  C102     1.0000 0.23900  0.21620  0.60753  Biso   1.000  C
  H130     1.0000 0.79280  0.03700  0.20760  Biso   1.000  H
  H131     1.0000 0.96300  0.75580  0.87427  Biso   1.000  H
  H132     1.0000 0.24420  0.20720  0.54093  Biso   1.000  H
  O43      1.0000 0.12633  0.52040  0.89950  Biso   1.000  O
  O44      1.0000 0.47960  0.60593  0.56617  Biso   1.000  O
  O45      1.0000 0.39407  0.87367  0.23283  Biso   1.000  O
  O46      1.0000 0.10340  0.57770  0.78880  Biso   1.000  O
  O47      1.0000 0.42230  0.52570  0.45547  Biso   1.000  O
  O48      1.0000 0.47430  0.89660  0.12213  Biso   1.000  O
  C103     1.0000 0.11390  0.53220  0.81350  Biso   1.000  C
  C104     1.0000 0.46780  0.58170  0.48017  Biso   1.000  C
  C105     1.0000 0.41830  0.88610  0.14683  Biso   1.000  C
  C106     1.0000 0.11070  0.48340  0.73670  Biso   1.000  C
  C107     1.0000 0.51660  0.62730  0.40337  Biso   1.000  C
  C108     1.0000 0.37270  0.88930  0.07003  Biso   1.000  C
  C109     1.0000 0.11920  0.42840  0.76000  Biso   1.000  C
  C110     1.0000 0.57160  0.69080  0.42667  Biso   1.000  C
  C111     1.0000 0.30920  0.88080  0.09333  Biso   1.000  C
  H133     1.0000 0.13000  0.42310  0.82560  Biso   1.000  H
  H134     1.0000 0.57690  0.70690  0.49227  Biso   1.000  H
  H135     1.0000 0.29310  0.87000  0.15893  Biso   1.000  H
  C112     1.0000 0.11230  0.38130  0.68900  Biso   1.000  C
  C113     1.0000 0.61870  0.73100  0.35567  Biso   1.000  C
  C114     1.0000 0.26900  0.88770  0.02233  Biso   1.000  C
  H136     1.0000 0.11300  0.34150  0.70730  Biso   1.000  H
  H137     1.0000 0.65850  0.77150  0.37397  Biso   1.000  H
  H138     1.0000 0.22850  0.88700  0.04063  Biso   1.000  H
  C115     1.0000 0.10460  0.39320  0.59330  Biso   1.000  C
  C116     1.0000 0.60680  0.71140  0.25997  Biso   1.000  C
  C117     1.0000 0.28860  0.89540  0.92663  Biso   1.000  C
  H139     1.0000 0.10610  0.36480  0.54350  Biso   1.000  H
  H140     1.0000 0.63520  0.74130  0.21017  Biso   1.000  H
  H141     1.0000 0.25870  0.89390  0.87683  Biso   1.000  H
  C118     1.0000 0.09450  0.44650  0.56760  Biso   1.000  C
  C119     1.0000 0.55350  0.64800  0.23427  Biso   1.000  C
  C120     1.0000 0.35200  0.90550  0.90093  Biso   1.000  C
  H142     1.0000 0.08520  0.45170  0.50110  Biso   1.000  H
  H143     1.0000 0.54830  0.63350  0.16777  Biso   1.000  H
  H144     1.0000 0.36650  0.91480  0.83443  Biso   1.000  H
  C121     1.0000 0.09790  0.49090  0.63630  Biso   1.000  C
  C122     1.0000 0.50910  0.60700  0.30297  Biso   1.000  C
  C123     1.0000 0.39300  0.90210  0.96963  Biso   1.000  C
  H145     1.0000 0.09170  0.52750  0.61750  Biso   1.000  H
  H146     1.0000 0.47250  0.56420  0.28417  Biso   1.000  H
  H147     1.0000 0.43580  0.90830  0.95083  Biso   1.000  H
  O49      1.0000 0.10839  0.59981  0.14650  Biso   1.000  O
  O50      1.0000 0.40019  0.50858  0.81317  Biso   1.000  O
  O51      1.0000 0.49142  0.89161  0.47983  Biso   1.000  O
  O52      1.0000 0.11180  0.53150  0.26200  Biso   1.000  O
  O53      1.0000 0.46850  0.58030  0.92867  Biso   1.000  O
  O54      1.0000 0.41970  0.88820  0.59533  Biso   1.000  O
  C124     1.0000 0.10800  0.58230  0.23490  Biso   1.000  C
  C125     1.0000 0.41770  0.52570  0.90157  Biso   1.000  C
  C126     1.0000 0.47430  0.89200  0.56823  Biso   1.000  C
  C127     1.0000 0.10470  0.62740  0.31270  Biso   1.000  C
  C128     1.0000 0.37260  0.47730  0.97937  Biso   1.000  C
  C129     1.0000 0.52270  0.89530  0.64603  Biso   1.000  C
  C130     1.0000 0.09630  0.60880  0.40990  Biso   1.000  C
  C131     1.0000 0.39120  0.48750  0.07657  Biso   1.000  C
  C132     1.0000 0.51250  0.90370  0.74323  Biso   1.000  C
  H148     1.0000 0.09240  0.56680  0.42830  Biso   1.000  H
  H149     1.0000 0.43320  0.52560  0.09497  Biso   1.000  H
  H150     1.0000 0.47440  0.90760  0.76163  Biso   1.000  H
  C133     1.0000 0.09340  0.65050  0.48210  Biso   1.000  C
  C134     1.0000 0.34950  0.44290  0.14877  Biso   1.000  C
  C135     1.0000 0.55710  0.90660  0.81543  Biso   1.000  C
  H151     1.0000 0.08610  0.63620  0.54880  Biso   1.000  H
  H152     1.0000 0.36380  0.44990  0.21547  Biso   1.000  H
  H153     1.0000 0.55010  0.91390  0.88213  Biso   1.000  H
  C136     1.0000 0.10100  0.71230  0.45690  Biso   1.000  C
  C137     1.0000 0.28770  0.38870  0.12357  Biso   1.000  C
  C138     1.0000 0.61130  0.89900  0.79023  Biso   1.000  C
  H154     1.0000 0.10320  0.74270  0.50620  Biso   1.000  H
  H155     1.0000 0.25730  0.36050  0.17287  Biso   1.000  H
  H156     1.0000 0.63950  0.89680  0.83953  Biso   1.000  H
  C139     1.0000 0.10560  0.72940  0.35790  Biso   1.000  C
  C140     1.0000 0.27060  0.37620  0.02457  Biso   1.000  C
  C141     1.0000 0.62380  0.89440  0.69123  Biso   1.000  C
  H157     1.0000 0.10560  0.76930  0.33840  Biso   1.000  H
  H158     1.0000 0.23070  0.33630  0.00507  Biso   1.000  H
  H159     1.0000 0.66370  0.89440  0.67173  Biso   1.000  H
  C142     1.0000 0.11030  0.68760  0.28770  Biso   1.000  C
  C143     1.0000 0.31240  0.42270  0.95437  Biso   1.000  C
  C144     1.0000 0.57730  0.88970  0.62103  Biso   1.000  C
  H160     1.0000 0.11750  0.70150  0.22080  Biso   1.000  H
  H161     1.0000 0.29850  0.41600  0.88747  Biso   1.000  H
  H162     1.0000 0.58400  0.88250  0.55413  Biso   1.000  H
  N1       1.0000 0.35010  0.17470  0.00550  Biso   1.000  N
  N2       1.0000 0.82530  0.17540  0.67217  Biso   1.000  N
  N3       1.0000 0.82460  0.64990  0.33883  Biso   1.000  N
  N4       1.0000 0.88450  0.94370  0.98500  Biso   1.000  N
  N5       1.0000 0.05630  0.94080  0.65167  Biso   1.000  N
  N6       1.0000 0.05920  0.11550  0.31833  Biso   1.000  N
  C145     1.0000 0.31700  0.10900  0.98470  Biso   1.000  C
  C146     1.0000 0.89100  0.20800  0.65137  Biso   1.000  C
  C147     1.0000 0.79200  0.68300  0.31803  Biso   1.000  C
  H163     1.0000 0.34220  0.08820  0.96490  Biso   1.000  H
  H164     1.0000 0.91180  0.25400  0.63157  Biso   1.000  H
  H165     1.0000 0.74600  0.65780  0.29823  Biso   1.000  H
  C148     1.0000 0.24620  0.06910  0.99090  Biso   1.000  C
  C149     1.0000 0.93090  0.17710  0.65757  Biso   1.000  C
  C150     1.0000 0.82290  0.75380  0.32423  Biso   1.000  C
  H166     1.0000 0.22430  0.02210  0.97630  Biso   1.000  H
  H167     1.0000 0.97790  0.20220  0.64297  Biso   1.000  H
  H168     1.0000 0.79780  0.77570  0.30963  Biso   1.000  H
  C151     1.0000 0.20870  0.09850  0.01810  Biso   1.000  C
  C152     1.0000 0.90150  0.11020  0.68477  Biso   1.000  C
  C153     1.0000 0.88980  0.79130  0.35143  Biso   1.000  C
  C154     1.0000 0.24470  0.16690  0.03820  Biso   1.000  C
  C155     1.0000 0.83310  0.07780  0.70487  Biso   1.000  C
  C156     1.0000 0.92220  0.75530  0.37153  Biso   1.000  C
  H169     1.0000 0.22060  0.18920  0.05620  Biso   1.000  H
  H170     1.0000 0.81080  0.03140  0.72287  Biso   1.000  H
  H171     1.0000 0.96860  0.77940  0.38953  Biso   1.000  H
  C157     1.0000 0.31410  0.20410  0.03330  Biso   1.000  C
  C158     1.0000 0.79590  0.11000  0.69997  Biso   1.000  C
  C159     1.0000 0.89000  0.68590  0.36663  Biso   1.000  C
  H172     1.0000 0.33680  0.25080  0.04960  Biso   1.000  H
  H173     1.0000 0.74920  0.08600  0.71627  Biso   1.000  H
  H174     1.0000 0.91400  0.66320  0.38293  Biso   1.000  H
  C160     1.0000 0.13360  0.05640  0.02700  Biso   1.000  C
  C161     1.0000 0.94360  0.07720  0.69367  Biso   1.000  C
  C162     1.0000 0.92280  0.86640  0.36033  Biso   1.000  C
  H175     1.0000 0.11810  0.07300  0.08280  Biso   1.000  H
  H176     1.0000 0.92700  0.04510  0.74947  Biso   1.000  H
  H177     1.0000 0.95490  0.88190  0.41613  Biso   1.000  H
  H178     1.0000 0.12100  0.00900  0.04080  Biso   1.000  H
  H179     1.0000 0.99100  0.11200  0.70747  Biso   1.000  H
  H180     1.0000 0.88800  0.87900  0.37413  Biso   1.000  H
  C163     1.0000 0.09870  0.05910  0.93340  Biso   1.000  C
  C164     1.0000 0.94090  0.03960  0.60007  Biso   1.000  C
  C165     1.0000 0.96040  0.90130  0.26673  Biso   1.000  C
  H181     1.0000 0.11290  0.10670  0.91750  Biso   1.000  H
  H182     1.0000 0.89330  0.00620  0.58417  Biso   1.000  H
  H183     1.0000 0.99380  0.88710  0.25083  Biso   1.000  H
  H184     1.0000 0.11220  0.04020  0.87800  Biso   1.000  H
  H185     1.0000 0.95980  0.07200  0.54467  Biso   1.000  H
  H186     1.0000 0.92800  0.88780  0.21133  Biso   1.000  H
  C166     1.0000 0.02320  0.01920  0.94610  Biso   1.000  C
  C167     1.0000 0.98080  0.00400  0.61277  Biso   1.000  C
  C168     1.0000 0.99600  0.97680  0.27943  Biso   1.000  C
  C169     1.0000 0.98640  0.94920  0.92870  Biso   1.000  C
  C170     1.0000 0.05080  0.03720  0.59537  Biso   1.000  C
  C171     1.0000 0.96280  0.01360  0.26203  Biso   1.000  C
  H187     1.0000 0.00770  0.92590  0.90280  Biso   1.000  H
  H188     1.0000 0.07410  0.08180  0.56947  Biso   1.000  H
  H189     1.0000 0.91820  0.99230  0.23613  Biso   1.000  H
  C172     1.0000 0.91790  0.91520  0.95080  Biso   1.000  C
  C173     1.0000 0.08480  0.00270  0.61747  Biso   1.000  C
  C174     1.0000 0.99730  0.08210  0.28413  Biso   1.000  C
  H190     1.0000 0.89340  0.86770  0.94040  Biso   1.000  H
  H191     1.0000 0.13230  0.02570  0.60707  Biso   1.000  H
  H192     1.0000 0.97430  0.10660  0.27373  Biso   1.000  H
  C175     1.0000 0.91990  0.01030  0.00250  Biso   1.000  C
  C176     1.0000 0.98970  0.90960  0.66917  Biso   1.000  C
  C177     1.0000 0.09040  0.08010  0.33583  Biso   1.000  C
  H193     1.0000 0.89690  0.03160  0.02950  Biso   1.000  H
  H194     1.0000 0.96840  0.86530  0.69617  Biso   1.000  H
  H195     1.0000 0.13470  0.10310  0.36283  Biso   1.000  H
  C178     1.0000 0.98850  0.04980  0.98300  Biso   1.000  C
  C179     1.0000 0.95020  0.93870  0.64967  Biso   1.000  C
  C180     1.0000 0.06130  0.01150  0.31633  Biso   1.000  C
  H196     1.0000 0.01140  0.09720  0.99480  Biso   1.000  H
  H197     1.0000 0.90280  0.91420  0.66147  Biso   1.000  H
  H198     1.0000 0.08580  0.98860  0.32813  Biso   1.000  H
  N7       1.0000 0.68400  0.84130  0.02550  Biso   1.000  N
  N8       1.0000 0.15870  0.84270  0.69217  Biso   1.000  N
  N9       1.0000 0.15730  0.31600  0.35883  Biso   1.000  N
  N10      1.0000 0.21800  0.60790  0.04370  Biso   1.000  N
  N11      1.0000 0.39210  0.61010  0.71037  Biso   1.000  N
  N12      1.0000 0.38990  0.78200  0.37703  Biso   1.000  N
  C181     1.0000 0.64620  0.77490  0.00090  Biso   1.000  C
  C182     1.0000 0.22510  0.87130  0.66757  Biso   1.000  C
  C183     1.0000 0.12870  0.35380  0.33423  Biso   1.000  C
  H199     1.0000 0.66860  0.75060  0.98510  Biso   1.000  H
  H200     1.0000 0.24940  0.91800  0.65177  Biso   1.000  H
  H201     1.0000 0.08200  0.33140  0.31843  Biso   1.000  H
  C184     1.0000 0.57760  0.74200  0.99790  Biso   1.000  C
  C185     1.0000 0.25800  0.83560  0.66457  Biso   1.000  C
  C186     1.0000 0.16440  0.42240  0.33123  Biso   1.000  C
  H202     1.0000 0.55270  0.69530  0.98170  Biso   1.000  H
  H203     1.0000 0.30470  0.85740  0.64837  Biso   1.000  H
  H204     1.0000 0.14260  0.44730  0.31503  Biso   1.000  H
  C187     1.0000 0.54400  0.77730  0.01870  Biso   1.000  C
  C188     1.0000 0.22270  0.76670  0.68537  Biso   1.000  C
  C189     1.0000 0.23330  0.45600  0.35203  Biso   1.000  C
  C190     1.0000 0.58220  0.84540  0.04590  Biso   1.000  C
  C191     1.0000 0.15460  0.73680  0.71257  Biso   1.000  C
  C192     1.0000 0.26320  0.41780  0.37923  Biso   1.000  C
  H205     1.0000 0.56110  0.87090  0.06250  Biso   1.000  H
  H206     1.0000 0.12910  0.69020  0.72917  Biso   1.000  H
  H207     1.0000 0.30980  0.43890  0.39583  Biso   1.000  H
  C193     1.0000 0.65100  0.87390  0.04750  Biso   1.000  C
  C194     1.0000 0.12610  0.77710  0.71417  Biso   1.000  C
  C195     1.0000 0.22290  0.34900  0.38083  Biso   1.000  C
  H208     1.0000 0.67710  0.92020  0.06560  Biso   1.000  H
  H209     1.0000 0.07980  0.75690  0.73227  Biso   1.000  H
  H210     1.0000 0.24310  0.32290  0.39893  Biso   1.000  H
  C196     1.0000 0.46660  0.74290  0.00790  Biso   1.000  C
  C197     1.0000 0.25710  0.72370  0.67457  Biso   1.000  C
  C198     1.0000 0.27630  0.53340  0.34123  Biso   1.000  C
  H211     1.0000 0.45350  0.77720  0.99310  Biso   1.000  H
  H212     1.0000 0.22280  0.67630  0.65977  Biso   1.000  H
  H213     1.0000 0.32370  0.54650  0.32643  Biso   1.000  H
  H214     1.0000 0.45140  0.71010  0.95290  Biso   1.000  H
  H215     1.0000 0.28990  0.74130  0.61957  Biso   1.000  H
  H216     1.0000 0.25870  0.54860  0.28623  Biso   1.000  H
  C199     1.0000 0.43380  0.70690  0.10200  Biso   1.000  C
  C200     1.0000 0.29310  0.72690  0.76867  Biso   1.000  C
  C201     1.0000 0.27310  0.56620  0.43533  Biso   1.000  C
  H217     1.0000 0.44700  0.73980  0.15660  Biso   1.000  H
  H218     1.0000 0.26020  0.70720  0.82327  Biso   1.000  H
  H219     1.0000 0.29280  0.55300  0.48993  Biso   1.000  H
  H220     1.0000 0.44830  0.67390  0.11860  Biso   1.000  H
  H221     1.0000 0.32610  0.77440  0.78527  Biso   1.000  H
  H222     1.0000 0.22560  0.55170  0.45193  Biso   1.000  H
  C202     1.0000 0.35730  0.67040  0.08730  Biso   1.000  C
  C203     1.0000 0.32960  0.68690  0.75397  Biso   1.000  C
  C204     1.0000 0.31310  0.64270  0.42063  Biso   1.000  C
  C205     1.0000 0.32180  0.60530  0.05050  Biso   1.000  C
  C206     1.0000 0.39470  0.71650  0.71717  Biso   1.000  C
  C207     1.0000 0.28350  0.67820  0.38383  Biso   1.000  C
  H223     1.0000 0.34460  0.58070  0.03940  Biso   1.000  H
  H224     1.0000 0.41930  0.76390  0.70607  Biso   1.000  H
  H225     1.0000 0.23610  0.65540  0.37273  Biso   1.000  H
  C208     1.0000 0.25260  0.57520  0.02950  Biso   1.000  C
  C209     1.0000 0.42480  0.67740  0.69617  Biso   1.000  C
  C210     1.0000 0.32260  0.74740  0.36283  Biso   1.000  C
  H226     1.0000 0.22940  0.53030  0.00450  Biso   1.000  H
  H227     1.0000 0.46970  0.69910  0.67117  Biso   1.000  H
  H228     1.0000 0.30090  0.77060  0.33783  Biso   1.000  H
  C211     1.0000 0.25200  0.66980  0.08070  Biso   1.000  C
  C212     1.0000 0.33020  0.58220  0.74737  Biso   1.000  C
  C213     1.0000 0.41780  0.74800  0.41403  Biso   1.000  C
  H229     1.0000 0.22770  0.69270  0.09410  Biso   1.000  H
  H230     1.0000 0.30730  0.53500  0.76077  Biso   1.000  H
  H231     1.0000 0.46500  0.77230  0.42743  Biso   1.000  H
  C214     1.0000 0.32010  0.70310  0.10100  Biso   1.000  C
  C215     1.0000 0.29690  0.61700  0.76767  Biso   1.000  C
  C216     1.0000 0.38300  0.67990  0.43433  Biso   1.000  C
  H232     1.0000 0.34180  0.74840  0.12440  Biso   1.000  H
  H233     1.0000 0.25160  0.59340  0.79107  Biso   1.000  H
  H234     1.0000 0.40660  0.65820  0.45773  Biso   1.000  H
  N13      1.0000 0.01720  0.51000  0.00900  Biso   1.000  N
  N14      1.0000 0.49000  0.50720  0.67567  Biso   1.000  N
  N15      1.0000 0.49280  0.98280  0.34233  Biso   1.000  N
  N16      1.0000 0.55072  0.27480  0.01020  Biso   1.000  N
  N17      1.0000 0.72520  0.27592  0.67687  Biso   1.000  N
  N18      1.0000 0.72408  0.44928  0.34353  Biso   1.000  N
  C217     1.0000 0.58680  0.24210  0.98960  Biso   1.000  C
  C218     1.0000 0.75790  0.34470  0.65627  Biso   1.000  C
  C219     1.0000 0.65530  0.41320  0.32293  Biso   1.000  C
  H235     1.0000 0.56400  0.19700  0.96540  Biso   1.000  H
  H236     1.0000 0.80300  0.36700  0.63207  Biso   1.000  H
  H237     1.0000 0.63300  0.43600  0.29873  Biso   1.000  H
  C220     1.0000 0.65640  0.27540  0.00420  Biso   1.000  C
  C221     1.0000 0.72460  0.38100  0.67087  Biso   1.000  C
  C222     1.0000 0.61900  0.34360  0.33753  Biso   1.000  C
  H238     1.0000 0.68110  0.25310  0.99010  Biso   1.000  H
  H239     1.0000 0.74690  0.42800  0.65677  Biso   1.000  H
  H240     1.0000 0.57200  0.31890  0.32343  Biso   1.000  H
  C223     1.0000 0.68980  0.34140  0.03950  Biso   1.000  C
  C224     1.0000 0.65860  0.34840  0.70617  Biso   1.000  C
  C225     1.0000 0.65160  0.31020  0.37283  Biso   1.000  C
  C226     1.0000 0.65370  0.37410  0.06010  Biso   1.000  C
  C227     1.0000 0.62590  0.27960  0.72677  Biso   1.000  C
  C228     1.0000 0.72040  0.34630  0.39343  Biso   1.000  C
  H241     1.0000 0.67660  0.41920  0.08420  Biso   1.000  H
  H242     1.0000 0.58080  0.25740  0.75087  Biso   1.000  H
  H243     1.0000 0.74260  0.32340  0.41753  Biso   1.000  H
  C229     1.0000 0.58420  0.34080  0.04550  Biso   1.000  C
  C230     1.0000 0.65920  0.24340  0.71217  Biso   1.000  C
  C231     1.0000 0.75660  0.41580  0.37883  Biso   1.000  C
  H244     1.0000 0.55950  0.36320  0.05960  Biso   1.000  H
  H245     1.0000 0.63680  0.19630  0.72627  Biso   1.000  H
  H246     1.0000 0.80370  0.44050  0.39293  Biso   1.000  H
  C232     1.0000 0.76240  0.37180  0.07950  Biso   1.000  C
  C233     1.0000 0.62820  0.39060  0.74617  Biso   1.000  C
  C234     1.0000 0.60940  0.23760  0.41283  Biso   1.000  C
  H247     1.0000 0.77230  0.40600  0.13130  Biso   1.000  H
  H248     1.0000 0.59400  0.36630  0.79797  Biso   1.000  H
  H249     1.0000 0.63370  0.22770  0.46463  Biso   1.000  H
  H250     1.0000 0.77180  0.33660  0.10460  Biso   1.000  H
  H251     1.0000 0.66340  0.43520  0.77127  Biso   1.000  H
  H252     1.0000 0.56480  0.22820  0.43793  Biso   1.000  H
  C235     1.0000 0.79920  0.40260  0.98750  Biso   1.000  C
  C236     1.0000 0.59740  0.39660  0.65417  Biso   1.000  C
  C237     1.0000 0.60340  0.20080  0.32083  Biso   1.000  C
  H253     1.0000 0.78640  0.43570  0.96380  Biso   1.000  H
  H254     1.0000 0.56430  0.35070  0.63047  Biso   1.000  H
  H255     1.0000 0.64930  0.21360  0.29713  Biso   1.000  H
  H256     1.0000 0.78520  0.36700  0.93690  Biso   1.000  H
  H257     1.0000 0.63300  0.41820  0.60357  Biso   1.000  H
  H258     1.0000 0.58180  0.21480  0.27023  Biso   1.000  H
  C238     1.0000 0.87650  0.43860  0.00000  Biso   1.000  C
  C239     1.0000 0.56140  0.43790  0.66667  Biso   1.000  C
  C240     1.0000 0.56210  0.12350  0.33333  Biso   1.000  C
  C241     1.0000 0.91390  0.40770  0.97920  Biso   1.000  C
  C242     1.0000 0.59230  0.50620  0.64587  Biso   1.000  C
  C243     1.0000 0.49380  0.08610  0.31253  Biso   1.000  C
  H259     1.0000 0.89200  0.36110  0.96230  Biso   1.000  H
  H260     1.0000 0.63890  0.53090  0.62897  Biso   1.000  H
  H261     1.0000 0.46910  0.10800  0.29563  Biso   1.000  H
  C244     1.0000 0.98240  0.44460  0.98310  Biso   1.000  C
  C245     1.0000 0.55540  0.53780  0.64977  Biso   1.000  C
  C246     1.0000 0.46220  0.01760  0.31643  Biso   1.000  C
  H262     1.0000 0.00720  0.42280  0.96650  Biso   1.000  H
  H263     1.0000 0.57720  0.58440  0.63317  Biso   1.000  H
  H264     1.0000 0.41560  0.99280  0.29983  Biso   1.000  H
  C247     1.0000 0.97990  0.53910  0.03120  Biso   1.000  C
  C248     1.0000 0.46090  0.44080  0.69787  Biso   1.000  C
  C249     1.0000 0.55920  0.02010  0.36453  Biso   1.000  C
  H265     1.0000 0.00320  0.58480  0.05270  Biso   1.000  H
  H266     1.0000 0.41520  0.41840  0.71937  Biso   1.000  H
  H267     1.0000 0.58160  0.99680  0.38603  Biso   1.000  H
  C250     1.0000 0.91110  0.50750  0.02480  Biso   1.000  C
  C251     1.0000 0.49250  0.40360  0.69147  Biso   1.000  C
  C252     1.0000 0.59640  0.08890  0.35813  Biso   1.000  C
  H268     1.0000 0.88750  0.53120  0.03670  Biso   1.000  H
  H269     1.0000 0.46880  0.35630  0.70337  Biso   1.000  H
  H270     1.0000 0.64370  0.11250  0.37003  Biso   1.000  H
