data_image0
_cell_length_a       11.582
_cell_length_b       11.659
_cell_length_c       12.451
_cell_angle_alpha    114.66
_cell_angle_beta     107.439
_cell_angle_gamma    91.639

_symmetry_space_group_name_H-M    "P 1"
_symmetry_int_tables_number       1

loop_
  _symmetry_equiv_pos_as_xyz
  'x, y, z'

loop_
  _atom_site_label
  _atom_site_occupancy
  _atom_site_fract_x
  _atom_site_fract_y
  _atom_site_fract_z
  _atom_site_thermal_displace_type
  _atom_site_B_iso_or_equiv
  _atom_site_type_symbol
  Cu1      1.0000 0.50000  0.50000  0.00000  Biso   1.000  Cu
  O1       1.0000 0.48130  0.34480  0.78250  Biso   1.000  O
  O2       1.0000 0.51870  0.65520  0.21750  Biso   1.000  O
  V1       1.0000 0.54258  0.23071  0.70487  Biso   1.000  V
  V2       1.0000 0.45742  0.76929  0.29513  Biso   1.000  V
  V3       1.0000 0.47978  0.93277  0.58750  Biso   1.000  V
  V4       1.0000 0.52022  0.06723  0.41250  Biso   1.000  V
  V5       1.0000 0.73829  0.07488  0.77596  Biso   1.000  V
  V6       1.0000 0.26171  0.92512  0.22404  Biso   1.000  V
  V7       1.0000 0.71625  0.91297  0.49635  Biso   1.000  V
  V8       1.0000 0.28375  0.08703  0.50365  Biso   1.000  V
  V9       1.0000 0.76981  0.21113  0.62063  Biso   1.000  V
  V10      1.0000 0.23019  0.78887  0.37937  Biso   1.000  V
  O3       1.0000 0.66810  0.31370  0.69210  Biso   1.000  O
  O4       1.0000 0.33190  0.68630  0.30790  Biso   1.000  O
  O5       1.0000 0.63740  0.19550  0.82770  Biso   1.000  O
  O6       1.0000 0.36260  0.80450  0.17230  Biso   1.000  O
  O7       1.0000 0.60940  0.05900  0.58760  Biso   1.000  O
  O8       1.0000 0.39060  0.94100  0.41240  Biso   1.000  O
  O9       1.0000 0.41100  0.08260  0.64770  Biso   1.000  O
  O10      1.0000 0.58900  0.91740  0.35230  Biso   1.000  O
  O11      1.0000 0.44360  0.19170  0.52510  Biso   1.000  O
  O12      1.0000 0.55640  0.80830  0.47490  Biso   1.000  O
  O13      1.0000 0.64500  0.17590  0.45430  Biso   1.000  O
  O14      1.0000 0.35500  0.82410  0.54570  Biso   1.000  O
  O15      1.0000 0.57750  0.94610  0.72260  Biso   1.000  O
  O16      1.0000 0.42250  0.05390  0.27740  Biso   1.000  O
  O17      1.0000 0.81640  0.06980  0.90360  Biso   1.000  O
  O18      1.0000 0.18360  0.93020  0.09640  Biso   1.000  O
  O19      1.0000 0.81130  0.05110  0.52710  Biso   1.000  O
  O20      1.0000 0.18870  0.94890  0.47290  Biso   1.000  O
  O21      1.0000 0.77860  0.79640  0.42640  Biso   1.000  O
  O22      1.0000 0.22140  0.20360  0.57360  Biso   1.000  O
  O23      1.0000 0.87350  0.31100  0.63080  Biso   1.000  O
  O24      1.0000 0.12650  0.68900  0.36920  Biso   1.000  O
  O25      1.0000 0.77590  0.93230  0.65980  Biso   1.000  O
  O26      1.0000 0.22410  0.06770  0.34020  Biso   1.000  O
  O27      1.0000 0.83630  0.18660  0.76340  Biso   1.000  O
  O28      1.0000 0.16370  0.81340  0.23660  Biso   1.000  O
  Cu2      1.0000 0.00000  0.00000  0.00000  Biso   1.000  Cu
  N1       1.0000 0.49920  0.63690  0.94270  Biso   1.000  N
  N2       1.0000 0.50080  0.36310  0.05730  Biso   1.000  N
  N3       1.0000 0.44160  0.73750  0.97230  Biso   1.000  N
  N4       1.0000 0.55840  0.26250  0.02770  Biso   1.000  N
  H1       1.0000 0.40030  0.75540  0.02260  Biso   1.000  H
  H2       1.0000 0.59970  0.24460  0.97740  Biso   1.000  H
  N5       1.0000 0.31560  0.46190  0.93980  Biso   1.000  N
  N6       1.0000 0.68440  0.53810  0.06020  Biso   1.000  N
  N7       1.0000 0.25630  0.34710  0.84270  Biso   1.000  N
  N8       1.0000 0.74370  0.65290  0.15730  Biso   1.000  N
  H3       1.0000 0.29220  0.29140  0.79970  Biso   1.000  H
  H4       1.0000 0.70780  0.70860  0.20030  Biso   1.000  H
  N9       1.0000 0.91930  0.81760  0.88810  Biso   1.000  N
  N10      1.0000 0.08070  0.18240  0.11190  Biso   1.000  N
  N11      1.0000 0.83460  0.76910  0.77290  Biso   1.000  N
  N12      1.0000 0.16540  0.23090  0.22710  Biso   1.000  N
  H5       1.0000 0.80830  0.81210  0.73160  Biso   1.000  H
  H6       1.0000 0.19170  0.18790  0.26840  Biso   1.000  H
  N13      1.0000 0.08240  0.00150  0.87790  Biso   1.000  N
  N14      1.0000 0.91760  0.99850  0.12210  Biso   1.000  N
  N15      1.0000 0.03100  0.97530  0.75630  Biso   1.000  N
  N16      1.0000 0.96900  0.02470  0.24370  Biso   1.000  N
  H7       1.0000 0.95310  0.95660  0.71610  Biso   1.000  H
  H8       1.0000 0.04690  0.04340  0.28390  Biso   1.000  H
  N17      1.0000 0.24780  0.52990  0.60510  Biso   1.000  N
  N18      1.0000 0.75220  0.47010  0.39490  Biso   1.000  N
  H9       1.0000 0.31020  0.50620  0.58320  Biso   1.000  H
  H10      1.0000 0.68980  0.49380  0.41680  Biso   1.000  H
  N19      1.0000 0.16950  0.45900  0.62270  Biso   1.000  N
  N20      1.0000 0.83050  0.54100  0.37730  Biso   1.000  N
  H11      1.0000 0.17270  0.38150  0.61200  Biso   1.000  H
  H12      1.0000 0.82730  0.61850  0.38800  Biso   1.000  H
  C1       1.0000 0.45680  0.80660  0.91320  Biso   1.000  C
  C2       1.0000 0.54320  0.19340  0.08680  Biso   1.000  C
  H13      1.0000 0.42640  0.88160  0.92070  Biso   1.000  H
  H14      1.0000 0.57360  0.11840  0.07930  Biso   1.000  H
  C3       1.0000 0.52360  0.74900  0.84110  Biso   1.000  C
  C4       1.0000 0.47640  0.25100  0.15890  Biso   1.000  C
  H15      1.0000 0.54710  0.77380  0.78770  Biso   1.000  H
  H16      1.0000 0.45290  0.22620  0.21230  Biso   1.000  H
  C5       1.0000 0.55000  0.64420  0.86370  Biso   1.000  C
  C6       1.0000 0.45000  0.35580  0.13630  Biso   1.000  C
  H17      1.0000 0.59720  0.58670  0.82790  Biso   1.000  H
  H18      1.0000 0.40280  0.41330  0.17210  Biso   1.000  H
  C7       1.0000 0.13580  0.33020  0.82130  Biso   1.000  C
  C8       1.0000 0.86420  0.66980  0.17870  Biso   1.000  C
  H19      1.0000 0.07780  0.25860  0.75900  Biso   1.000  H
  H20      1.0000 0.92220  0.74140  0.24100  Biso   1.000  H
  C9       1.0000 0.11440  0.43440  0.90550  Biso   1.000  C
  C10      1.0000 0.88560  0.56560  0.09450  Biso   1.000  C
  H21      1.0000 0.03870  0.45020  0.91450  Biso   1.000  H
  H22      1.0000 0.96130  0.54980  0.08550  Biso   1.000  H
  C11      1.0000 0.22740  0.51590  0.97790  Biso   1.000  C
  C12      1.0000 0.77260  0.48410  0.02210  Biso   1.000  C
  H23      1.0000 0.23920  0.59690  0.04390  Biso   1.000  H
  H24      1.0000 0.76080  0.40310  0.95610  Biso   1.000  H
  C13      1.0000 0.79670  0.64340  0.73130  Biso   1.000  C
  C14      1.0000 0.20330  0.35660  0.26870  Biso   1.000  C
  H25      1.0000 0.73810  0.58910  0.65390  Biso   1.000  H
  H26      1.0000 0.26190  0.41090  0.34610  Biso   1.000  H
  C15      1.0000 0.85730  0.61000  0.81970  Biso   1.000  C
  C16      1.0000 0.14270  0.39000  0.18030  Biso   1.000  C
  H27      1.0000 0.85020  0.52860  0.81600  Biso   1.000  H
  H28      1.0000 0.14980  0.47140  0.18400  Biso   1.000  H
  C17      1.0000 0.93320  0.72120  0.91860  Biso   1.000  C
  C18      1.0000 0.06680  0.27880  0.08140  Biso   1.000  C
  H29      1.0000 0.98570  0.72740  0.99460  Biso   1.000  H
  H30      1.0000 0.01430  0.27260  0.00540  Biso   1.000  H
  C19      1.0000 0.11550  0.98190  0.70600  Biso   1.000  C
  C20      1.0000 0.88450  0.01810  0.29400  Biso   1.000  C
  H31      1.0000 0.10040  0.96770  0.62330  Biso   1.000  H
  H32      1.0000 0.89960  0.03230  0.37670  Biso   1.000  H
  C21      1.0000 0.22710  0.01270  0.79530  Biso   1.000  C
  C22      1.0000 0.77290  0.98730  0.20470  Biso   1.000  C
  H33      1.0000 0.30360  0.02330  0.78740  Biso   1.000  H
  H34      1.0000 0.69640  0.97670  0.21260  Biso   1.000  H
  C23      1.0000 0.20280  0.02490  0.90060  Biso   1.000  C
  C24      1.0000 0.79720  0.97510  0.09940  Biso   1.000  C
  H35      1.0000 0.26290  0.04690  0.97820  Biso   1.000  H
  H36      1.0000 0.73710  0.95310  0.02180  Biso   1.000  H
  C25      1.0000 0.08670  0.52530  0.65890  Biso   1.000  C
  C26      1.0000 0.91330  0.47470  0.34110  Biso   1.000  C
  H37      1.0000 0.02270  0.49690  0.67740  Biso   1.000  H
  H38      1.0000 0.97730  0.50310  0.32260  Biso   1.000  H
  C27      1.0000 0.11180  0.64360  0.66440  Biso   1.000  C
  C28      1.0000 0.88820  0.35640  0.33560  Biso   1.000  C
  H39      1.0000 0.06930  0.71110  0.68840  Biso   1.000  H
  H40      1.0000 0.93070  0.28890  0.31160  Biso   1.000  H
  C29      1.0000 0.21360  0.64230  0.62680  Biso   1.000  C
  C30      1.0000 0.78640  0.35770  0.37320  Biso   1.000  C
  H41      1.0000 0.25080  0.70840  0.61850  Biso   1.000  H
  H42      1.0000 0.74920  0.29160  0.38150  Biso   1.000  H
  O29      1.0000 0.55850  0.56570  0.45620  Biso   1.000  O
  O30      1.0000 0.44150  0.43430  0.54380  Biso   1.000  O
