data_image0
_cell_length_a       7.6241
_cell_length_b       15.4069
_cell_length_c       25.531
_cell_angle_alpha    90
_cell_angle_beta     90
_cell_angle_gamma    90

_symmetry_space_group_name_H-M    "P 1"
_symmetry_int_tables_number       1

loop_
  _symmetry_equiv_pos_as_xyz
  'x, y, z'

loop_
  _atom_site_label
  _atom_site_occupancy
  _atom_site_fract_x
  _atom_site_fract_y
  _atom_site_fract_z
  _atom_site_thermal_displace_type
  _atom_site_B_iso_or_equiv
  _atom_site_type_symbol
  Cu1      1.0000 0.97563  0.23607  0.69347  Biso   1.000  Cu
  Cu2      1.0000 0.52437  0.76393  0.19347  Biso   1.000  Cu
  Cu3      1.0000 0.47563  0.26393  0.30653  Biso   1.000  Cu
  Cu4      1.0000 0.02437  0.73607  0.80653  Biso   1.000  Cu
  O1       1.0000 0.13780  0.15166  0.66444  Biso   1.000  O
  O2       1.0000 0.36220  0.84834  0.16444  Biso   1.000  O
  O3       1.0000 0.63780  0.34834  0.33556  Biso   1.000  O
  O4       1.0000 0.86220  0.65166  0.83556  Biso   1.000  O
  O5       1.0000 0.35530  0.24533  0.64787  Biso   1.000  O
  O6       1.0000 0.14470  0.75467  0.14787  Biso   1.000  O
  O7       1.0000 0.85530  0.25467  0.35213  Biso   1.000  O
  O8       1.0000 0.64470  0.74533  0.85213  Biso   1.000  O
  O9       1.0000 0.61600  0.13634  0.70815  Biso   1.000  O
  O10      1.0000 0.88400  0.86366  0.20815  Biso   1.000  O
  O11      1.0000 0.11600  0.36366  0.29185  Biso   1.000  O
  O12      1.0000 0.38400  0.63634  0.79185  Biso   1.000  O
  O13      1.0000 0.80080  0.18596  0.64686  Biso   1.000  O
  O14      1.0000 0.69920  0.81404  0.14686  Biso   1.000  O
  O15      1.0000 0.30080  0.31404  0.35314  Biso   1.000  O
  O16      1.0000 0.19920  0.68596  0.85314  Biso   1.000  O
  O17      1.0000 0.72070  0.85573  0.29651  Biso   1.000  O
  O18      1.0000 0.77930  0.14427  0.79651  Biso   1.000  O
  O19      1.0000 0.22070  0.64427  0.70349  Biso   1.000  O
  O20      1.0000 0.27930  0.35573  0.20349  Biso   1.000  O
  H1       1.0000 0.76580  0.86060  0.26750  Biso   1.000  H
  H2       1.0000 0.73420  0.13940  0.76750  Biso   1.000  H
  H3       1.0000 0.26580  0.63940  0.73250  Biso   1.000  H
  H4       1.0000 0.23420  0.36060  0.23250  Biso   1.000  H
  O21      1.0000 0.64850  0.99299  0.28309  Biso   1.000  O
  O22      1.0000 0.85150  0.00701  0.78309  Biso   1.000  O
  O23      1.0000 0.14850  0.50701  0.71691  Biso   1.000  O
  O24      1.0000 0.35150  0.49299  0.21691  Biso   1.000  O
  O25      1.0000 0.76940  0.09732  0.37035  Biso   1.000  O
  O26      1.0000 0.73060  0.90268  0.87035  Biso   1.000  O
  O27      1.0000 0.26940  0.40268  0.62965  Biso   1.000  O
  O28      1.0000 0.23060  0.59732  0.12965  Biso   1.000  O
  H5       1.0000 0.79660  0.14830  0.36610  Biso   1.000  H
  H6       1.0000 0.70340  0.85170  0.86610  Biso   1.000  H
  H7       1.0000 0.29660  0.35170  0.63390  Biso   1.000  H
  H8       1.0000 0.20340  0.64830  0.13390  Biso   1.000  H
  O29      1.0000 0.50070  0.15198  0.36922  Biso   1.000  O
  O30      1.0000 0.99930  0.84802  0.86922  Biso   1.000  O
  O31      1.0000 0.00070  0.34802  0.63078  Biso   1.000  O
  O32      1.0000 0.49930  0.65198  0.13078  Biso   1.000  O
  O33      1.0000 0.55900  0.25000  0.47350  Biso   1.000  O
  O34      1.0000 0.94100  0.75000  0.97350  Biso   1.000  O
  O35      1.0000 0.05900  0.25000  0.52650  Biso   1.000  O
  O36      1.0000 0.44100  0.75000  0.02650  Biso   1.000  O
  O37      1.0000 0.27800  0.23370  0.47330  Biso   1.000  O
  O38      1.0000 0.22200  0.76630  0.97330  Biso   1.000  O
  O39      1.0000 0.77800  0.26630  0.52670  Biso   1.000  O
  O40      1.0000 0.72200  0.73370  0.02670  Biso   1.000  O
  N1       1.0000 0.82110  0.32558  0.72504  Biso   1.000  N
  N2       1.0000 0.67890  0.67442  0.22504  Biso   1.000  N
  N3       1.0000 0.32110  0.17442  0.27496  Biso   1.000  N
  N4       1.0000 0.17890  0.82558  0.77496  Biso   1.000  N
  N5       1.0000 0.12510  0.26950  0.75500  Biso   1.000  N
  N6       1.0000 0.37490  0.73050  0.25500  Biso   1.000  N
  N7       1.0000 0.62510  0.23050  0.24500  Biso   1.000  N
  N8       1.0000 0.87490  0.76950  0.74500  Biso   1.000  N
  C1       1.0000 0.28600  0.17270  0.64548  Biso   1.000  C
  C2       1.0000 0.21400  0.82730  0.14548  Biso   1.000  C
  C3       1.0000 0.78600  0.32730  0.35452  Biso   1.000  C
  C4       1.0000 0.71400  0.67270  0.85452  Biso   1.000  C
  C5       1.0000 0.38280  0.10270  0.61621  Biso   1.000  C
  C6       1.0000 0.11720  0.89730  0.11621  Biso   1.000  C
  C7       1.0000 0.88280  0.39730  0.38379  Biso   1.000  C
  C8       1.0000 0.61720  0.60270  0.88379  Biso   1.000  C
  C9       1.0000 0.29300  0.04950  0.58175  Biso   1.000  C
  C10      1.0000 0.20700  0.95050  0.08175  Biso   1.000  C
  C11      1.0000 0.79300  0.45050  0.41825  Biso   1.000  C
  C12      1.0000 0.70700  0.54950  0.91825  Biso   1.000  C
  H9       1.0000 0.17120  0.05230  0.58020  Biso   1.000  H
  H10      1.0000 0.32880  0.94770  0.08020  Biso   1.000  H
  H11      1.0000 0.67120  0.44770  0.41980  Biso   1.000  H
  H12      1.0000 0.82880  0.55230  0.91980  Biso   1.000  H
  C13      1.0000 0.38260  0.99180  0.54943  Biso   1.000  C
  C14      1.0000 0.11740  0.00820  0.04943  Biso   1.000  C
  C15      1.0000 0.88260  0.50820  0.45057  Biso   1.000  C
  C16      1.0000 0.61740  0.49180  0.95057  Biso   1.000  C
  C17      1.0000 0.56470  0.98860  0.55274  Biso   1.000  C
  C18      1.0000 0.93530  0.01140  0.05274  Biso   1.000  C
  C19      1.0000 0.06470  0.51140  0.44726  Biso   1.000  C
  C20      1.0000 0.43530  0.48860  0.94726  Biso   1.000  C
  H13      1.0000 0.62640  0.95050  0.53140  Biso   1.000  H
  H14      1.0000 0.87360  0.04950  0.03140  Biso   1.000  H
  H15      1.0000 0.12640  0.54950  0.46860  Biso   1.000  H
  H16      1.0000 0.37360  0.45050  0.96860  Biso   1.000  H
  C21      1.0000 0.65520  0.04120  0.58718  Biso   1.000  C
  C22      1.0000 0.84480  0.95880  0.08718  Biso   1.000  C
  C23      1.0000 0.15520  0.45880  0.41282  Biso   1.000  C
  C24      1.0000 0.34480  0.54120  0.91282  Biso   1.000  C
  H17      1.0000 0.77700  0.03860  0.58860  Biso   1.000  H
  H18      1.0000 0.72300  0.96140  0.08860  Biso   1.000  H
  H19      1.0000 0.27700  0.46140  0.41140  Biso   1.000  H
  H20      1.0000 0.22300  0.53860  0.91140  Biso   1.000  H
  C25      1.0000 0.56460  0.09840  0.61996  Biso   1.000  C
  C26      1.0000 0.93540  0.90160  0.11996  Biso   1.000  C
  C27      1.0000 0.06460  0.40160  0.38004  Biso   1.000  C
  C28      1.0000 0.43540  0.59840  0.88004  Biso   1.000  C
  C29      1.0000 0.66690  0.14480  0.66209  Biso   1.000  C
  C30      1.0000 0.83310  0.85520  0.16209  Biso   1.000  C
  C31      1.0000 0.16690  0.35520  0.33791  Biso   1.000  C
  C32      1.0000 0.33310  0.64480  0.83791  Biso   1.000  C
  C33      1.0000 0.65010  0.92880  0.30989  Biso   1.000  C
  C34      1.0000 0.84990  0.07120  0.80989  Biso   1.000  C
  C35      1.0000 0.15010  0.57120  0.69011  Biso   1.000  C
  C36      1.0000 0.34990  0.42880  0.19011  Biso   1.000  C
  C37      1.0000 0.56520  0.92720  0.36302  Biso   1.000  C
  C38      1.0000 0.93480  0.07280  0.86302  Biso   1.000  C
  C39      1.0000 0.06520  0.57280  0.63698  Biso   1.000  C
  C40      1.0000 0.43480  0.42720  0.13698  Biso   1.000  C
  C41      1.0000 0.50430  0.84970  0.38359  Biso   1.000  C
  C42      1.0000 0.99570  0.15030  0.88359  Biso   1.000  C
  C43      1.0000 0.00430  0.65030  0.61641  Biso   1.000  C
  C44      1.0000 0.49570  0.34970  0.11641  Biso   1.000  C
  H21      1.0000 0.52290  0.79850  0.36520  Biso   1.000  H
  H22      1.0000 0.97710  0.20150  0.86520  Biso   1.000  H
  H23      1.0000 0.02290  0.70150  0.63480  Biso   1.000  H
  H24      1.0000 0.47710  0.29850  0.13480  Biso   1.000  H
  C45      1.0000 0.41630  0.84700  0.43111  Biso   1.000  C
  C46      1.0000 0.08370  0.15300  0.93111  Biso   1.000  C
  C47      1.0000 0.91630  0.65300  0.56889  Biso   1.000  C
  C48      1.0000 0.58370  0.34700  0.06889  Biso   1.000  C
  H25      1.0000 0.37630  0.79420  0.44410  Biso   1.000  H
  H26      1.0000 0.12370  0.20580  0.94410  Biso   1.000  H
  H27      1.0000 0.87630  0.70580  0.55590  Biso   1.000  H
  H28      1.0000 0.62370  0.29420  0.05590  Biso   1.000  H
  C49      1.0000 0.38750  0.92270  0.45929  Biso   1.000  C
  C50      1.0000 0.11250  0.07730  0.95929  Biso   1.000  C
  C51      1.0000 0.88750  0.57730  0.54071  Biso   1.000  C
  C52      1.0000 0.61250  0.42270  0.04071  Biso   1.000  C
  C53      1.0000 0.44630  0.00080  0.43845  Biso   1.000  C
  C54      1.0000 0.05370  0.99920  0.93845  Biso   1.000  C
  C55      1.0000 0.94630  0.49920  0.56155  Biso   1.000  C
  C56      1.0000 0.55370  0.50080  0.06155  Biso   1.000  C
  H29      1.0000 0.42540  0.05210  0.45660  Biso   1.000  H
  H30      1.0000 0.07460  0.94790  0.95660  Biso   1.000  H
  H31      1.0000 0.92540  0.44790  0.54340  Biso   1.000  H
  H32      1.0000 0.57460  0.55210  0.04340  Biso   1.000  H
  C57      1.0000 0.53570  0.00360  0.39112  Biso   1.000  C
  C58      1.0000 0.96430  0.99640  0.89112  Biso   1.000  C
  C59      1.0000 0.03570  0.49640  0.60888  Biso   1.000  C
  C60      1.0000 0.46430  0.50360  0.10888  Biso   1.000  C
  C61      1.0000 0.59910  0.09100  0.37423  Biso   1.000  C
  C62      1.0000 0.90090  0.90900  0.87423  Biso   1.000  C
  C63      1.0000 0.09910  0.40900  0.62577  Biso   1.000  C
  C64      1.0000 0.40090  0.59100  0.12577  Biso   1.000  C
  C65      1.0000 0.09930  0.94980  0.50035  Biso   1.000  C
  C66      1.0000 0.40070  0.05020  0.00035  Biso   1.000  C
  C67      1.0000 0.59930  0.55020  0.49965  Biso   1.000  C
  C68      1.0000 0.90070  0.44980  0.99965  Biso   1.000  C
  C69      1.0000 0.29080  0.92670  0.51238  Biso   1.000  C
  C70      1.0000 0.20920  0.07330  0.01238  Biso   1.000  C
  C71      1.0000 0.79080  0.57330  0.48762  Biso   1.000  C
  C72      1.0000 0.70920  0.42670  0.98762  Biso   1.000  C
  C73      1.0000 0.29390  0.83840  0.54100  Biso   1.000  C
  C74      1.0000 0.20610  0.16160  0.04100  Biso   1.000  C
  C75      1.0000 0.79390  0.66160  0.45900  Biso   1.000  C
  C76      1.0000 0.70610  0.33840  0.95900  Biso   1.000  C
  C77      1.0000 0.66850  0.35200  0.70574  Biso   1.000  C
  C78      1.0000 0.83150  0.64800  0.20574  Biso   1.000  C
  C79      1.0000 0.16850  0.14800  0.29426  Biso   1.000  C
  C80      1.0000 0.33150  0.85200  0.79426  Biso   1.000  C
  H33      1.0000 0.62030  0.32170  0.67770  Biso   1.000  H
  H34      1.0000 0.87970  0.67830  0.17770  Biso   1.000  H
  H35      1.0000 0.12030  0.17830  0.32230  Biso   1.000  H
  H36      1.0000 0.37970  0.82170  0.82230  Biso   1.000  H
  C81      1.0000 0.57840  0.42250  0.72533  Biso   1.000  C
  C82      1.0000 0.92160  0.57750  0.22533  Biso   1.000  C
  C83      1.0000 0.07840  0.07750  0.27467  Biso   1.000  C
  C84      1.0000 0.42160  0.92250  0.77467  Biso   1.000  C
  H37      1.0000 0.47150  0.43910  0.71090  Biso   1.000  H
  H38      1.0000 0.02850  0.56090  0.21090  Biso   1.000  H
  H39      1.0000 0.97150  0.06090  0.28910  Biso   1.000  H
  H40      1.0000 0.52850  0.93910  0.78910  Biso   1.000  H
  C85      1.0000 0.64910  0.46730  0.76630  Biso   1.000  C
  C86      1.0000 0.85090  0.53270  0.26630  Biso   1.000  C
  C87      1.0000 0.14910  0.03270  0.23370  Biso   1.000  C
  C88      1.0000 0.35090  0.96730  0.73370  Biso   1.000  C
  H41      1.0000 0.59050  0.51480  0.78040  Biso   1.000  H
  H42      1.0000 0.90950  0.48520  0.28040  Biso   1.000  H
  H43      1.0000 0.09050  0.98520  0.21960  Biso   1.000  H
  H44      1.0000 0.40950  0.01480  0.71960  Biso   1.000  H
  C89      1.0000 0.80750  0.44150  0.78648  Biso   1.000  C
  C90      1.0000 0.69250  0.55850  0.28648  Biso   1.000  C
  C91      1.0000 0.30750  0.05850  0.21352  Biso   1.000  C
  C92      1.0000 0.19250  0.94150  0.71352  Biso   1.000  C
  H45      1.0000 0.85780  0.47200  0.81410  Biso   1.000  H
  H46      1.0000 0.64220  0.52800  0.31410  Biso   1.000  H
  H47      1.0000 0.35780  0.02800  0.18590  Biso   1.000  H
  H48      1.0000 0.14220  0.97200  0.68590  Biso   1.000  H
  C93      1.0000 0.89200  0.37040  0.76573  Biso   1.000  C
  C94      1.0000 0.60800  0.62960  0.26573  Biso   1.000  C
  C95      1.0000 0.39200  0.12960  0.23427  Biso   1.000  C
  C96      1.0000 0.10800  0.87040  0.73427  Biso   1.000  C
  C97      1.0000 0.06290  0.33730  0.78264  Biso   1.000  C
  C98      1.0000 0.43710  0.66270  0.28264  Biso   1.000  C
  C99      1.0000 0.56290  0.16270  0.21736  Biso   1.000  C
  C100     1.0000 0.93710  0.83730  0.71736  Biso   1.000  C
  C101     1.0000 0.15540  0.36920  0.82521  Biso   1.000  C
  C102     1.0000 0.34460  0.63080  0.32521  Biso   1.000  C
  C103     1.0000 0.65540  0.13080  0.17479  Biso   1.000  C
  C104     1.0000 0.84460  0.86920  0.67479  Biso   1.000  C
  H49      1.0000 0.11140  0.41580  0.84430  Biso   1.000  H
  H50      1.0000 0.38860  0.58420  0.34430  Biso   1.000  H
  H51      1.0000 0.61140  0.08420  0.15570  Biso   1.000  H
  H52      1.0000 0.88860  0.91580  0.65570  Biso   1.000  H
  C105     1.0000 0.31110  0.33200  0.83916  Biso   1.000  C
  C106     1.0000 0.18890  0.66800  0.33916  Biso   1.000  C
  C107     1.0000 0.81110  0.16800  0.16084  Biso   1.000  C
  C108     1.0000 0.68890  0.83200  0.66084  Biso   1.000  C
  H53      1.0000 0.37460  0.35350  0.86740  Biso   1.000  H
  H54      1.0000 0.12540  0.64650  0.36740  Biso   1.000  H
  H55      1.0000 0.87460  0.14650  0.13260  Biso   1.000  H
  H56      1.0000 0.62540  0.85350  0.63260  Biso   1.000  H
  C109     1.0000 0.37250  0.26310  0.81126  Biso   1.000  C
  C110     1.0000 0.12750  0.73690  0.31126  Biso   1.000  C
  C111     1.0000 0.87250  0.23690  0.18874  Biso   1.000  C
  C112     1.0000 0.62750  0.76310  0.68874  Biso   1.000  C
  H57      1.0000 0.47760  0.23650  0.82040  Biso   1.000  H
  H58      1.0000 0.02240  0.76350  0.32040  Biso   1.000  H
  H59      1.0000 0.97760  0.26350  0.17960  Biso   1.000  H
  H60      1.0000 0.52240  0.73650  0.67960  Biso   1.000  H
  C113     1.0000 0.27680  0.23370  0.76947  Biso   1.000  C
  C114     1.0000 0.22320  0.76630  0.26947  Biso   1.000  C
  C115     1.0000 0.77680  0.26630  0.23053  Biso   1.000  C
  C116     1.0000 0.72320  0.73370  0.73053  Biso   1.000  C
  H61      1.0000 0.31940  0.18680  0.75040  Biso   1.000  H
  H62      1.0000 0.18060  0.81320  0.25040  Biso   1.000  H
  H63      1.0000 0.81940  0.31320  0.24960  Biso   1.000  H
  H64      1.0000 0.68060  0.68680  0.74960  Biso   1.000  H
  F1       1.0000 0.03460  0.90030  0.46226  Biso   1.000  F
  F2       1.0000 0.46540  0.09970  0.96226  Biso   1.000  F
  F3       1.0000 0.53460  0.59970  0.53774  Biso   1.000  F
  F4       1.0000 0.96540  0.40030  0.03774  Biso   1.000  F
  F5       1.0000 0.08520  0.03188  0.48466  Biso   1.000  F
  F6       1.0000 0.41480  0.96812  0.98466  Biso   1.000  F
  F7       1.0000 0.58520  0.46812  0.51534  Biso   1.000  F
  F8       1.0000 0.91480  0.53188  0.01534  Biso   1.000  F
  F9       1.0000 0.99280  0.93998  0.54171  Biso   1.000  F
  F10      1.0000 0.50720  0.06002  0.04171  Biso   1.000  F
  F11      1.0000 0.49280  0.56002  0.45829  Biso   1.000  F
  F12      1.0000 0.00720  0.43998  0.95829  Biso   1.000  F
  F13      1.0000 0.19690  0.77752  0.51803  Biso   1.000  F
  F14      1.0000 0.30310  0.22248  0.01803  Biso   1.000  F
  F15      1.0000 0.69690  0.72248  0.48197  Biso   1.000  F
  F16      1.0000 0.80310  0.27752  0.98197  Biso   1.000  F
  F17      1.0000 0.23480  0.84596  0.59023  Biso   1.000  F
  F18      1.0000 0.26520  0.15404  0.09023  Biso   1.000  F
  F19      1.0000 0.73480  0.65404  0.40977  Biso   1.000  F
  F20      1.0000 0.76520  0.34596  0.90977  Biso   1.000  F
  F21      1.0000 0.45530  0.80621  0.54451  Biso   1.000  F
  F22      1.0000 0.04470  0.19379  0.04451  Biso   1.000  F
  F23      1.0000 0.95530  0.69379  0.45549  Biso   1.000  F
  F24      1.0000 0.54470  0.30621  0.95549  Biso   1.000  F
