data_image0
_cell_length_a       9.746
_cell_length_b       10.483
_cell_length_c       11.095
_cell_angle_alpha    69.564
_cell_angle_beta     65.092
_cell_angle_gamma    62.958

_symmetry_space_group_name_H-M    "P 1"
_symmetry_int_tables_number       1

loop_
  _symmetry_equiv_pos_as_xyz
  'x, y, z'

loop_
  _atom_site_label
  _atom_site_occupancy
  _atom_site_fract_x
  _atom_site_fract_y
  _atom_site_fract_z
  _atom_site_thermal_displace_type
  _atom_site_B_iso_or_equiv
  _atom_site_type_symbol
  C1       1.0000 0.33920  0.74440  0.07330  Biso   1.000  C
  C2       1.0000 0.66080  0.25560  0.92670  Biso   1.000  C
  C3       1.0000 0.24430  0.89070  0.11120  Biso   1.000  C
  C4       1.0000 0.75570  0.10930  0.88880  Biso   1.000  C
  C5       1.0000 0.32120  0.96550  0.12600  Biso   1.000  C
  C6       1.0000 0.67880  0.03450  0.87400  Biso   1.000  C
  H1       1.0000 0.43260  0.92510  0.11080  Biso   1.000  H
  H2       1.0000 0.56740  0.07490  0.88920  Biso   1.000  H
  C7       1.0000 0.23050  0.10140  0.16370  Biso   1.000  C
  C8       1.0000 0.76950  0.89860  0.83630  Biso   1.000  C
  H3       1.0000 0.28140  0.15200  0.17360  Biso   1.000  H
  H4       1.0000 0.71860  0.84800  0.82640  Biso   1.000  H
  C9       1.0000 0.06690  0.15980  0.18610  Biso   1.000  C
  C10      1.0000 0.93310  0.84020  0.81390  Biso   1.000  C
  H5       1.0000 0.00650  0.24980  0.21260  Biso   1.000  H
  H6       1.0000 0.99350  0.75020  0.78740  Biso   1.000  H
  C11      1.0000 0.99050  0.08730  0.17000  Biso   1.000  C
  C12      1.0000 0.00950  0.91270  0.83000  Biso   1.000  C
  H7       1.0000 0.87910  0.12820  0.18500  Biso   1.000  H
  H8       1.0000 0.12090  0.87180  0.81500  Biso   1.000  H
  C13      1.0000 0.07880  0.95450  0.13170  Biso   1.000  C
  C14      1.0000 0.92120  0.04550  0.86830  Biso   1.000  C
  H9       1.0000 0.02700  0.90650  0.11920  Biso   1.000  H
  H10      1.0000 0.97300  0.09350  0.88080  Biso   1.000  H
  C15      1.0000 0.54570  0.63350  0.75450  Biso   1.000  C
  C16      1.0000 0.45430  0.36650  0.24550  Biso   1.000  C
  C17      1.0000 0.56330  0.71180  0.60900  Biso   1.000  C
  C18      1.0000 0.43670  0.28820  0.39100  Biso   1.000  C
  C19      1.0000 0.66690  0.78970  0.54630  Biso   1.000  C
  C20      1.0000 0.33310  0.21030  0.45370  Biso   1.000  C
  H11      1.0000 0.72390  0.79280  0.59390  Biso   1.000  H
  H12      1.0000 0.27610  0.20720  0.40610  Biso   1.000  H
  C21      1.0000 0.68530  0.86290  0.41240  Biso   1.000  C
  C22      1.0000 0.31470  0.13710  0.58760  Biso   1.000  C
  H13      1.0000 0.75470  0.91500  0.37050  Biso   1.000  H
  H14      1.0000 0.24530  0.08500  0.62950  Biso   1.000  H
  C23      1.0000 0.60020  0.85820  0.34120  Biso   1.000  C
  C24      1.0000 0.39980  0.14180  0.65880  Biso   1.000  C
  H15      1.0000 0.61250  0.90710  0.25160  Biso   1.000  H
  H16      1.0000 0.38750  0.09290  0.74840  Biso   1.000  H
  C25      1.0000 0.49650  0.78030  0.40390  Biso   1.000  C
  C26      1.0000 0.50350  0.21970  0.59610  Biso   1.000  C
  H17      1.0000 0.43950  0.77710  0.35630  Biso   1.000  H
  H18      1.0000 0.56050  0.22290  0.64370  Biso   1.000  H
  C27      1.0000 0.47810  0.70710  0.53780  Biso   1.000  C
  C28      1.0000 0.52190  0.29290  0.46220  Biso   1.000  C
  H19      1.0000 0.40880  0.65500  0.57980  Biso   1.000  H
  H20      1.0000 0.59120  0.34500  0.42020  Biso   1.000  H
  C29      1.0000 0.14120  0.44050  0.91180  Biso   1.000  C
  C30      1.0000 0.85880  0.55950  0.08820  Biso   1.000  C
  H21      1.0000 0.23840  0.39730  0.84870  Biso   1.000  H
  H22      1.0000 0.76160  0.60270  0.15130  Biso   1.000  H
  C31      1.0000 0.00050  0.55520  0.08960  Biso   1.000  C
  C32      1.0000 0.99950  0.44480  0.91040  Biso   1.000  C
  H23      1.0000 0.99670  0.59460  0.15470  Biso   1.000  H
  H24      1.0000 0.00330  0.40540  0.84530  Biso   1.000  H
  Cu1      1.0000 0.36843  0.49404  0.00217  Biso   1.000  Cu
  Cu2      1.0000 0.63157  0.50596  0.99783  Biso   1.000  Cu
  N1       1.0000 0.14320  0.49710  0.00160  Biso   1.000  N
  N2       1.0000 0.85680  0.50290  0.99840  Biso   1.000  N
  O1       1.0000 0.64740  0.60930  0.80880  Biso   1.000  O
  O2       1.0000 0.35260  0.39070  0.19120  Biso   1.000  O
  O3       1.0000 0.26460  0.68240  0.05980  Biso   1.000  O
  O4       1.0000 0.73540  0.31760  0.94020  Biso   1.000  O
  O5       1.0000 0.42440  0.59660  0.81250  Biso   1.000  O
  O6       1.0000 0.57560  0.40340  0.18750  Biso   1.000  O
  O7       1.0000 0.48920  0.69330  0.05570  Biso   1.000  O
  O8       1.0000 0.51080  0.30670  0.94430  Biso   1.000  O
  C33      1.0000 0.08600  0.81800  0.47900  Biso   1.000  C
  C34      1.0000 0.91400  0.18200  0.52100  Biso   1.000  C
  H25      1.0000 0.17110  0.84840  0.46800  Biso   1.000  H
  H26      1.0000 0.82890  0.15160  0.53200  Biso   1.000  H
  H27      1.0000 0.01310  0.81950  0.56970  Biso   1.000  H
  H28      1.0000 0.98690  0.18050  0.43030  Biso   1.000  H
  H29      1.0000 0.02850  0.88390  0.41610  Biso   1.000  H
  H30      1.0000 0.97150  0.11610  0.58390  Biso   1.000  H
  C35      1.0000 0.16100  0.66400  0.45100  Biso   1.000  C
  C36      1.0000 0.83900  0.33600  0.54900  Biso   1.000  C
  H31      1.0000 0.10110  0.65240  0.40710  Biso   1.000  H
  H32      1.0000 0.89890  0.34760  0.59290  Biso   1.000  H
  H33      1.0000 0.27330  0.64160  0.39470  Biso   1.000  H
  H34      1.0000 0.72670  0.35840  0.60530  Biso   1.000  H
  O9       1.0000 0.14800  0.57400  0.58080  Biso   1.000  O
  O10      1.0000 0.85200  0.42600  0.41920  Biso   1.000  O
  H35      1.0000 0.05240  0.59280  0.62660  Biso   1.000  H
  H36      1.0000 0.94760  0.40720  0.37340  Biso   1.000  H
  C37      1.0000 0.59400  0.71800  0.61200  Biso   1.000  C
  C38      1.0000 0.40600  0.28200  0.38800  Biso   1.000  C
  C39      1.0000 0.74900  0.72400  0.54560  Biso   1.000  C
  C40      1.0000 0.25100  0.27600  0.45440  Biso   1.000  C
  H37      1.0000 0.82370  0.68340  0.59230  Biso   1.000  H
  H38      1.0000 0.17630  0.31660  0.40770  Biso   1.000  H
  C41      1.0000 0.79200  0.78900  0.40930  Biso   1.000  C
  C42      1.0000 0.20800  0.21100  0.59070  Biso   1.000  C
  H39      1.0000 0.89540  0.79190  0.36490  Biso   1.000  H
  H40      1.0000 0.10460  0.20810  0.63510  Biso   1.000  H
  C43      1.0000 0.68000  0.84900  0.33950  Biso   1.000  C
  C44      1.0000 0.32000  0.15100  0.66050  Biso   1.000  C
  H41      1.0000 0.70870  0.89200  0.24830  Biso   1.000  H
  H42      1.0000 0.29130  0.10800  0.75170  Biso   1.000  H
  C45      1.0000 0.52500  0.84300  0.40590  Biso   1.000  C
  C46      1.0000 0.47500  0.15700  0.59410  Biso   1.000  C
  H43      1.0000 0.45030  0.88360  0.35920  Biso   1.000  H
  H44      1.0000 0.54970  0.11640  0.64080  Biso   1.000  H
  C47      1.0000 0.48200  0.77800  0.54220  Biso   1.000  C
  C48      1.0000 0.51800  0.22200  0.45780  Biso   1.000  C
  H45      1.0000 0.37850  0.77510  0.58660  Biso   1.000  H
  H46      1.0000 0.62150  0.22490  0.41340  Biso   1.000  H
  C49      1.0000 0.21400  0.64800  0.45000  Biso   1.000  C
  C50      1.0000 0.78600  0.35200  0.55000  Biso   1.000  C
  H47      1.0000 0.27770  0.56190  0.49770  Biso   1.000  H
  H48      1.0000 0.72230  0.43810  0.50230  Biso   1.000  H
  H49      1.0000 0.16310  0.72570  0.49930  Biso   1.000  H
  H50      1.0000 0.83690  0.27430  0.50070  Biso   1.000  H
  H51      1.0000 0.28210  0.67670  0.36150  Biso   1.000  H
  H52      1.0000 0.71790  0.32330  0.63850  Biso   1.000  H
  C51      1.0000 0.08300  0.61700  0.43600  Biso   1.000  C
  C52      1.0000 0.91700  0.38300  0.56400  Biso   1.000  C
  H53      1.0000 0.00420  0.70650  0.40290  Biso   1.000  H
  H54      1.0000 0.99580  0.29350  0.59710  Biso   1.000  H
  H55      1.0000 0.13010  0.55030  0.37450  Biso   1.000  H
  H56      1.0000 0.86990  0.44970  0.62550  Biso   1.000  H
  O11      1.0000 0.01000  0.55300  0.57000  Biso   1.000  O
  O12      1.0000 0.99000  0.44700  0.43000  Biso   1.000  O
  H57      1.0000 0.06550  0.53380  0.61680  Biso   1.000  H
  H58      1.0000 0.93450  0.46620  0.38320  Biso   1.000  H
