data_image0
_cell_length_a       9.0423
_cell_length_b       8.0159
_cell_length_c       13.2883
_cell_angle_alpha    90
_cell_angle_beta     91.125
_cell_angle_gamma    90

_symmetry_space_group_name_H-M    "P 1"
_symmetry_int_tables_number       1

loop_
  _symmetry_equiv_pos_as_xyz
  'x, y, z'

loop_
  _atom_site_label
  _atom_site_occupancy
  _atom_site_fract_x
  _atom_site_fract_y
  _atom_site_fract_z
  _atom_site_thermal_displace_type
  _atom_site_B_iso_or_equiv
  _atom_site_type_symbol
  Cu1      1.0000 0.50000  0.00000  0.50000  Biso   1.000  Cu
  Cu2      1.0000 0.00000  0.50000  0.00000  Biso   1.000  Cu
  C1       1.0000 0.14520  0.48560  0.46350  Biso   1.000  C
  C2       1.0000 0.35480  0.98560  0.03650  Biso   1.000  C
  C3       1.0000 0.85480  0.51440  0.53650  Biso   1.000  C
  C4       1.0000 0.64520  0.01440  0.96350  Biso   1.000  C
  C5       1.0000 0.30220  0.47190  0.42670  Biso   1.000  C
  C6       1.0000 0.19780  0.97190  0.07330  Biso   1.000  C
  C7       1.0000 0.69780  0.52810  0.57330  Biso   1.000  C
  C8       1.0000 0.80220  0.02810  0.92670  Biso   1.000  C
  H1       1.0000 0.36910  0.52360  0.47540  Biso   1.000  H
  H2       1.0000 0.13090  0.02360  0.02460  Biso   1.000  H
  H3       1.0000 0.63090  0.47640  0.52460  Biso   1.000  H
  H4       1.0000 0.86910  0.97640  0.97540  Biso   1.000  H
  H5       1.0000 0.31030  0.53200  0.36370  Biso   1.000  H
  H6       1.0000 0.18970  0.03200  0.13630  Biso   1.000  H
  H7       1.0000 0.68970  0.46800  0.63630  Biso   1.000  H
  H8       1.0000 0.81030  0.96800  0.86370  Biso   1.000  H
  C9       1.0000 0.03570  0.56700  0.40790  Biso   1.000  C
  C10      1.0000 0.46430  0.06700  0.09210  Biso   1.000  C
  C11      1.0000 0.96430  0.43300  0.59210  Biso   1.000  C
  C12      1.0000 0.53570  0.93300  0.90790  Biso   1.000  C
  H9       1.0000 0.05790  0.61290  0.34570  Biso   1.000  H
  H10      1.0000 0.44210  0.11290  0.15430  Biso   1.000  H
  H11      1.0000 0.94210  0.38710  0.65430  Biso   1.000  H
  H12      1.0000 0.55790  0.88710  0.84570  Biso   1.000  H
  C13      1.0000 0.10670  0.41950  0.55580  Biso   1.000  C
  C14      1.0000 0.39330  0.91950  0.94420  Biso   1.000  C
  C15      1.0000 0.89330  0.58050  0.44420  Biso   1.000  C
  C16      1.0000 0.60670  0.08050  0.05580  Biso   1.000  C
  H13      1.0000 0.17830  0.36460  0.59450  Biso   1.000  H
  H14      1.0000 0.32170  0.86460  0.90550  Biso   1.000  H
  H15      1.0000 0.82170  0.63540  0.40550  Biso   1.000  H
  H16      1.0000 0.67830  0.13540  0.09450  Biso   1.000  H
  C17      1.0000 0.34810  0.29010  0.41100  Biso   1.000  C
  C18      1.0000 0.15190  0.79010  0.08900  Biso   1.000  C
  C19      1.0000 0.65190  0.70990  0.58900  Biso   1.000  C
  C20      1.0000 0.84810  0.20990  0.91100  Biso   1.000  C
  C21      1.0000 0.79450  0.10520  0.44130  Biso   1.000  C
  C22      1.0000 0.70550  0.60520  0.05870  Biso   1.000  C
  C23      1.0000 0.20550  0.89480  0.55870  Biso   1.000  C
  C24      1.0000 0.29450  0.39480  0.94130  Biso   1.000  C
  H17      1.0000 0.79050  0.16500  0.50110  Biso   1.000  H
  H18      1.0000 0.70950  0.66500  0.99890  Biso   1.000  H
  H19      1.0000 0.20950  0.83500  0.49890  Biso   1.000  H
  H20      1.0000 0.29050  0.33500  0.00110  Biso   1.000  H
  C25      1.0000 0.92160  0.10950  0.38800  Biso   1.000  C
  C26      1.0000 0.57840  0.60950  0.11200  Biso   1.000  C
  C27      1.0000 0.07840  0.89050  0.61200  Biso   1.000  C
  C28      1.0000 0.42160  0.39050  0.88800  Biso   1.000  C
  H21      1.0000 0.00190  0.17230  0.41100  Biso   1.000  H
  H22      1.0000 0.49810  0.67230  0.08900  Biso   1.000  H
  H23      1.0000 0.99810  0.82770  0.58900  Biso   1.000  H
  H24      1.0000 0.50190  0.32770  0.91100  Biso   1.000  H
  C29      1.0000 0.68400  0.93320  0.32570  Biso   1.000  C
  C30      1.0000 0.81600  0.43320  0.17430  Biso   1.000  C
  C31      1.0000 0.31600  0.06680  0.67430  Biso   1.000  C
  C32      1.0000 0.18400  0.56680  0.82570  Biso   1.000  C
  H25      1.0000 0.60220  0.87210  0.30370  Biso   1.000  H
  H26      1.0000 0.89780  0.37210  0.19630  Biso   1.000  H
  H27      1.0000 0.39780  0.12790  0.69630  Biso   1.000  H
  H28      1.0000 0.10220  0.62790  0.80370  Biso   1.000  H
  C33      1.0000 0.93020  0.02100  0.30090  Biso   1.000  C
  C34      1.0000 0.56980  0.52100  0.19910  Biso   1.000  C
  C35      1.0000 0.06980  0.97900  0.69910  Biso   1.000  C
  C36      1.0000 0.43020  0.47900  0.80090  Biso   1.000  C
  H29      1.0000 0.01660  0.02130  0.26400  Biso   1.000  H
  H30      1.0000 0.48340  0.52130  0.23600  Biso   1.000  H
  H31      1.0000 0.98340  0.97870  0.73600  Biso   1.000  H
  H32      1.0000 0.51660  0.47870  0.76400  Biso   1.000  H
  C37      1.0000 0.80960  0.93190  0.26860  Biso   1.000  C
  C38      1.0000 0.69040  0.43190  0.23140  Biso   1.000  C
  C39      1.0000 0.19040  0.06810  0.73140  Biso   1.000  C
  C40      1.0000 0.30960  0.56810  0.76860  Biso   1.000  C
  H33      1.0000 0.81220  0.87120  0.20900  Biso   1.000  H
  H34      1.0000 0.68780  0.37120  0.29100  Biso   1.000  H
  H35      1.0000 0.18780  0.12880  0.79100  Biso   1.000  H
  H36      1.0000 0.31220  0.62880  0.70900  Biso   1.000  H
  O1       1.0000 0.44070  0.23220  0.47516  Biso   1.000  O
  O2       1.0000 0.05930  0.73220  0.02484  Biso   1.000  O
  O3       1.0000 0.55930  0.76780  0.52484  Biso   1.000  O
  O4       1.0000 0.94070  0.26780  0.97516  Biso   1.000  O
  O5       1.0000 0.66700  0.12360  0.66570  Biso   1.000  O
  O6       1.0000 0.83300  0.62360  0.83430  Biso   1.000  O
  O7       1.0000 0.33300  0.87640  0.33430  Biso   1.000  O
  O8       1.0000 0.16700  0.37640  0.16570  Biso   1.000  O
  O9       1.0000 0.29280  0.21160  0.33970  Biso   1.000  O
  O10      1.0000 0.20720  0.71160  0.16030  Biso   1.000  O
  O11      1.0000 0.70720  0.78840  0.66030  Biso   1.000  O
  O12      1.0000 0.79280  0.28840  0.83970  Biso   1.000  O
  N1       1.0000 0.67580  0.01910  0.41130  Biso   1.000  N
  N2       1.0000 0.82420  0.51910  0.08870  Biso   1.000  N
  N3       1.0000 0.32420  0.98090  0.58870  Biso   1.000  N
  N4       1.0000 0.17580  0.48090  0.91130  Biso   1.000  N
  H37      1.0000 0.68800  0.02400  0.67100  Biso   1.000  H
  H38      1.0000 0.81200  0.52400  0.82900  Biso   1.000  H
  H39      1.0000 0.31200  0.97600  0.32900  Biso   1.000  H
  H40      1.0000 0.18800  0.47600  0.17100  Biso   1.000  H
  H41      1.0000 0.70300  0.17600  0.71700  Biso   1.000  H
  H42      1.0000 0.79700  0.67600  0.78300  Biso   1.000  H
  H43      1.0000 0.29700  0.82400  0.28300  Biso   1.000  H
  H44      1.0000 0.20300  0.32400  0.21700  Biso   1.000  H
