data_image0
_cell_length_a       9.718
_cell_length_b       9.995
_cell_length_c       11.385
_cell_angle_alpha    90
_cell_angle_beta     96.59
_cell_angle_gamma    90

_symmetry_space_group_name_H-M    "P 1"
_symmetry_int_tables_number       1

loop_
  _symmetry_equiv_pos_as_xyz
  'x, y, z'

loop_
  _atom_site_label
  _atom_site_occupancy
  _atom_site_fract_x
  _atom_site_fract_y
  _atom_site_fract_z
  _atom_site_thermal_displace_type
  _atom_site_B_iso_or_equiv
  _atom_site_type_symbol
  Cu1      1.0000 0.00000  0.00000  0.00000  Biso   1.000  Cu
  Cu2      1.0000 0.50000  0.50000  0.50000  Biso   1.000  Cu
  N1       1.0000 0.20250  0.03040  0.02520  Biso   1.000  N
  N2       1.0000 0.29750  0.53040  0.47480  Biso   1.000  N
  N3       1.0000 0.79750  0.96960  0.97480  Biso   1.000  N
  N4       1.0000 0.70250  0.46960  0.52520  Biso   1.000  N
  N5       1.0000 0.39860  0.05260  0.14170  Biso   1.000  N
  N6       1.0000 0.10140  0.55260  0.35830  Biso   1.000  N
  N7       1.0000 0.60140  0.94740  0.85830  Biso   1.000  N
  N8       1.0000 0.89860  0.44740  0.64170  Biso   1.000  N
  N9       1.0000 0.45940  0.12330  0.34350  Biso   1.000  N
  N10      1.0000 0.04060  0.62330  0.15650  Biso   1.000  N
  N11      1.0000 0.54060  0.87670  0.65650  Biso   1.000  N
  N12      1.0000 0.95940  0.37670  0.84350  Biso   1.000  N
  N13      1.0000 0.51090  0.24840  0.35670  Biso   1.000  N
  N14      1.0000 0.98910  0.74840  0.14330  Biso   1.000  N
  N15      1.0000 0.48910  0.75160  0.64330  Biso   1.000  N
  N16      1.0000 0.01090  0.25160  0.85670  Biso   1.000  N
  N17      1.0000 0.45840  0.30330  0.44600  Biso   1.000  N
  N18      1.0000 0.04160  0.80330  0.05400  Biso   1.000  N
  N19      1.0000 0.54160  0.69670  0.55400  Biso   1.000  N
  N20      1.0000 0.95840  0.19670  0.94600  Biso   1.000  N
  N21      1.0000 0.96140  0.83240  0.74560  Biso   1.000  N
  N22      1.0000 0.53860  0.33240  0.75440  Biso   1.000  N
  N23      1.0000 0.03860  0.16760  0.25440  Biso   1.000  N
  N24      1.0000 0.46140  0.66760  0.24560  Biso   1.000  N
  O1       1.0000 0.01600  0.78010  0.66550  Biso   1.000  O
  O2       1.0000 0.48400  0.28010  0.83450  Biso   1.000  O
  O3       1.0000 0.98400  0.21990  0.33450  Biso   1.000  O
  O4       1.0000 0.51600  0.71990  0.16550  Biso   1.000  O
  O5       1.0000 0.86250  0.77520  0.78490  Biso   1.000  O
  O6       1.0000 0.63750  0.27520  0.71510  Biso   1.000  O
  O7       1.0000 0.13750  0.22480  0.21510  Biso   1.000  O
  O8       1.0000 0.36250  0.72480  0.28490  Biso   1.000  O
  O9       1.0000 0.00810  0.94170  0.79010  Biso   1.000  O
  O10      1.0000 0.49190  0.44170  0.70990  Biso   1.000  O
  O11      1.0000 0.99190  0.05830  0.20990  Biso   1.000  O
  O12      1.0000 0.50810  0.55830  0.29010  Biso   1.000  O
  C1       1.0000 0.36770  0.21420  0.49010  Biso   1.000  C
  C2       1.0000 0.13230  0.71420  0.00990  Biso   1.000  C
  C3       1.0000 0.63230  0.78580  0.50990  Biso   1.000  C
  C4       1.0000 0.86770  0.28580  0.99010  Biso   1.000  C
  C5       1.0000 0.28480  0.22490  0.58180  Biso   1.000  C
  C6       1.0000 0.21520  0.72490  0.91820  Biso   1.000  C
  C7       1.0000 0.71520  0.77510  0.41820  Biso   1.000  C
  C8       1.0000 0.78480  0.27510  0.08180  Biso   1.000  C
  H1       1.0000 0.28380  0.30220  0.62710  Biso   1.000  H
  H2       1.0000 0.21620  0.80220  0.87290  Biso   1.000  H
  H3       1.0000 0.71620  0.69780  0.37290  Biso   1.000  H
  H4       1.0000 0.78380  0.19780  0.12710  Biso   1.000  H
  C9       1.0000 0.20470  0.11600  0.60200  Biso   1.000  C
  C10      1.0000 0.29530  0.61600  0.89800  Biso   1.000  C
  C11      1.0000 0.79530  0.88400  0.39800  Biso   1.000  C
  C12      1.0000 0.70470  0.38400  0.10200  Biso   1.000  C
  H5       1.0000 0.14730  0.12020  0.66180  Biso   1.000  H
  H6       1.0000 0.35270  0.62020  0.83820  Biso   1.000  H
  H7       1.0000 0.85270  0.87980  0.33820  Biso   1.000  H
  H8       1.0000 0.64730  0.37980  0.16180  Biso   1.000  H
  C13      1.0000 0.20740  0.99940  0.53530  Biso   1.000  C
  C14      1.0000 0.29260  0.49940  0.96470  Biso   1.000  C
  C15      1.0000 0.79260  0.00060  0.46470  Biso   1.000  C
  C16      1.0000 0.70740  0.50060  0.03530  Biso   1.000  C
  H9       1.0000 0.15180  0.92800  0.55280  Biso   1.000  H
  H10      1.0000 0.34820  0.42800  0.94720  Biso   1.000  H
  H11      1.0000 0.84820  0.07200  0.44720  Biso   1.000  H
  H12      1.0000 0.65180  0.57200  0.05280  Biso   1.000  H
  C17      1.0000 0.28810  0.98540  0.44520  Biso   1.000  C
  C18      1.0000 0.21190  0.48540  0.05480  Biso   1.000  C
  C19      1.0000 0.71190  0.01460  0.55480  Biso   1.000  C
  C20      1.0000 0.78810  0.51460  0.94520  Biso   1.000  C
  H13      1.0000 0.28980  0.90690  0.40160  Biso   1.000  H
  H14      1.0000 0.21020  0.40690  0.09840  Biso   1.000  H
  H15      1.0000 0.71020  0.09310  0.59840  Biso   1.000  H
  H16      1.0000 0.78980  0.59310  0.90160  Biso   1.000  H
  C21      1.0000 0.36820  0.09750  0.42320  Biso   1.000  C
  C22      1.0000 0.13180  0.59750  0.07680  Biso   1.000  C
  C23      1.0000 0.63180  0.90250  0.57680  Biso   1.000  C
  C24      1.0000 0.86820  0.40250  0.92320  Biso   1.000  C
  C25      1.0000 0.49670  0.03930  0.24650  Biso   1.000  C
  C26      1.0000 0.00330  0.53930  0.25350  Biso   1.000  C
  C27      1.0000 0.50330  0.96070  0.75350  Biso   1.000  C
  C28      1.0000 0.99670  0.46070  0.74650  Biso   1.000  C
  H17      1.0000 0.58820  0.06440  0.22780  Biso   1.000  H
  H18      1.0000 0.91180  0.56440  0.27220  Biso   1.000  H
  H19      1.0000 0.41180  0.93560  0.77220  Biso   1.000  H
  H20      1.0000 0.08820  0.43560  0.72780  Biso   1.000  H
  H21      1.0000 0.50040  0.94650  0.27160  Biso   1.000  H
  H22      1.0000 0.99960  0.44650  0.22840  Biso   1.000  H
  H23      1.0000 0.49960  0.05350  0.72840  Biso   1.000  H
  H24      1.0000 0.00040  0.55350  0.77160  Biso   1.000  H
  C29      1.0000 0.40720  0.13490  0.04670  Biso   1.000  C
  C30      1.0000 0.09280  0.63490  0.45330  Biso   1.000  C
  C31      1.0000 0.59280  0.86510  0.95330  Biso   1.000  C
  C32      1.0000 0.90720  0.36510  0.54670  Biso   1.000  C
  H25      1.0000 0.48090  0.19030  0.03390  Biso   1.000  H
  H26      1.0000 0.01910  0.69030  0.46610  Biso   1.000  H
  H27      1.0000 0.51910  0.80970  0.96610  Biso   1.000  H
  H28      1.0000 0.98090  0.30970  0.53390  Biso   1.000  H
  C33      1.0000 0.28690  0.11960  0.97500  Biso   1.000  C
  C34      1.0000 0.21310  0.61960  0.52500  Biso   1.000  C
  C35      1.0000 0.71310  0.88040  0.02500  Biso   1.000  C
  C36      1.0000 0.78690  0.38040  0.47500  Biso   1.000  C
  H29      1.0000 0.26470  0.16280  0.90300  Biso   1.000  H
  H30      1.0000 0.23530  0.66280  0.59700  Biso   1.000  H
  H31      1.0000 0.73530  0.83720  0.09700  Biso   1.000  H
  H32      1.0000 0.76470  0.33720  0.40300  Biso   1.000  H
  C37      1.0000 0.27400  0.99200  0.12520  Biso   1.000  C
  C38      1.0000 0.22600  0.49200  0.37480  Biso   1.000  C
  C39      1.0000 0.72600  0.00800  0.87480  Biso   1.000  C
  C40      1.0000 0.77400  0.50800  0.62520  Biso   1.000  C
  H33      1.0000 0.24230  0.93100  0.17760  Biso   1.000  H
  H34      1.0000 0.25770  0.43100  0.32240  Biso   1.000  H
  H35      1.0000 0.75770  0.06900  0.82240  Biso   1.000  H
  H36      1.0000 0.74230  0.56900  0.67760  Biso   1.000  H
