data_image0
_cell_length_a       12.5346
_cell_length_b       6.9371
_cell_length_c       9.315
_cell_angle_alpha    90
_cell_angle_beta     109.877
_cell_angle_gamma    90

_symmetry_space_group_name_H-M    "P 1"
_symmetry_int_tables_number       1

loop_
  _symmetry_equiv_pos_as_xyz
  'x, y, z'

loop_
  _atom_site_label
  _atom_site_occupancy
  _atom_site_fract_x
  _atom_site_fract_y
  _atom_site_fract_z
  _atom_site_thermal_displace_type
  _atom_site_B_iso_or_equiv
  _atom_site_type_symbol
  O1       1.0000 0.01790  0.23900  0.89220  Biso   1.000  O
  O2       1.0000 0.98210  0.73900  0.60780  Biso   1.000  O
  O3       1.0000 0.98210  0.76100  0.10780  Biso   1.000  O
  O4       1.0000 0.01790  0.26100  0.39220  Biso   1.000  O
  O5       1.0000 0.11500  0.36750  0.75780  Biso   1.000  O
  O6       1.0000 0.88500  0.86750  0.74220  Biso   1.000  O
  O7       1.0000 0.88500  0.63250  0.24220  Biso   1.000  O
  O8       1.0000 0.11500  0.13250  0.25780  Biso   1.000  O
  O9       1.0000 0.38690  0.28620  0.84500  Biso   1.000  O
  O10      1.0000 0.61310  0.78620  0.65500  Biso   1.000  O
  O11      1.0000 0.61310  0.71380  0.15500  Biso   1.000  O
  O12      1.0000 0.38690  0.21380  0.34500  Biso   1.000  O
  O13      1.0000 0.28380  0.17180  0.61990  Biso   1.000  O
  O14      1.0000 0.71620  0.67180  0.88010  Biso   1.000  O
  O15      1.0000 0.71620  0.82820  0.38010  Biso   1.000  O
  O16      1.0000 0.28380  0.32820  0.11990  Biso   1.000  O
  N1       1.0000 0.13480  0.92650  0.94710  Biso   1.000  N
  N2       1.0000 0.86520  0.42650  0.55290  Biso   1.000  N
  N3       1.0000 0.86520  0.07350  0.05290  Biso   1.000  N
  N4       1.0000 0.13480  0.57350  0.44710  Biso   1.000  N
  N5       1.0000 0.31390  0.84050  0.85660  Biso   1.000  N
  N6       1.0000 0.68610  0.34050  0.64340  Biso   1.000  N
  N7       1.0000 0.68610  0.15950  0.14340  Biso   1.000  N
  N8       1.0000 0.31390  0.65950  0.35660  Biso   1.000  N
  C1       1.0000 0.16800  0.05290  0.85970  Biso   1.000  C
  C2       1.0000 0.83200  0.55290  0.64030  Biso   1.000  C
  C3       1.0000 0.83200  0.94710  0.14030  Biso   1.000  C
  C4       1.0000 0.16800  0.44710  0.35970  Biso   1.000  C
  C5       1.0000 0.27050  0.02100  0.83820  Biso   1.000  C
  C6       1.0000 0.72950  0.52100  0.66180  Biso   1.000  C
  C7       1.0000 0.72950  0.97900  0.16180  Biso   1.000  C
  C8       1.0000 0.27050  0.47900  0.33820  Biso   1.000  C
  C9       1.0000 0.27430  0.70750  0.93100  Biso   1.000  C
  C10      1.0000 0.72570  0.20750  0.56900  Biso   1.000  C
  C11      1.0000 0.72570  0.29250  0.06900  Biso   1.000  C
  C12      1.0000 0.27430  0.79250  0.43100  Biso   1.000  C
  C13      1.0000 0.17780  0.74640  0.96760  Biso   1.000  C
  C14      1.0000 0.82220  0.24640  0.53240  Biso   1.000  C
  C15      1.0000 0.82220  0.25360  0.03240  Biso   1.000  C
  C16      1.0000 0.17780  0.75360  0.46760  Biso   1.000  C
  C17      1.0000 0.10030  0.24080  0.84420  Biso   1.000  C
  C18      1.0000 0.89970  0.74080  0.65580  Biso   1.000  C
  C19      1.0000 0.89970  0.75920  0.15580  Biso   1.000  C
  C20      1.0000 0.10030  0.25920  0.34420  Biso   1.000  C
  C21      1.0000 0.32360  0.14810  0.75520  Biso   1.000  C
  C22      1.0000 0.67640  0.64810  0.74480  Biso   1.000  C
  C23      1.0000 0.67640  0.85190  0.24480  Biso   1.000  C
  C24      1.0000 0.32360  0.35190  0.25520  Biso   1.000  C
  C25      1.0000 0.43550  0.43330  0.77000  Biso   1.000  C
  C26      1.0000 0.56450  0.93330  0.73000  Biso   1.000  C
  C27      1.0000 0.56450  0.56670  0.23000  Biso   1.000  C
  C28      1.0000 0.43550  0.06670  0.27000  Biso   1.000  C
  Cu1      1.0000 0.00000  0.00000  0.00000  Biso   1.000  Cu
  Cu2      1.0000 0.00000  0.50000  0.50000  Biso   1.000  Cu
