data_image0
_cell_length_a       28.184
_cell_length_b       9.696
_cell_length_c       14.256
_cell_angle_alpha    90
_cell_angle_beta     90
_cell_angle_gamma    90

_symmetry_space_group_name_H-M    "P 1"
_symmetry_int_tables_number       1

loop_
  _symmetry_equiv_pos_as_xyz
  'x, y, z'

loop_
  _atom_site_label
  _atom_site_occupancy
  _atom_site_fract_x
  _atom_site_fract_y
  _atom_site_fract_z
  _atom_site_thermal_displace_type
  _atom_site_B_iso_or_equiv
  _atom_site_type_symbol
  Cu1      1.0000 0.39499  0.09076  0.72822  Biso   1.000  Cu
  Cu2      1.0000 0.10501  0.40924  0.22822  Biso   1.000  Cu
  Cu3      1.0000 0.60501  0.09076  0.77178  Biso   1.000  Cu
  Cu4      1.0000 0.89499  0.40924  0.27178  Biso   1.000  Cu
  Cu5      1.0000 0.60501  0.90924  0.27178  Biso   1.000  Cu
  Cu6      1.0000 0.89499  0.59076  0.77178  Biso   1.000  Cu
  Cu7      1.0000 0.39499  0.90924  0.22822  Biso   1.000  Cu
  Cu8      1.0000 0.10501  0.59076  0.72822  Biso   1.000  Cu
  N1       1.0000 0.43803  0.97530  0.82490  Biso   1.000  N
  N2       1.0000 0.06197  0.52470  0.32490  Biso   1.000  N
  N3       1.0000 0.56197  0.97530  0.67510  Biso   1.000  N
  N4       1.0000 0.93803  0.52470  0.17510  Biso   1.000  N
  N5       1.0000 0.56197  0.02470  0.17510  Biso   1.000  N
  N6       1.0000 0.93803  0.47530  0.67510  Biso   1.000  N
  N7       1.0000 0.43803  0.02470  0.32490  Biso   1.000  N
  N8       1.0000 0.06197  0.47530  0.82490  Biso   1.000  N
  C1       1.0000 0.45034  0.91380  0.88960  Biso   1.000  C
  C2       1.0000 0.04966  0.58620  0.38960  Biso   1.000  C
  C3       1.0000 0.54966  0.91380  0.61040  Biso   1.000  C
  C4       1.0000 0.95034  0.58620  0.11040  Biso   1.000  C
  C5       1.0000 0.54966  0.08620  0.11040  Biso   1.000  C
  C6       1.0000 0.95034  0.41380  0.61040  Biso   1.000  C
  C7       1.0000 0.45034  0.08620  0.38960  Biso   1.000  C
  C8       1.0000 0.04966  0.41380  0.88960  Biso   1.000  C
  N9       1.0000 0.46727  0.84000  0.95820  Biso   1.000  N
  N10      1.0000 0.03273  0.66000  0.45820  Biso   1.000  N
  N11      1.0000 0.53273  0.84000  0.54180  Biso   1.000  N
  N12      1.0000 0.96727  0.66000  0.04180  Biso   1.000  N
  N13      1.0000 0.53273  0.16000  0.04180  Biso   1.000  N
  N14      1.0000 0.96727  0.34000  0.54180  Biso   1.000  N
  N15      1.0000 0.46727  0.16000  0.45820  Biso   1.000  N
  N16      1.0000 0.03273  0.34000  0.95820  Biso   1.000  N
  C9       1.0000 0.44962  0.85630  0.04160  Biso   1.000  C
  C10      1.0000 0.05038  0.64370  0.54160  Biso   1.000  C
  C11      1.0000 0.55038  0.85630  0.45840  Biso   1.000  C
  C12      1.0000 0.94962  0.64370  0.95840  Biso   1.000  C
  C13      1.0000 0.55038  0.14370  0.95840  Biso   1.000  C
  C14      1.0000 0.94962  0.35630  0.45840  Biso   1.000  C
  C15      1.0000 0.44962  0.14370  0.54160  Biso   1.000  C
  C16      1.0000 0.05038  0.35630  0.04160  Biso   1.000  C
  N17      1.0000 0.43723  0.86300  0.11800  Biso   1.000  N
  N18      1.0000 0.06277  0.63700  0.61800  Biso   1.000  N
  N19      1.0000 0.56277  0.86300  0.38200  Biso   1.000  N
  N20      1.0000 0.93723  0.63700  0.88200  Biso   1.000  N
  N21      1.0000 0.56277  0.13700  0.88200  Biso   1.000  N
  N22      1.0000 0.93723  0.36300  0.38200  Biso   1.000  N
  N23      1.0000 0.43723  0.13700  0.61800  Biso   1.000  N
  N24      1.0000 0.06277  0.36300  0.11800  Biso   1.000  N
  N25      1.0000 0.41502  0.27100  0.78720  Biso   1.000  N
  N26      1.0000 0.08498  0.22900  0.28720  Biso   1.000  N
  N27      1.0000 0.58498  0.27100  0.71280  Biso   1.000  N
  N28      1.0000 0.91502  0.22900  0.21280  Biso   1.000  N
  N29      1.0000 0.58498  0.72900  0.21280  Biso   1.000  N
  N30      1.0000 0.91502  0.77100  0.71280  Biso   1.000  N
  N31      1.0000 0.41502  0.72900  0.28720  Biso   1.000  N
  N32      1.0000 0.08498  0.77100  0.78720  Biso   1.000  N
  C17      1.0000 0.45720  0.28180  0.82920  Biso   1.000  C
  C18      1.0000 0.04280  0.21820  0.32920  Biso   1.000  C
  C19      1.0000 0.54280  0.28180  0.67080  Biso   1.000  C
  C20      1.0000 0.95720  0.21820  0.17080  Biso   1.000  C
  C21      1.0000 0.54280  0.71820  0.17080  Biso   1.000  C
  C22      1.0000 0.95720  0.78180  0.67080  Biso   1.000  C
  C23      1.0000 0.45720  0.71820  0.32920  Biso   1.000  C
  C24      1.0000 0.04280  0.78180  0.82920  Biso   1.000  C
  H1       1.0000 0.47590  0.20320  0.83560  Biso   1.000  H
  H2       1.0000 0.02410  0.29680  0.33560  Biso   1.000  H
  H3       1.0000 0.52410  0.20320  0.66440  Biso   1.000  H
  H4       1.0000 0.97590  0.29680  0.16440  Biso   1.000  H
  H5       1.0000 0.52410  0.79680  0.16440  Biso   1.000  H
  H6       1.0000 0.97590  0.70320  0.66440  Biso   1.000  H
  H7       1.0000 0.47590  0.79680  0.33560  Biso   1.000  H
  H8       1.0000 0.02410  0.70320  0.83560  Biso   1.000  H
  C25      1.0000 0.47390  0.40370  0.86270  Biso   1.000  C
  C26      1.0000 0.02610  0.09630  0.36270  Biso   1.000  C
  C27      1.0000 0.52610  0.40370  0.63730  Biso   1.000  C
  C28      1.0000 0.97390  0.09630  0.13730  Biso   1.000  C
  C29      1.0000 0.52610  0.59630  0.13730  Biso   1.000  C
  C30      1.0000 0.97390  0.90370  0.63730  Biso   1.000  C
  C31      1.0000 0.47390  0.59630  0.36270  Biso   1.000  C
  C32      1.0000 0.02610  0.90370  0.86270  Biso   1.000  C
  H9       1.0000 0.50350  0.40800  0.89140  Biso   1.000  H
  H10      1.0000 0.99650  0.09200  0.39140  Biso   1.000  H
  H11      1.0000 0.49650  0.40800  0.60860  Biso   1.000  H
  H12      1.0000 0.00350  0.09200  0.10860  Biso   1.000  H
  H13      1.0000 0.49650  0.59200  0.10860  Biso   1.000  H
  H14      1.0000 0.00350  0.90800  0.60860  Biso   1.000  H
  H15      1.0000 0.50350  0.59200  0.39140  Biso   1.000  H
  H16      1.0000 0.99650  0.90800  0.89140  Biso   1.000  H
  C33      1.0000 0.44700  0.51910  0.85410  Biso   1.000  C
  C34      1.0000 0.05300  0.98090  0.35410  Biso   1.000  C
  C35      1.0000 0.55300  0.51910  0.64590  Biso   1.000  C
  C36      1.0000 0.94700  0.98090  0.14590  Biso   1.000  C
  C37      1.0000 0.55300  0.48090  0.14590  Biso   1.000  C
  C38      1.0000 0.94700  0.01910  0.64590  Biso   1.000  C
  C39      1.0000 0.44700  0.48090  0.35410  Biso   1.000  C
  C40      1.0000 0.05300  0.01910  0.85410  Biso   1.000  C
  H17      1.0000 0.45790  0.60260  0.87800  Biso   1.000  H
  H18      1.0000 0.04210  0.89740  0.37800  Biso   1.000  H
  H19      1.0000 0.54210  0.60260  0.62200  Biso   1.000  H
  H20      1.0000 0.95790  0.89740  0.12200  Biso   1.000  H
  H21      1.0000 0.54210  0.39740  0.12200  Biso   1.000  H
  H22      1.0000 0.95790  0.10260  0.62200  Biso   1.000  H
  H23      1.0000 0.45790  0.39740  0.37800  Biso   1.000  H
  H24      1.0000 0.04210  0.10260  0.87800  Biso   1.000  H
  C41      1.0000 0.40350  0.51180  0.80980  Biso   1.000  C
  C42      1.0000 0.09650  0.98820  0.30980  Biso   1.000  C
  C43      1.0000 0.59650  0.51180  0.69020  Biso   1.000  C
  C44      1.0000 0.90350  0.98820  0.19020  Biso   1.000  C
  C45      1.0000 0.59650  0.48820  0.19020  Biso   1.000  C
  C46      1.0000 0.90350  0.01180  0.69020  Biso   1.000  C
  C47      1.0000 0.40350  0.48820  0.30980  Biso   1.000  C
  C48      1.0000 0.09650  0.01180  0.80980  Biso   1.000  C
  H25      1.0000 0.38490  0.59020  0.80200  Biso   1.000  H
  H26      1.0000 0.11510  0.90980  0.30200  Biso   1.000  H
  H27      1.0000 0.61510  0.59020  0.69800  Biso   1.000  H
  H28      1.0000 0.88490  0.90980  0.19800  Biso   1.000  H
  H29      1.0000 0.61510  0.40980  0.19800  Biso   1.000  H
  H30      1.0000 0.88490  0.09020  0.69800  Biso   1.000  H
  H31      1.0000 0.38490  0.40980  0.30200  Biso   1.000  H
  H32      1.0000 0.11510  0.09020  0.80200  Biso   1.000  H
  C49      1.0000 0.38819  0.38360  0.77700  Biso   1.000  C
  C50      1.0000 0.11181  0.11640  0.27700  Biso   1.000  C
  C51      1.0000 0.61181  0.38360  0.72300  Biso   1.000  C
  C52      1.0000 0.88819  0.11640  0.22300  Biso   1.000  C
  C53      1.0000 0.61181  0.61640  0.22300  Biso   1.000  C
  C54      1.0000 0.88819  0.88360  0.72300  Biso   1.000  C
  C55      1.0000 0.38819  0.61640  0.27700  Biso   1.000  C
  C56      1.0000 0.11181  0.88360  0.77700  Biso   1.000  C
  N33      1.0000 0.32773  0.11570  0.77940  Biso   1.000  N
  N34      1.0000 0.17227  0.38430  0.27940  Biso   1.000  N
  N35      1.0000 0.67227  0.11570  0.72060  Biso   1.000  N
  N36      1.0000 0.82773  0.38430  0.22060  Biso   1.000  N
  N37      1.0000 0.67227  0.88430  0.22060  Biso   1.000  N
  N38      1.0000 0.82773  0.61570  0.72060  Biso   1.000  N
  N39      1.0000 0.32773  0.88430  0.27940  Biso   1.000  N
  N40      1.0000 0.17227  0.61570  0.77940  Biso   1.000  N
  C57      1.0000 0.34150  0.36080  0.73130  Biso   1.000  C
  C58      1.0000 0.15850  0.13920  0.23130  Biso   1.000  C
  C59      1.0000 0.65850  0.36080  0.76870  Biso   1.000  C
  C60      1.0000 0.84150  0.13920  0.26870  Biso   1.000  C
  C61      1.0000 0.65850  0.63920  0.26870  Biso   1.000  C
  C62      1.0000 0.84150  0.86080  0.76870  Biso   1.000  C
  C63      1.0000 0.34150  0.63920  0.23130  Biso   1.000  C
  C64      1.0000 0.15850  0.86080  0.73130  Biso   1.000  C
  H33      1.0000 0.34490  0.31550  0.67100  Biso   1.000  H
  H34      1.0000 0.15510  0.18450  0.17100  Biso   1.000  H
  H35      1.0000 0.65510  0.31550  0.82900  Biso   1.000  H
  H36      1.0000 0.84490  0.18450  0.32900  Biso   1.000  H
  H37      1.0000 0.65510  0.68450  0.32900  Biso   1.000  H
  H38      1.0000 0.84490  0.81550  0.82900  Biso   1.000  H
  H39      1.0000 0.34490  0.68450  0.17100  Biso   1.000  H
  H40      1.0000 0.15510  0.81550  0.67100  Biso   1.000  H
  H41      1.0000 0.32420  0.44660  0.72320  Biso   1.000  H
  H42      1.0000 0.17580  0.05340  0.22320  Biso   1.000  H
  H43      1.0000 0.67580  0.44660  0.77680  Biso   1.000  H
  H44      1.0000 0.82420  0.05340  0.27680  Biso   1.000  H
  H45      1.0000 0.67580  0.55340  0.27680  Biso   1.000  H
  H46      1.0000 0.82420  0.94660  0.77680  Biso   1.000  H
  H47      1.0000 0.32420  0.55340  0.22320  Biso   1.000  H
  H48      1.0000 0.17580  0.94660  0.72320  Biso   1.000  H
  C65      1.0000 0.31580  0.26070  0.80810  Biso   1.000  C
  C66      1.0000 0.18420  0.23930  0.30810  Biso   1.000  C
  C67      1.0000 0.68420  0.26070  0.69190  Biso   1.000  C
  C68      1.0000 0.81580  0.23930  0.19190  Biso   1.000  C
  C69      1.0000 0.68420  0.73930  0.19190  Biso   1.000  C
  C70      1.0000 0.81580  0.76070  0.69190  Biso   1.000  C
  C71      1.0000 0.31580  0.73930  0.30810  Biso   1.000  C
  C72      1.0000 0.18420  0.76070  0.80810  Biso   1.000  C
  H49      1.0000 0.32770  0.27960  0.87060  Biso   1.000  H
  H50      1.0000 0.17230  0.22040  0.37060  Biso   1.000  H
  H51      1.0000 0.67230  0.27960  0.62940  Biso   1.000  H
  H52      1.0000 0.82770  0.22040  0.12940  Biso   1.000  H
  H53      1.0000 0.67230  0.72040  0.12940  Biso   1.000  H
  H54      1.0000 0.82770  0.77960  0.62940  Biso   1.000  H
  H55      1.0000 0.32770  0.72040  0.37060  Biso   1.000  H
  H56      1.0000 0.17230  0.77960  0.87060  Biso   1.000  H
  H57      1.0000 0.28170  0.27470  0.80760  Biso   1.000  H
  H58      1.0000 0.21830  0.22530  0.30760  Biso   1.000  H
  H59      1.0000 0.71830  0.27470  0.69240  Biso   1.000  H
  H60      1.0000 0.78170  0.22530  0.19240  Biso   1.000  H
  H61      1.0000 0.71830  0.72530  0.19240  Biso   1.000  H
  H62      1.0000 0.78170  0.77470  0.69240  Biso   1.000  H
  H63      1.0000 0.28170  0.72530  0.30760  Biso   1.000  H
  H64      1.0000 0.21830  0.77470  0.80760  Biso   1.000  H
  C73      1.0000 0.32030  0.02430  0.85790  Biso   1.000  C
  C74      1.0000 0.17970  0.47570  0.35790  Biso   1.000  C
  C75      1.0000 0.67970  0.02430  0.64210  Biso   1.000  C
  C76      1.0000 0.82030  0.47570  0.14210  Biso   1.000  C
  C77      1.0000 0.67970  0.97570  0.14210  Biso   1.000  C
  C78      1.0000 0.82030  0.52430  0.64210  Biso   1.000  C
  C79      1.0000 0.32030  0.97570  0.35790  Biso   1.000  C
  C80      1.0000 0.17970  0.52430  0.85790  Biso   1.000  C
  H65      1.0000 0.32940  0.93230  0.84060  Biso   1.000  H
  H66      1.0000 0.17060  0.56770  0.34060  Biso   1.000  H
  H67      1.0000 0.67060  0.93230  0.65940  Biso   1.000  H
  H68      1.0000 0.82940  0.56770  0.15940  Biso   1.000  H
  H69      1.0000 0.67060  0.06770  0.15940  Biso   1.000  H
  H70      1.0000 0.82940  0.43230  0.65940  Biso   1.000  H
  H71      1.0000 0.32940  0.06770  0.34060  Biso   1.000  H
  H72      1.0000 0.17060  0.43230  0.84060  Biso   1.000  H
  H73      1.0000 0.28740  0.02520  0.87520  Biso   1.000  H
  H74      1.0000 0.21260  0.47480  0.37520  Biso   1.000  H
  H75      1.0000 0.71260  0.02520  0.62480  Biso   1.000  H
  H76      1.0000 0.78740  0.47480  0.12480  Biso   1.000  H
  H77      1.0000 0.71260  0.97480  0.12480  Biso   1.000  H
  H78      1.0000 0.78740  0.52520  0.62480  Biso   1.000  H
  H79      1.0000 0.28740  0.97480  0.37520  Biso   1.000  H
  H80      1.0000 0.21260  0.52520  0.87520  Biso   1.000  H
  H81      1.0000 0.33920  0.05440  0.91000  Biso   1.000  H
  H82      1.0000 0.16080  0.44560  0.41000  Biso   1.000  H
  H83      1.0000 0.66080  0.05440  0.59000  Biso   1.000  H
  H84      1.0000 0.83920  0.44560  0.09000  Biso   1.000  H
  H85      1.0000 0.66080  0.94560  0.09000  Biso   1.000  H
  H86      1.0000 0.83920  0.55440  0.59000  Biso   1.000  H
  H87      1.0000 0.33920  0.94560  0.41000  Biso   1.000  H
  H88      1.0000 0.16080  0.55440  0.91000  Biso   1.000  H
  C81      1.0000 0.29600  0.08020  0.69720  Biso   1.000  C
  C82      1.0000 0.20400  0.41980  0.19720  Biso   1.000  C
  C83      1.0000 0.70400  0.08020  0.80280  Biso   1.000  C
  C84      1.0000 0.79600  0.41980  0.30280  Biso   1.000  C
  C85      1.0000 0.70400  0.91980  0.30280  Biso   1.000  C
  C86      1.0000 0.79600  0.58020  0.80280  Biso   1.000  C
  C87      1.0000 0.29600  0.91980  0.19720  Biso   1.000  C
  C88      1.0000 0.20400  0.58020  0.69720  Biso   1.000  C
  H89      1.0000 0.26380  0.10230  0.71570  Biso   1.000  H
  H90      1.0000 0.23620  0.39770  0.21570  Biso   1.000  H
  H91      1.0000 0.73620  0.10230  0.78430  Biso   1.000  H
  H92      1.0000 0.76380  0.39770  0.28430  Biso   1.000  H
  H93      1.0000 0.73620  0.89770  0.28430  Biso   1.000  H
  H94      1.0000 0.76380  0.60230  0.78430  Biso   1.000  H
  H95      1.0000 0.26380  0.89770  0.21570  Biso   1.000  H
  H96      1.0000 0.23620  0.60230  0.71570  Biso   1.000  H
  H97      1.0000 0.30420  0.14270  0.64660  Biso   1.000  H
  H98      1.0000 0.19580  0.35730  0.14660  Biso   1.000  H
  H99      1.0000 0.69580  0.14270  0.85340  Biso   1.000  H
  H100     1.0000 0.80420  0.35730  0.35340  Biso   1.000  H
  H101     1.0000 0.69580  0.85730  0.35340  Biso   1.000  H
  H102     1.0000 0.80420  0.64270  0.85340  Biso   1.000  H
  H103     1.0000 0.30420  0.85730  0.14660  Biso   1.000  H
  H104     1.0000 0.19580  0.64270  0.64660  Biso   1.000  H
  C89      1.0000 0.29510  0.94870  0.65960  Biso   1.000  C
  C90      1.0000 0.20490  0.55130  0.15960  Biso   1.000  C
  C91      1.0000 0.70490  0.94870  0.84040  Biso   1.000  C
  C92      1.0000 0.79510  0.55130  0.34040  Biso   1.000  C
  C93      1.0000 0.70490  0.05130  0.34040  Biso   1.000  C
  C94      1.0000 0.79510  0.44870  0.84040  Biso   1.000  C
  C95      1.0000 0.29510  0.05130  0.15960  Biso   1.000  C
  C96      1.0000 0.20490  0.44870  0.65960  Biso   1.000  C
  H105     1.0000 0.27650  0.95520  0.60260  Biso   1.000  H
  H106     1.0000 0.22350  0.54480  0.10260  Biso   1.000  H
  H107     1.0000 0.72350  0.95520  0.89740  Biso   1.000  H
  H108     1.0000 0.77650  0.54480  0.39740  Biso   1.000  H
  H109     1.0000 0.72350  0.04480  0.39740  Biso   1.000  H
  H110     1.0000 0.77650  0.45520  0.89740  Biso   1.000  H
  H111     1.0000 0.27650  0.04480  0.10260  Biso   1.000  H
  H112     1.0000 0.22350  0.45520  0.60260  Biso   1.000  H
  H113     1.0000 0.27670  0.89320  0.70300  Biso   1.000  H
  H114     1.0000 0.22330  0.60680  0.20300  Biso   1.000  H
  H115     1.0000 0.72330  0.89320  0.79700  Biso   1.000  H
  H116     1.0000 0.77670  0.60680  0.29700  Biso   1.000  H
  H117     1.0000 0.72330  0.10680  0.29700  Biso   1.000  H
  H118     1.0000 0.77670  0.39320  0.79700  Biso   1.000  H
  H119     1.0000 0.27670  0.10680  0.20300  Biso   1.000  H
  H120     1.0000 0.22330  0.39320  0.70300  Biso   1.000  H
  C97      1.0000 0.33750  0.86410  0.63520  Biso   1.000  C
  C98      1.0000 0.16250  0.63590  0.13520  Biso   1.000  C
  C99      1.0000 0.66250  0.86410  0.86480  Biso   1.000  C
  C100     1.0000 0.83750  0.63590  0.36480  Biso   1.000  C
  C101     1.0000 0.66250  0.13590  0.36480  Biso   1.000  C
  C102     1.0000 0.83750  0.36410  0.86480  Biso   1.000  C
  C103     1.0000 0.33750  0.13590  0.13520  Biso   1.000  C
  C104     1.0000 0.16250  0.36410  0.63520  Biso   1.000  C
  C105     1.0000 0.33380  0.73440  0.58800  Biso   1.000  C
  C106     1.0000 0.16620  0.76560  0.08800  Biso   1.000  C
  C107     1.0000 0.66620  0.73440  0.91200  Biso   1.000  C
  C108     1.0000 0.83380  0.76560  0.41200  Biso   1.000  C
  C109     1.0000 0.66620  0.26560  0.41200  Biso   1.000  C
  C110     1.0000 0.83380  0.23440  0.91200  Biso   1.000  C
  C111     1.0000 0.33380  0.26560  0.08800  Biso   1.000  C
  C112     1.0000 0.16620  0.23440  0.58800  Biso   1.000  C
  H121     1.0000 0.30440  0.69970  0.57010  Biso   1.000  H
  H122     1.0000 0.19560  0.80030  0.07010  Biso   1.000  H
  H123     1.0000 0.69560  0.69970  0.92990  Biso   1.000  H
  H124     1.0000 0.80440  0.80030  0.42990  Biso   1.000  H
  H125     1.0000 0.69560  0.30030  0.42990  Biso   1.000  H
  H126     1.0000 0.80440  0.19970  0.92990  Biso   1.000  H
  H127     1.0000 0.30440  0.30030  0.07010  Biso   1.000  H
  H128     1.0000 0.19560  0.19970  0.57010  Biso   1.000  H
  C113     1.0000 0.37470  0.66230  0.56990  Biso   1.000  C
  C114     1.0000 0.12530  0.83770  0.06990  Biso   1.000  C
  C115     1.0000 0.62530  0.66230  0.93010  Biso   1.000  C
  C116     1.0000 0.87470  0.83770  0.43010  Biso   1.000  C
  C117     1.0000 0.62530  0.33770  0.43010  Biso   1.000  C
  C118     1.0000 0.87470  0.16230  0.93010  Biso   1.000  C
  C119     1.0000 0.37470  0.33770  0.06990  Biso   1.000  C
  C120     1.0000 0.12530  0.16230  0.56990  Biso   1.000  C
  H129     1.0000 0.37280  0.57690  0.54060  Biso   1.000  H
  H130     1.0000 0.12720  0.92310  0.04060  Biso   1.000  H
  H131     1.0000 0.62720  0.57690  0.95940  Biso   1.000  H
  H132     1.0000 0.87280  0.92310  0.45940  Biso   1.000  H
  H133     1.0000 0.62720  0.42310  0.45940  Biso   1.000  H
  H134     1.0000 0.87280  0.07690  0.95940  Biso   1.000  H
  H135     1.0000 0.37280  0.42310  0.04060  Biso   1.000  H
  H136     1.0000 0.12720  0.07690  0.54060  Biso   1.000  H
  C121     1.0000 0.41770  0.71280  0.59380  Biso   1.000  C
  C122     1.0000 0.08230  0.78720  0.09380  Biso   1.000  C
  C123     1.0000 0.58230  0.71280  0.90620  Biso   1.000  C
  C124     1.0000 0.91770  0.78720  0.40620  Biso   1.000  C
  C125     1.0000 0.58230  0.28720  0.40620  Biso   1.000  C
  C126     1.0000 0.91770  0.21280  0.90620  Biso   1.000  C
  C127     1.0000 0.41770  0.28720  0.09380  Biso   1.000  C
  C128     1.0000 0.08230  0.21280  0.59380  Biso   1.000  C
  H137     1.0000 0.44540  0.66570  0.57890  Biso   1.000  H
  H138     1.0000 0.05460  0.83430  0.07890  Biso   1.000  H
  H139     1.0000 0.55460  0.66570  0.92110  Biso   1.000  H
  H140     1.0000 0.94540  0.83430  0.42110  Biso   1.000  H
  H141     1.0000 0.55460  0.33430  0.42110  Biso   1.000  H
  H142     1.0000 0.94540  0.16570  0.92110  Biso   1.000  H
  H143     1.0000 0.44540  0.33430  0.07890  Biso   1.000  H
  H144     1.0000 0.05460  0.16570  0.57890  Biso   1.000  H
  C129     1.0000 0.41900  0.83450  0.64030  Biso   1.000  C
  C130     1.0000 0.08100  0.66550  0.14030  Biso   1.000  C
  C131     1.0000 0.58100  0.83450  0.85970  Biso   1.000  C
  C132     1.0000 0.91900  0.66550  0.35970  Biso   1.000  C
  C133     1.0000 0.58100  0.16550  0.35970  Biso   1.000  C
  C134     1.0000 0.91900  0.33450  0.85970  Biso   1.000  C
  C135     1.0000 0.41900  0.16550  0.14030  Biso   1.000  C
  C136     1.0000 0.08100  0.33450  0.64030  Biso   1.000  C
  H145     1.0000 0.44840  0.86840  0.65860  Biso   1.000  H
  H146     1.0000 0.05160  0.63160  0.15860  Biso   1.000  H
  H147     1.0000 0.55160  0.86840  0.84140  Biso   1.000  H
  H148     1.0000 0.94840  0.63160  0.34140  Biso   1.000  H
  H149     1.0000 0.55160  0.13160  0.34140  Biso   1.000  H
  H150     1.0000 0.94840  0.36840  0.84140  Biso   1.000  H
  H151     1.0000 0.44840  0.13160  0.15860  Biso   1.000  H
  H152     1.0000 0.05160  0.36840  0.65860  Biso   1.000  H
  N41      1.0000 0.38008  0.90980  0.66160  Biso   1.000  N
  N42      1.0000 0.11992  0.59020  0.16160  Biso   1.000  N
  N43      1.0000 0.61992  0.90980  0.83840  Biso   1.000  N
  N44      1.0000 0.88008  0.59020  0.33840  Biso   1.000  N
  N45      1.0000 0.61992  0.09020  0.33840  Biso   1.000  N
  N46      1.0000 0.88008  0.40980  0.83840  Biso   1.000  N
  N47      1.0000 0.38008  0.09020  0.16160  Biso   1.000  N
  N48      1.0000 0.11992  0.40980  0.66160  Biso   1.000  N
  Cl1      1.0000 0.30846  0.31920  0.44781  Biso   1.000  Cl
  Cl2      1.0000 0.19154  0.18080  0.94781  Biso   1.000  Cl
  Cl3      1.0000 0.69154  0.31920  0.05219  Biso   1.000  Cl
  Cl4      1.0000 0.80846  0.18080  0.55219  Biso   1.000  Cl
  Cl5      1.0000 0.69154  0.68080  0.55219  Biso   1.000  Cl
  Cl6      1.0000 0.80846  0.81920  0.05219  Biso   1.000  Cl
  Cl7      1.0000 0.30846  0.68080  0.94781  Biso   1.000  Cl
  Cl8      1.0000 0.19154  0.81920  0.44781  Biso   1.000  Cl
  O1       1.0000 0.27476  0.22900  0.48650  Biso   1.000  O
  O2       1.0000 0.22524  0.27100  0.98650  Biso   1.000  O
  O3       1.0000 0.72524  0.22900  0.01350  Biso   1.000  O
  O4       1.0000 0.77476  0.27100  0.51350  Biso   1.000  O
  O5       1.0000 0.72524  0.77100  0.51350  Biso   1.000  O
  O6       1.0000 0.77476  0.72900  0.01350  Biso   1.000  O
  O7       1.0000 0.27476  0.77100  0.98650  Biso   1.000  O
  O8       1.0000 0.22524  0.72900  0.48650  Biso   1.000  O
  O9       1.0000 0.35428  0.28520  0.47490  Biso   1.000  O
  O10      1.0000 0.14572  0.21480  0.97490  Biso   1.000  O
  O11      1.0000 0.64572  0.28520  0.02510  Biso   1.000  O
  O12      1.0000 0.85428  0.21480  0.52510  Biso   1.000  O
  O13      1.0000 0.64572  0.71480  0.52510  Biso   1.000  O
  O14      1.0000 0.85428  0.78520  0.02510  Biso   1.000  O
  O15      1.0000 0.35428  0.71480  0.97490  Biso   1.000  O
  O16      1.0000 0.14572  0.78520  0.47490  Biso   1.000  O
  O17      1.0000 0.30384  0.31800  0.34970  Biso   1.000  O
  O18      1.0000 0.19616  0.18200  0.84970  Biso   1.000  O
  O19      1.0000 0.69616  0.31800  0.15030  Biso   1.000  O
  O20      1.0000 0.80384  0.18200  0.65030  Biso   1.000  O
  O21      1.0000 0.69616  0.68200  0.65030  Biso   1.000  O
  O22      1.0000 0.80384  0.81800  0.15030  Biso   1.000  O
  O23      1.0000 0.30384  0.68200  0.84970  Biso   1.000  O
  O24      1.0000 0.19616  0.81800  0.34970  Biso   1.000  O
  O25      1.0000 0.29810  0.46350  0.47540  Biso   1.000  O
  O26      1.0000 0.20190  0.03650  0.97540  Biso   1.000  O
  O27      1.0000 0.70190  0.46350  0.02460  Biso   1.000  O
  O28      1.0000 0.79810  0.03650  0.52460  Biso   1.000  O
  O29      1.0000 0.70190  0.53650  0.52460  Biso   1.000  O
  O30      1.0000 0.79810  0.96350  0.02460  Biso   1.000  O
  O31      1.0000 0.29810  0.53650  0.97540  Biso   1.000  O
  O32      1.0000 0.20190  0.96350  0.47540  Biso   1.000  O
  C137     1.0000 0.33170  0.11190  0.88460  Biso   1.000  C
  C138     1.0000 0.16830  0.38810  0.38460  Biso   1.000  C
  C139     1.0000 0.66830  0.11190  0.61540  Biso   1.000  C
  C140     1.0000 0.83170  0.38810  0.11540  Biso   1.000  C
  C141     1.0000 0.66830  0.88810  0.11540  Biso   1.000  C
  C142     1.0000 0.83170  0.61190  0.61540  Biso   1.000  C
  C143     1.0000 0.33170  0.88810  0.38460  Biso   1.000  C
  C144     1.0000 0.16830  0.61190  0.88460  Biso   1.000  C
  C145     1.0000 0.30820  0.25000  0.75050  Biso   1.000  C
  C146     1.0000 0.19180  0.25000  0.25050  Biso   1.000  C
  C147     1.0000 0.69180  0.25000  0.74950  Biso   1.000  C
  C148     1.0000 0.80820  0.25000  0.24950  Biso   1.000  C
  C149     1.0000 0.69180  0.75000  0.24950  Biso   1.000  C
  C150     1.0000 0.80820  0.75000  0.74950  Biso   1.000  C
  C151     1.0000 0.30820  0.75000  0.25050  Biso   1.000  C
  C152     1.0000 0.19180  0.75000  0.75050  Biso   1.000  C
  C153     1.0000 0.29440  0.00250  0.75330  Biso   1.000  C
  C154     1.0000 0.20560  0.49750  0.25330  Biso   1.000  C
  C155     1.0000 0.70560  0.00250  0.74670  Biso   1.000  C
  C156     1.0000 0.79440  0.49750  0.24670  Biso   1.000  C
  C157     1.0000 0.70560  0.99750  0.24670  Biso   1.000  C
  C158     1.0000 0.79440  0.50250  0.74670  Biso   1.000  C
  C159     1.0000 0.29440  0.99750  0.25330  Biso   1.000  C
  C160     1.0000 0.20560  0.50250  0.75330  Biso   1.000  C
  H153     1.0000 0.30070  0.11930  0.91180  Biso   1.000  H
  H154     1.0000 0.19930  0.38070  0.41180  Biso   1.000  H
  H155     1.0000 0.69930  0.11930  0.58820  Biso   1.000  H
  H156     1.0000 0.80070  0.38070  0.08820  Biso   1.000  H
  H157     1.0000 0.69930  0.88070  0.08820  Biso   1.000  H
  H158     1.0000 0.80070  0.61930  0.58820  Biso   1.000  H
  H159     1.0000 0.30070  0.88070  0.41180  Biso   1.000  H
  H160     1.0000 0.19930  0.61930  0.91180  Biso   1.000  H
  H161     1.0000 0.35100  0.18750  0.90560  Biso   1.000  H
  H162     1.0000 0.14900  0.31250  0.40560  Biso   1.000  H
  H163     1.0000 0.64900  0.18750  0.59440  Biso   1.000  H
  H164     1.0000 0.85100  0.31250  0.09440  Biso   1.000  H
  H165     1.0000 0.64900  0.81250  0.09440  Biso   1.000  H
  H166     1.0000 0.85100  0.68750  0.59440  Biso   1.000  H
  H167     1.0000 0.35100  0.81250  0.40560  Biso   1.000  H
  H168     1.0000 0.14900  0.68750  0.90560  Biso   1.000  H
  H169     1.0000 0.34600  0.02650  0.90360  Biso   1.000  H
  H170     1.0000 0.15400  0.47350  0.40360  Biso   1.000  H
  H171     1.0000 0.65400  0.02650  0.59640  Biso   1.000  H
  H172     1.0000 0.84600  0.47350  0.09640  Biso   1.000  H
  H173     1.0000 0.65400  0.97350  0.09640  Biso   1.000  H
  H174     1.0000 0.84600  0.52650  0.59640  Biso   1.000  H
  H175     1.0000 0.34600  0.97350  0.40360  Biso   1.000  H
  H176     1.0000 0.15400  0.52650  0.90360  Biso   1.000  H
  H177     1.0000 0.32380  0.44550  0.74070  Biso   1.000  H
  H178     1.0000 0.17620  0.05450  0.24070  Biso   1.000  H
  H179     1.0000 0.67620  0.44550  0.75930  Biso   1.000  H
  H180     1.0000 0.82380  0.05450  0.25930  Biso   1.000  H
  H181     1.0000 0.67620  0.55450  0.25930  Biso   1.000  H
  H182     1.0000 0.82380  0.94550  0.75930  Biso   1.000  H
  H183     1.0000 0.32380  0.55450  0.24070  Biso   1.000  H
  H184     1.0000 0.17620  0.94550  0.74070  Biso   1.000  H
  H185     1.0000 0.34800  0.35560  0.66460  Biso   1.000  H
  H186     1.0000 0.15200  0.14440  0.16460  Biso   1.000  H
  H187     1.0000 0.65200  0.35560  0.83540  Biso   1.000  H
  H188     1.0000 0.84800  0.14440  0.33540  Biso   1.000  H
  H189     1.0000 0.65200  0.64440  0.33540  Biso   1.000  H
  H190     1.0000 0.84800  0.85560  0.83540  Biso   1.000  H
  H191     1.0000 0.34800  0.64440  0.16460  Biso   1.000  H
  H192     1.0000 0.15200  0.85560  0.66460  Biso   1.000  H
  H193     1.0000 0.28930  0.23540  0.69450  Biso   1.000  H
  H194     1.0000 0.21070  0.26460  0.19450  Biso   1.000  H
  H195     1.0000 0.71070  0.23540  0.80550  Biso   1.000  H
  H196     1.0000 0.78930  0.26460  0.30550  Biso   1.000  H
  H197     1.0000 0.71070  0.76460  0.30550  Biso   1.000  H
  H198     1.0000 0.78930  0.73540  0.80550  Biso   1.000  H
  H199     1.0000 0.28930  0.76460  0.19450  Biso   1.000  H
  H200     1.0000 0.21070  0.73540  0.69450  Biso   1.000  H
  H201     1.0000 0.28680  0.28110  0.79940  Biso   1.000  H
  H202     1.0000 0.21320  0.21890  0.29940  Biso   1.000  H
  H203     1.0000 0.71320  0.28110  0.70060  Biso   1.000  H
  H204     1.0000 0.78680  0.21890  0.20060  Biso   1.000  H
  H205     1.0000 0.71320  0.71890  0.20060  Biso   1.000  H
  H206     1.0000 0.78680  0.78110  0.70060  Biso   1.000  H
  H207     1.0000 0.28680  0.71890  0.29940  Biso   1.000  H
  H208     1.0000 0.21320  0.78110  0.79940  Biso   1.000  H
  H209     1.0000 0.30020  0.92620  0.79570  Biso   1.000  H
  H210     1.0000 0.19980  0.57380  0.29570  Biso   1.000  H
  H211     1.0000 0.69980  0.92620  0.70430  Biso   1.000  H
  H212     1.0000 0.80020  0.57380  0.20430  Biso   1.000  H
  H213     1.0000 0.69980  0.07380  0.20430  Biso   1.000  H
  H214     1.0000 0.80020  0.42620  0.70430  Biso   1.000  H
  H215     1.0000 0.30020  0.07380  0.29570  Biso   1.000  H
  H216     1.0000 0.19980  0.42620  0.79570  Biso   1.000  H
  H217     1.0000 0.26240  0.03510  0.76560  Biso   1.000  H
  H218     1.0000 0.23760  0.46490  0.26560  Biso   1.000  H
  H219     1.0000 0.73760  0.03510  0.73440  Biso   1.000  H
  H220     1.0000 0.76240  0.46490  0.23440  Biso   1.000  H
  H221     1.0000 0.73760  0.96490  0.23440  Biso   1.000  H
  H222     1.0000 0.76240  0.53510  0.73440  Biso   1.000  H
  H223     1.0000 0.26240  0.96490  0.26560  Biso   1.000  H
  H224     1.0000 0.23760  0.53510  0.76560  Biso   1.000  H
  H225     1.0000 0.29320  0.02540  0.61610  Biso   1.000  H
  H226     1.0000 0.20680  0.47460  0.11610  Biso   1.000  H
  H227     1.0000 0.70680  0.02540  0.88390  Biso   1.000  H
  H228     1.0000 0.79320  0.47460  0.38390  Biso   1.000  H
  H229     1.0000 0.70680  0.97460  0.38390  Biso   1.000  H
  H230     1.0000 0.79320  0.52540  0.88390  Biso   1.000  H
  H231     1.0000 0.29320  0.97460  0.11610  Biso   1.000  H
  H232     1.0000 0.20680  0.52540  0.61610  Biso   1.000  H
  H233     1.0000 0.26700  0.89260  0.65060  Biso   1.000  H
  H234     1.0000 0.23300  0.60740  0.15060  Biso   1.000  H
  H235     1.0000 0.73300  0.89260  0.84940  Biso   1.000  H
  H236     1.0000 0.76700  0.60740  0.34940  Biso   1.000  H
  H237     1.0000 0.73300  0.10740  0.34940  Biso   1.000  H
  H238     1.0000 0.76700  0.39260  0.84940  Biso   1.000  H
  H239     1.0000 0.26700  0.10740  0.15060  Biso   1.000  H
  H240     1.0000 0.23300  0.39260  0.65060  Biso   1.000  H
