data_image0
_cell_length_a       11.3869
_cell_length_b       8.725
_cell_length_c       14.4431
_cell_angle_alpha    90
_cell_angle_beta     107.431
_cell_angle_gamma    90

_symmetry_space_group_name_H-M    "P 1"
_symmetry_int_tables_number       1

loop_
  _symmetry_equiv_pos_as_xyz
  'x, y, z'

loop_
  _atom_site_label
  _atom_site_occupancy
  _atom_site_fract_x
  _atom_site_fract_y
  _atom_site_fract_z
  _atom_site_thermal_displace_type
  _atom_site_B_iso_or_equiv
  _atom_site_type_symbol
  Cu1      1.0000 0.31523  0.37255  0.02731  Biso   1.000  Cu
  Cu2      1.0000 0.18477  0.87255  0.47269  Biso   1.000  Cu
  Cu3      1.0000 0.68477  0.62745  0.97269  Biso   1.000  Cu
  Cu4      1.0000 0.81523  0.12745  0.52731  Biso   1.000  Cu
  N1       1.0000 0.16580  0.19590  0.98574  Biso   1.000  N
  N2       1.0000 0.33420  0.69590  0.51426  Biso   1.000  N
  N3       1.0000 0.83420  0.80410  0.01426  Biso   1.000  N
  N4       1.0000 0.66580  0.30410  0.48574  Biso   1.000  N
  H1       1.0000 0.11110  0.22290  0.92800  Biso   1.000  H
  H2       1.0000 0.38890  0.72290  0.57200  Biso   1.000  H
  H3       1.0000 0.88890  0.77710  0.07200  Biso   1.000  H
  H4       1.0000 0.61110  0.27710  0.42800  Biso   1.000  H
  N5       1.0000 0.53280  0.00650  0.14980  Biso   1.000  N
  N6       1.0000 0.96720  0.50650  0.35020  Biso   1.000  N
  N7       1.0000 0.46720  0.99350  0.85020  Biso   1.000  N
  N8       1.0000 0.03280  0.49350  0.64980  Biso   1.000  N
  H5       1.0000 0.59580  0.96010  0.18730  Biso   1.000  H
  H6       1.0000 0.90420  0.46010  0.31270  Biso   1.000  H
  H7       1.0000 0.40420  0.03990  0.81270  Biso   1.000  H
  H8       1.0000 0.09580  0.53990  0.68730  Biso   1.000  H
  N9       1.0000 0.41150  0.19020  0.07475  Biso   1.000  N
  N10      1.0000 0.08850  0.69020  0.42525  Biso   1.000  N
  N11      1.0000 0.58850  0.80980  0.92525  Biso   1.000  N
  N12      1.0000 0.91150  0.30980  0.57475  Biso   1.000  N
  O1       1.0000 0.21796  0.91780  0.30634  Biso   1.000  O
  O2       1.0000 0.28204  0.41780  0.19366  Biso   1.000  O
  O3       1.0000 0.78204  0.08220  0.69366  Biso   1.000  O
  O4       1.0000 0.71796  0.58220  0.80634  Biso   1.000  O
  O5       1.0000 0.07983  0.01670  0.36802  Biso   1.000  O
  O6       1.0000 0.42017  0.51670  0.13198  Biso   1.000  O
  O7       1.0000 0.92017  0.98330  0.63198  Biso   1.000  O
  O8       1.0000 0.57983  0.48330  0.86802  Biso   1.000  O
  O9       1.0000 0.80141  0.46720  0.02365  Biso   1.000  O
  O10      1.0000 0.69859  0.96720  0.47635  Biso   1.000  O
  O11      1.0000 0.19859  0.53280  0.97635  Biso   1.000  O
  O12      1.0000 0.30141  0.03280  0.52365  Biso   1.000  O
  O13      1.0000 0.79338  0.42040  0.17452  Biso   1.000  O
  O14      1.0000 0.70662  0.92040  0.32548  Biso   1.000  O
  O15      1.0000 0.20662  0.57960  0.82548  Biso   1.000  O
  O16      1.0000 0.29338  0.07960  0.67452  Biso   1.000  O
  O17      1.0000 0.36753  0.36070  0.89335  Biso   1.000  O
  O18      1.0000 0.13247  0.86070  0.60665  Biso   1.000  O
  O19      1.0000 0.63247  0.63930  0.10665  Biso   1.000  O
  O20      1.0000 0.86753  0.13930  0.39335  Biso   1.000  O
  H9       1.0000 0.42620  0.42300  0.89700  Biso   1.000  H
  H10      1.0000 0.07380  0.92300  0.60300  Biso   1.000  H
  H11      1.0000 0.57380  0.57700  0.10300  Biso   1.000  H
  H12      1.0000 0.92620  0.07700  0.39700  Biso   1.000  H
  H13      1.0000 0.30590  0.38500  0.84560  Biso   1.000  H
  H14      1.0000 0.19410  0.88500  0.65440  Biso   1.000  H
  H15      1.0000 0.69410  0.61500  0.15440  Biso   1.000  H
  H16      1.0000 0.80590  0.11500  0.34560  Biso   1.000  H
  O21      1.0000 0.07610  0.66430  0.18195  Biso   1.000  O
  O22      1.0000 0.42390  0.16430  0.31805  Biso   1.000  O
  O23      1.0000 0.92390  0.33570  0.81805  Biso   1.000  O
  O24      1.0000 0.57610  0.83570  0.68195  Biso   1.000  O
  H17      1.0000 0.09430  0.72020  0.23250  Biso   1.000  H
  H18      1.0000 0.40570  0.22020  0.26750  Biso   1.000  H
  H19      1.0000 0.90570  0.27980  0.76750  Biso   1.000  H
  H20      1.0000 0.59430  0.77980  0.73250  Biso   1.000  H
  H21      1.0000 0.13630  0.60570  0.18370  Biso   1.000  H
  H22      1.0000 0.36370  0.10570  0.31630  Biso   1.000  H
  H23      1.0000 0.86370  0.39430  0.81630  Biso   1.000  H
  H24      1.0000 0.63630  0.89430  0.68370  Biso   1.000  H
  C1       1.0000 0.98300  0.20080  0.20020  Biso   1.000  C
  C2       1.0000 0.51700  0.70080  0.29980  Biso   1.000  C
  C3       1.0000 0.01700  0.79920  0.79980  Biso   1.000  C
  C4       1.0000 0.48300  0.29920  0.70020  Biso   1.000  C
  H25      1.0000 0.94240  0.20430  0.24730  Biso   1.000  H
  H26      1.0000 0.55760  0.70430  0.25270  Biso   1.000  H
  H27      1.0000 0.05760  0.79570  0.75270  Biso   1.000  H
  H28      1.0000 0.44240  0.29570  0.74730  Biso   1.000  H
  C5       1.0000 0.08150  0.10220  0.21070  Biso   1.000  C
  C6       1.0000 0.41850  0.60220  0.28930  Biso   1.000  C
  C7       1.0000 0.91850  0.89780  0.78930  Biso   1.000  C
  C8       1.0000 0.58150  0.39780  0.71070  Biso   1.000  C
  C9       1.0000 0.14010  0.09480  0.13880  Biso   1.000  C
  C10      1.0000 0.35990  0.59480  0.36120  Biso   1.000  C
  C11      1.0000 0.85990  0.90520  0.86120  Biso   1.000  C
  C12      1.0000 0.64010  0.40520  0.63880  Biso   1.000  C
  H29      1.0000 0.20450  0.02620  0.14500  Biso   1.000  H
  H30      1.0000 0.29550  0.52620  0.35500  Biso   1.000  H
  H31      1.0000 0.79550  0.97380  0.85500  Biso   1.000  H
  H32      1.0000 0.70450  0.47380  0.64500  Biso   1.000  H
  C13      1.0000 0.10270  0.18960  0.05800  Biso   1.000  C
  C14      1.0000 0.39730  0.68960  0.44200  Biso   1.000  C
  C15      1.0000 0.89730  0.81040  0.94200  Biso   1.000  C
  C16      1.0000 0.60270  0.31040  0.55800  Biso   1.000  C
  C17      1.0000 0.00500  0.28950  0.04930  Biso   1.000  C
  C18      1.0000 0.49500  0.78950  0.45070  Biso   1.000  C
  C19      1.0000 0.99500  0.71050  0.95070  Biso   1.000  C
  C20      1.0000 0.50500  0.21050  0.54930  Biso   1.000  C
  H33      1.0000 0.97980  0.35380  0.99560  Biso   1.000  H
  H34      1.0000 0.52020  0.85380  0.50440  Biso   1.000  H
  H35      1.0000 0.02020  0.64620  0.00440  Biso   1.000  H
  H36      1.0000 0.47980  0.14620  0.49560  Biso   1.000  H
  C21      1.0000 0.94490  0.29480  0.11860  Biso   1.000  C
  C22      1.0000 0.55510  0.79480  0.38140  Biso   1.000  C
  C23      1.0000 0.05510  0.70520  0.88140  Biso   1.000  C
  C24      1.0000 0.44490  0.20520  0.61860  Biso   1.000  C
  C25      1.0000 0.12980  0.00410  0.30010  Biso   1.000  C
  C26      1.0000 0.37020  0.50410  0.19990  Biso   1.000  C
  C27      1.0000 0.87020  0.99590  0.69990  Biso   1.000  C
  C28      1.0000 0.62980  0.49590  0.80010  Biso   1.000  C
  C29      1.0000 0.83770  0.40200  0.10570  Biso   1.000  C
  C30      1.0000 0.66230  0.90200  0.39430  Biso   1.000  C
  C31      1.0000 0.16230  0.59800  0.89430  Biso   1.000  C
  C32      1.0000 0.33770  0.09800  0.60570  Biso   1.000  C
  C33      1.0000 0.23120  0.05470  0.97170  Biso   1.000  C
  C34      1.0000 0.26880  0.55470  0.52830  Biso   1.000  C
  C35      1.0000 0.76880  0.94530  0.02830  Biso   1.000  C
  C36      1.0000 0.73120  0.44530  0.47170  Biso   1.000  C
  H37      1.0000 0.18490  0.96510  0.97990  Biso   1.000  H
  H38      1.0000 0.31510  0.46510  0.52010  Biso   1.000  H
  H39      1.0000 0.81510  0.03490  0.02010  Biso   1.000  H
  H40      1.0000 0.68490  0.53490  0.47990  Biso   1.000  H
  H41      1.0000 0.23850  0.05280  0.90650  Biso   1.000  H
  H42      1.0000 0.26150  0.55280  0.59350  Biso   1.000  H
  H43      1.0000 0.76150  0.94720  0.09350  Biso   1.000  H
  H44      1.0000 0.73850  0.44720  0.40650  Biso   1.000  H
  C37      1.0000 0.35470  0.05160  0.04330  Biso   1.000  C
  C38      1.0000 0.14530  0.55160  0.45670  Biso   1.000  C
  C39      1.0000 0.64530  0.94840  0.95670  Biso   1.000  C
  C40      1.0000 0.85470  0.44840  0.54330  Biso   1.000  C
  C41      1.0000 0.42960  0.93850  0.09090  Biso   1.000  C
  C42      1.0000 0.07040  0.43850  0.40910  Biso   1.000  C
  C43      1.0000 0.57040  0.06150  0.90910  Biso   1.000  C
  C44      1.0000 0.92960  0.56150  0.59090  Biso   1.000  C
  H45      1.0000 0.41370  0.83390  0.08470  Biso   1.000  H
  H46      1.0000 0.08630  0.33390  0.41530  Biso   1.000  H
  H47      1.0000 0.58630  0.16610  0.91530  Biso   1.000  H
  H48      1.0000 0.91370  0.66610  0.58470  Biso   1.000  H
  C45      1.0000 0.51870  0.15780  0.13870  Biso   1.000  C
  C46      1.0000 0.98130  0.65780  0.36130  Biso   1.000  C
  C47      1.0000 0.48130  0.84220  0.86130  Biso   1.000  C
  C48      1.0000 0.01870  0.34220  0.63870  Biso   1.000  C
  H49      1.0000 0.57620  0.23030  0.17130  Biso   1.000  H
  H50      1.0000 0.92380  0.73030  0.32870  Biso   1.000  H
  H51      1.0000 0.42380  0.76970  0.82870  Biso   1.000  H
  H52      1.0000 0.07620  0.26970  0.67130  Biso   1.000  H
