data_image0
_cell_length_a       11.2284
_cell_length_b       17.8717
_cell_length_c       7.1353
_cell_angle_alpha    90
_cell_angle_beta     106.615
_cell_angle_gamma    90

_symmetry_space_group_name_H-M    "P 1"
_symmetry_int_tables_number       1

loop_
  _symmetry_equiv_pos_as_xyz
  'x, y, z'

loop_
  _atom_site_label
  _atom_site_occupancy
  _atom_site_fract_x
  _atom_site_fract_y
  _atom_site_fract_z
  _atom_site_thermal_displace_type
  _atom_site_B_iso_or_equiv
  _atom_site_type_symbol
  Cu1      1.0000 0.50022  0.93716  0.58954  Biso   1.000  Cu
  Cu2      1.0000 0.49978  0.43716  0.91046  Biso   1.000  Cu
  Cu3      1.0000 0.49978  0.06284  0.41046  Biso   1.000  Cu
  Cu4      1.0000 0.50022  0.56284  0.08954  Biso   1.000  Cu
  O1       1.0000 0.63590  0.90471  0.48630  Biso   1.000  O
  O2       1.0000 0.36410  0.40471  0.01370  Biso   1.000  O
  O3       1.0000 0.36410  0.09529  0.51370  Biso   1.000  O
  O4       1.0000 0.63590  0.59529  0.98630  Biso   1.000  O
  O5       1.0000 0.63240  0.01263  0.32860  Biso   1.000  O
  O6       1.0000 0.36760  0.51263  0.17140  Biso   1.000  O
  O7       1.0000 0.36760  0.98737  0.67140  Biso   1.000  O
  O8       1.0000 0.63240  0.48737  0.82860  Biso   1.000  O
  O9       1.0000 0.62170  0.98180  0.81620  Biso   1.000  O
  O10      1.0000 0.37830  0.48180  0.68380  Biso   1.000  O
  O11      1.0000 0.37830  0.01820  0.18380  Biso   1.000  O
  O12      1.0000 0.62170  0.51820  0.31620  Biso   1.000  O
  O13      1.0000 0.61920  0.08985  0.65980  Biso   1.000  O
  O14      1.0000 0.38080  0.58985  0.84020  Biso   1.000  O
  O15      1.0000 0.38080  0.91015  0.34020  Biso   1.000  O
  O16      1.0000 0.61920  0.41015  0.15980  Biso   1.000  O
  O17      1.0000 0.45800  0.83360  0.72250  Biso   1.000  O
  O18      1.0000 0.54200  0.33360  0.77750  Biso   1.000  O
  O19      1.0000 0.54200  0.16640  0.27750  Biso   1.000  O
  O20      1.0000 0.45800  0.66640  0.22250  Biso   1.000  O
  H1       1.0000 0.39700  0.84000  0.75400  Biso   1.000  H
  H2       1.0000 0.60300  0.34000  0.74600  Biso   1.000  H
  H3       1.0000 0.60300  0.16000  0.24600  Biso   1.000  H
  H4       1.0000 0.39700  0.66000  0.25400  Biso   1.000  H
  C1       1.0000 0.67140  0.94820  0.37410  Biso   1.000  C
  C2       1.0000 0.32860  0.44820  0.12590  Biso   1.000  C
  C3       1.0000 0.32860  0.05180  0.62590  Biso   1.000  C
  C4       1.0000 0.67140  0.55180  0.87410  Biso   1.000  C
  C5       1.0000 0.76530  0.91630  0.28000  Biso   1.000  C
  C6       1.0000 0.23470  0.41630  0.22000  Biso   1.000  C
  C7       1.0000 0.23470  0.08370  0.72000  Biso   1.000  C
  C8       1.0000 0.76530  0.58370  0.78000  Biso   1.000  C
  C9       1.0000 0.79320  0.84100  0.30150  Biso   1.000  C
  C10      1.0000 0.20680  0.34100  0.19850  Biso   1.000  C
  C11      1.0000 0.20680  0.15900  0.69850  Biso   1.000  C
  C12      1.0000 0.79320  0.65900  0.80150  Biso   1.000  C
  H5       1.0000 0.76040  0.81230  0.38350  Biso   1.000  H
  H6       1.0000 0.23960  0.31230  0.11650  Biso   1.000  H
  H7       1.0000 0.23960  0.18770  0.61650  Biso   1.000  H
  H8       1.0000 0.76040  0.68770  0.88350  Biso   1.000  H
  C13      1.0000 0.86860  0.80750  0.20400  Biso   1.000  C
  C14      1.0000 0.13140  0.30750  0.29600  Biso   1.000  C
  C15      1.0000 0.13140  0.19250  0.79600  Biso   1.000  C
  C16      1.0000 0.86860  0.69250  0.70400  Biso   1.000  C
  H9       1.0000 0.88560  0.75660  0.21920  Biso   1.000  H
  H10      1.0000 0.11440  0.25660  0.28080  Biso   1.000  H
  H11      1.0000 0.11440  0.24340  0.78080  Biso   1.000  H
  H12      1.0000 0.88560  0.74340  0.71920  Biso   1.000  H
  C17      1.0000 0.91840  0.84930  0.08490  Biso   1.000  C
  C18      1.0000 0.08160  0.34930  0.41510  Biso   1.000  C
  C19      1.0000 0.08160  0.15070  0.91510  Biso   1.000  C
  C20      1.0000 0.91840  0.65070  0.58490  Biso   1.000  C
  H13      1.0000 0.96960  0.82700  0.01900  Biso   1.000  H
  H14      1.0000 0.03040  0.32700  0.48100  Biso   1.000  H
  H15      1.0000 0.03040  0.17300  0.98100  Biso   1.000  H
  H16      1.0000 0.96960  0.67300  0.51900  Biso   1.000  H
  C21      1.0000 0.89270  0.92440  0.06270  Biso   1.000  C
  C22      1.0000 0.10730  0.42440  0.43730  Biso   1.000  C
  C23      1.0000 0.10730  0.07560  0.93730  Biso   1.000  C
  C24      1.0000 0.89270  0.57560  0.56270  Biso   1.000  C
  H17      1.0000 0.92630  0.95220  0.98020  Biso   1.000  H
  H18      1.0000 0.07370  0.45220  0.51980  Biso   1.000  H
  H19      1.0000 0.07370  0.04780  0.01980  Biso   1.000  H
  H20      1.0000 0.92630  0.54780  0.48020  Biso   1.000  H
  C25      1.0000 0.81750  0.96010  0.16060  Biso   1.000  C
  C26      1.0000 0.18250  0.46010  0.33940  Biso   1.000  C
  C27      1.0000 0.18250  0.03990  0.83940  Biso   1.000  C
  C28      1.0000 0.81750  0.53990  0.66060  Biso   1.000  C
  C29      1.0000 0.80870  0.04410  0.14930  Biso   1.000  C
  C30      1.0000 0.19130  0.54410  0.35070  Biso   1.000  C
  C31      1.0000 0.19130  0.95590  0.85070  Biso   1.000  C
  C32      1.0000 0.80870  0.45590  0.64930  Biso   1.000  C
  C33      1.0000 0.88100  0.08430  0.30940  Biso   1.000  C
  C34      1.0000 0.11900  0.58430  0.19060  Biso   1.000  C
  C35      1.0000 0.11900  0.91570  0.69060  Biso   1.000  C
  C36      1.0000 0.88100  0.41570  0.80940  Biso   1.000  C
  H21      1.0000 0.92900  0.05820  0.41750  Biso   1.000  H
  H22      1.0000 0.07100  0.55820  0.08250  Biso   1.000  H
  H23      1.0000 0.07100  0.94180  0.58250  Biso   1.000  H
  H24      1.0000 0.92900  0.44180  0.91750  Biso   1.000  H
  C37      1.0000 0.88350  0.16030  0.31230  Biso   1.000  C
  C38      1.0000 0.11650  0.66030  0.18770  Biso   1.000  C
  C39      1.0000 0.11650  0.83970  0.68770  Biso   1.000  C
  C40      1.0000 0.88350  0.33970  0.81230  Biso   1.000  C
  H25      1.0000 0.93270  0.18530  0.42140  Biso   1.000  H
  H26      1.0000 0.06730  0.68530  0.07860  Biso   1.000  H
  H27      1.0000 0.06730  0.81470  0.57860  Biso   1.000  H
  H28      1.0000 0.93270  0.31470  0.92140  Biso   1.000  H
  C41      1.0000 0.81340  0.20060  0.15400  Biso   1.000  C
  C42      1.0000 0.18660  0.70060  0.34600  Biso   1.000  C
  C43      1.0000 0.18660  0.79940  0.84600  Biso   1.000  C
  C44      1.0000 0.81340  0.29940  0.65400  Biso   1.000  C
  H29      1.0000 0.81360  0.25260  0.15640  Biso   1.000  H
  H30      1.0000 0.18640  0.75260  0.34360  Biso   1.000  H
  H31      1.0000 0.18640  0.74740  0.84360  Biso   1.000  H
  H32      1.0000 0.81360  0.24740  0.65640  Biso   1.000  H
  C45      1.0000 0.74290  0.16230  0.99220  Biso   1.000  C
  C46      1.0000 0.25710  0.66230  0.50780  Biso   1.000  C
  C47      1.0000 0.25710  0.83770  0.00780  Biso   1.000  C
  C48      1.0000 0.74290  0.33770  0.49220  Biso   1.000  C
  H33      1.0000 0.69770  0.18920  0.88340  Biso   1.000  H
  H34      1.0000 0.30230  0.68920  0.61660  Biso   1.000  H
  H35      1.0000 0.30230  0.81080  0.11660  Biso   1.000  H
  H36      1.0000 0.69770  0.31080  0.38340  Biso   1.000  H
  C49      1.0000 0.73790  0.08460  0.98800  Biso   1.000  C
  C50      1.0000 0.26210  0.58460  0.51200  Biso   1.000  C
  C51      1.0000 0.26210  0.91540  0.01200  Biso   1.000  C
  C52      1.0000 0.73790  0.41540  0.48800  Biso   1.000  C
  C53      1.0000 0.65380  0.04850  0.80650  Biso   1.000  C
  C54      1.0000 0.34620  0.54850  0.69350  Biso   1.000  C
  C55      1.0000 0.34620  0.95150  0.19350  Biso   1.000  C
  C56      1.0000 0.65380  0.45150  0.30650  Biso   1.000  C
  C57      1.0000 0.54350  0.80270  0.88560  Biso   1.000  C
  C58      1.0000 0.45650  0.30270  0.61440  Biso   1.000  C
  C59      1.0000 0.45650  0.19730  0.11440  Biso   1.000  C
  C60      1.0000 0.54350  0.69730  0.38560  Biso   1.000  C
  H37      1.0000 0.53880  0.82850  0.00130  Biso   1.000  H
  H38      1.0000 0.46120  0.32850  0.49870  Biso   1.000  H
  H39      1.0000 0.46120  0.17150  0.99870  Biso   1.000  H
  H40      1.0000 0.53880  0.67150  0.50130  Biso   1.000  H
  H41      1.0000 0.62580  0.80760  0.87220  Biso   1.000  H
  H42      1.0000 0.37420  0.30760  0.62780  Biso   1.000  H
  H43      1.0000 0.37420  0.19240  0.12780  Biso   1.000  H
  H44      1.0000 0.62580  0.69240  0.37220  Biso   1.000  H
  H45      1.0000 0.52490  0.75070  0.89580  Biso   1.000  H
  H46      1.0000 0.47510  0.25070  0.60420  Biso   1.000  H
  H47      1.0000 0.47510  0.24930  0.10420  Biso   1.000  H
  H48      1.0000 0.52490  0.74930  0.39580  Biso   1.000  H
