data_image0
_cell_length_a       13.582
_cell_length_b       11.0393
_cell_length_c       11.9075
_cell_angle_alpha    90
_cell_angle_beta     112.066
_cell_angle_gamma    90

_symmetry_space_group_name_H-M    "P 1"
_symmetry_int_tables_number       1

loop_
  _symmetry_equiv_pos_as_xyz
  'x, y, z'

loop_
  _atom_site_label
  _atom_site_occupancy
  _atom_site_fract_x
  _atom_site_fract_y
  _atom_site_fract_z
  _atom_site_thermal_displace_type
  _atom_site_B_iso_or_equiv
  _atom_site_type_symbol
  Cu1      1.0000 0.00000  0.27921  0.25000  Biso   1.000  Cu
  Cu2      1.0000 0.00000  0.72079  0.75000  Biso   1.000  Cu
  O1       1.0000 0.15850  0.26900  0.31960  Biso   1.000  O
  O2       1.0000 0.84150  0.26900  0.18040  Biso   1.000  O
  O3       1.0000 0.84150  0.73100  0.68040  Biso   1.000  O
  O4       1.0000 0.15850  0.73100  0.81960  Biso   1.000  O
  O5       1.0000 0.18670  0.37280  0.48840  Biso   1.000  O
  O6       1.0000 0.81330  0.37280  0.01160  Biso   1.000  O
  O7       1.0000 0.81330  0.62720  0.51160  Biso   1.000  O
  O8       1.0000 0.18670  0.62720  0.98840  Biso   1.000  O
  O9       1.0000 0.31990  0.42490  0.21790  Biso   1.000  O
  O10      1.0000 0.68010  0.42490  0.28210  Biso   1.000  O
  O11      1.0000 0.68010  0.57510  0.78210  Biso   1.000  O
  O12      1.0000 0.31990  0.57510  0.71790  Biso   1.000  O
  O13      1.0000 0.20010  0.38880  0.03530  Biso   1.000  O
  O14      1.0000 0.79990  0.38880  0.46470  Biso   1.000  O
  O15      1.0000 0.79990  0.61120  0.96470  Biso   1.000  O
  O16      1.0000 0.20010  0.61120  0.53530  Biso   1.000  O
  H1       1.0000 0.20250  0.46280  0.03040  Biso   1.000  H
  H2       1.0000 0.79750  0.46280  0.46960  Biso   1.000  H
  H3       1.0000 0.79750  0.53720  0.96960  Biso   1.000  H
  H4       1.0000 0.20250  0.53720  0.53040  Biso   1.000  H
  O17      1.0000 0.00460  0.28120  0.04920  Biso   1.000  O
  O18      1.0000 0.99540  0.28120  0.45080  Biso   1.000  O
  O19      1.0000 0.99540  0.71880  0.95080  Biso   1.000  O
  O20      1.0000 0.00460  0.71880  0.54920  Biso   1.000  O
  H5       1.0000 0.95460  0.32120  0.00380  Biso   1.000  H
  H6       1.0000 0.04540  0.32120  0.49620  Biso   1.000  H
  H7       1.0000 0.04540  0.67880  0.99620  Biso   1.000  H
  H8       1.0000 0.95460  0.67880  0.50380  Biso   1.000  H
  H9       1.0000 0.06280  0.31240  0.05200  Biso   1.000  H
  H10      1.0000 0.93720  0.31240  0.44800  Biso   1.000  H
  H11      1.0000 0.93720  0.68760  0.94800  Biso   1.000  H
  H12      1.0000 0.06280  0.68760  0.55200  Biso   1.000  H
  N1       1.0000 0.00000  0.09980  0.25000  Biso   1.000  N
  N2       1.0000 0.00000  0.90020  0.75000  Biso   1.000  N
  N3       1.0000 0.00000  0.46140  0.25000  Biso   1.000  N
  N4       1.0000 0.00000  0.53860  0.75000  Biso   1.000  N
  C1       1.0000 0.21950  0.31480  0.41810  Biso   1.000  C
  C2       1.0000 0.78050  0.31480  0.08190  Biso   1.000  C
  C3       1.0000 0.78050  0.68520  0.58190  Biso   1.000  C
  C4       1.0000 0.21950  0.68520  0.91810  Biso   1.000  C
  C5       1.0000 0.33730  0.30170  0.45280  Biso   1.000  C
  C6       1.0000 0.66270  0.30170  0.04720  Biso   1.000  C
  C7       1.0000 0.66270  0.69830  0.54720  Biso   1.000  C
  C8       1.0000 0.33730  0.69830  0.95280  Biso   1.000  C
  C9       1.0000 0.40230  0.36020  0.55780  Biso   1.000  C
  C10      1.0000 0.59770  0.36020  0.94220  Biso   1.000  C
  C11      1.0000 0.59770  0.63980  0.44220  Biso   1.000  C
  C12      1.0000 0.40230  0.63980  0.05780  Biso   1.000  C
  H13      1.0000 0.37100  0.40280  0.60310  Biso   1.000  H
  H14      1.0000 0.62900  0.40280  0.89690  Biso   1.000  H
  H15      1.0000 0.62900  0.59720  0.39690  Biso   1.000  H
  H16      1.0000 0.37100  0.59720  0.10310  Biso   1.000  H
  C13      1.0000 0.51100  0.35740  0.59690  Biso   1.000  C
  C14      1.0000 0.48900  0.35740  0.90310  Biso   1.000  C
  C15      1.0000 0.48900  0.64260  0.40310  Biso   1.000  C
  C16      1.0000 0.51100  0.64260  0.09690  Biso   1.000  C
  H17      1.0000 0.55250  0.39990  0.66580  Biso   1.000  H
  H18      1.0000 0.44750  0.39990  0.83420  Biso   1.000  H
  H19      1.0000 0.44750  0.60010  0.33420  Biso   1.000  H
  H20      1.0000 0.55250  0.60010  0.16580  Biso   1.000  H
  C17      1.0000 0.55780  0.29080  0.53270  Biso   1.000  C
  C18      1.0000 0.44220  0.29080  0.96730  Biso   1.000  C
  C19      1.0000 0.44220  0.70920  0.46730  Biso   1.000  C
  C20      1.0000 0.55780  0.70920  0.03270  Biso   1.000  C
  H21      1.0000 0.63140  0.28640  0.55900  Biso   1.000  H
  H22      1.0000 0.36860  0.28640  0.94100  Biso   1.000  H
  H23      1.0000 0.36860  0.71360  0.44100  Biso   1.000  H
  H24      1.0000 0.63140  0.71360  0.05900  Biso   1.000  H
  C21      1.0000 0.49490  0.23060  0.42900  Biso   1.000  C
  C22      1.0000 0.50510  0.23060  0.07100  Biso   1.000  C
  C23      1.0000 0.50510  0.76940  0.57100  Biso   1.000  C
  C24      1.0000 0.49490  0.76940  0.92900  Biso   1.000  C
  H25      1.0000 0.52720  0.18500  0.38680  Biso   1.000  H
  H26      1.0000 0.47280  0.18500  0.11320  Biso   1.000  H
  H27      1.0000 0.47280  0.81500  0.61320  Biso   1.000  H
  H28      1.0000 0.52720  0.81500  0.88680  Biso   1.000  H
  C25      1.0000 0.38470  0.23620  0.38560  Biso   1.000  C
  C26      1.0000 0.61530  0.23620  0.11440  Biso   1.000  C
  C27      1.0000 0.61530  0.76380  0.61440  Biso   1.000  C
  C28      1.0000 0.38470  0.76380  0.88560  Biso   1.000  C
  C29      1.0000 0.32980  0.16630  0.27000  Biso   1.000  C
  C30      1.0000 0.67020  0.16630  0.23000  Biso   1.000  C
  C31      1.0000 0.67020  0.83370  0.73000  Biso   1.000  C
  C32      1.0000 0.32980  0.83370  0.77000  Biso   1.000  C
  C33      1.0000 0.34200  0.04080  0.27560  Biso   1.000  C
  C34      1.0000 0.65800  0.04080  0.22440  Biso   1.000  C
  C35      1.0000 0.65800  0.95920  0.72440  Biso   1.000  C
  C36      1.0000 0.34200  0.95920  0.77560  Biso   1.000  C
  H29      1.0000 0.37650  0.00390  0.35040  Biso   1.000  H
  H30      1.0000 0.62350  0.00390  0.14960  Biso   1.000  H
  H31      1.0000 0.62350  0.99610  0.64960  Biso   1.000  H
  H32      1.0000 0.37650  0.99610  0.85040  Biso   1.000  H
  C37      1.0000 0.30400  0.96960  0.17220  Biso   1.000  C
  C38      1.0000 0.69600  0.96960  0.32780  Biso   1.000  C
  C39      1.0000 0.69600  0.03040  0.82780  Biso   1.000  C
  C40      1.0000 0.30400  0.03040  0.67220  Biso   1.000  C
  H33      1.0000 0.31360  0.88610  0.17780  Biso   1.000  H
  H34      1.0000 0.68640  0.88610  0.32220  Biso   1.000  H
  H35      1.0000 0.68640  0.11390  0.82220  Biso   1.000  H
  H36      1.0000 0.31360  0.11390  0.67780  Biso   1.000  H
  C41      1.0000 0.25230  0.02290  0.06200  Biso   1.000  C
  C42      1.0000 0.74770  0.02290  0.43800  Biso   1.000  C
  C43      1.0000 0.74770  0.97710  0.93800  Biso   1.000  C
  C44      1.0000 0.25230  0.97710  0.56200  Biso   1.000  C
  H37      1.0000 0.22610  0.97550  0.99240  Biso   1.000  H
  H38      1.0000 0.77390  0.97550  0.50760  Biso   1.000  H
  H39      1.0000 0.77390  0.02450  0.00760  Biso   1.000  H
  H40      1.0000 0.22610  0.02450  0.49240  Biso   1.000  H
  C45      1.0000 0.23890  0.14580  0.05390  Biso   1.000  C
  C46      1.0000 0.76110  0.14580  0.44610  Biso   1.000  C
  C47      1.0000 0.76110  0.85420  0.94610  Biso   1.000  C
  C48      1.0000 0.23890  0.85420  0.55390  Biso   1.000  C
  H41      1.0000 0.20280  0.18100  0.97860  Biso   1.000  H
  H42      1.0000 0.79720  0.18100  0.52140  Biso   1.000  H
  H43      1.0000 0.79720  0.81900  0.02140  Biso   1.000  H
  H44      1.0000 0.20280  0.81900  0.47860  Biso   1.000  H
  C49      1.0000 0.27830  0.21950  0.15630  Biso   1.000  C
  C50      1.0000 0.72170  0.21950  0.34370  Biso   1.000  C
  C51      1.0000 0.72170  0.78050  0.84370  Biso   1.000  C
  C52      1.0000 0.27830  0.78050  0.65630  Biso   1.000  C
  C53      1.0000 0.27000  0.35280  0.14250  Biso   1.000  C
  C54      1.0000 0.73000  0.35280  0.35750  Biso   1.000  C
  C55      1.0000 0.73000  0.64720  0.85750  Biso   1.000  C
  C56      1.0000 0.27000  0.64720  0.64250  Biso   1.000  C
  C57      1.0000 0.95200  0.03760  0.31160  Biso   1.000  C
  C58      1.0000 0.04800  0.03760  0.18840  Biso   1.000  C
  C59      1.0000 0.04800  0.96240  0.68840  Biso   1.000  C
  C60      1.0000 0.95200  0.96240  0.81160  Biso   1.000  C
  H45      1.0000 0.91750  0.08000  0.35360  Biso   1.000  H
  H46      1.0000 0.08250  0.08000  0.14640  Biso   1.000  H
  H47      1.0000 0.08250  0.92000  0.64640  Biso   1.000  H
  H48      1.0000 0.91750  0.92000  0.85360  Biso   1.000  H
  C61      1.0000 0.95190  0.91290  0.31490  Biso   1.000  C
  C62      1.0000 0.04810  0.91290  0.18510  Biso   1.000  C
  C63      1.0000 0.04810  0.08710  0.68510  Biso   1.000  C
  C64      1.0000 0.95190  0.08710  0.81490  Biso   1.000  C
  H49      1.0000 0.91960  0.87250  0.36050  Biso   1.000  H
  H50      1.0000 0.08040  0.87250  0.13950  Biso   1.000  H
  H51      1.0000 0.08040  0.12750  0.63950  Biso   1.000  H
  H52      1.0000 0.91960  0.12750  0.86050  Biso   1.000  H
  C65      1.0000 0.00000  0.84770  0.25000  Biso   1.000  C
  C66      1.0000 0.00000  0.15230  0.75000  Biso   1.000  C
  C67      1.0000 0.00000  0.71390  0.25000  Biso   1.000  C
  C68      1.0000 0.00000  0.28610  0.75000  Biso   1.000  C
  C69      1.0000 0.91830  0.64850  0.26400  Biso   1.000  C
  C70      1.0000 0.08170  0.64850  0.23600  Biso   1.000  C
  C71      1.0000 0.08170  0.35150  0.73600  Biso   1.000  C
  C72      1.0000 0.91830  0.35150  0.76400  Biso   1.000  C
  H53      1.0000 0.86180  0.68870  0.27380  Biso   1.000  H
  H54      1.0000 0.13820  0.68870  0.22620  Biso   1.000  H
  H55      1.0000 0.13820  0.31130  0.72620  Biso   1.000  H
  H56      1.0000 0.86180  0.31130  0.77380  Biso   1.000  H
  C73      1.0000 0.92090  0.52450  0.26320  Biso   1.000  C
  C74      1.0000 0.07910  0.52450  0.23680  Biso   1.000  C
  C75      1.0000 0.07910  0.47550  0.73680  Biso   1.000  C
  C76      1.0000 0.92090  0.47550  0.76320  Biso   1.000  C
  H57      1.0000 0.86520  0.48220  0.27220  Biso   1.000  H
  H58      1.0000 0.13480  0.48220  0.22780  Biso   1.000  H
  H59      1.0000 0.13480  0.51780  0.72780  Biso   1.000  H
  H60      1.0000 0.86520  0.51780  0.77220  Biso   1.000  H
