data_image0
_cell_length_a       9.822
_cell_length_b       5.298
_cell_length_c       16.493
_cell_angle_alpha    90
_cell_angle_beta     98.838
_cell_angle_gamma    90

_symmetry_space_group_name_H-M    "P 1"
_symmetry_int_tables_number       1

loop_
  _symmetry_equiv_pos_as_xyz
  'x, y, z'

loop_
  _atom_site_label
  _atom_site_occupancy
  _atom_site_fract_x
  _atom_site_fract_y
  _atom_site_fract_z
  _atom_site_thermal_displace_type
  _atom_site_B_iso_or_equiv
  _atom_site_type_symbol
  Cu1      1.0000 0.93621  0.75048  0.29408  Biso   1.000  Cu
  Cu2      1.0000 0.06379  0.25048  0.70592  Biso   1.000  Cu
  Cu3      1.0000 0.96303  0.28268  0.21894  Biso   1.000  Cu
  Cu4      1.0000 0.03697  0.78268  0.78106  Biso   1.000  Cu
  O1       1.0000 0.76020  0.97480  0.44510  Biso   1.000  O
  O2       1.0000 0.23980  0.47480  0.55490  Biso   1.000  O
  O3       1.0000 0.17050  0.70920  0.02820  Biso   1.000  O
  O4       1.0000 0.82950  0.20920  0.97180  Biso   1.000  O
  O5       1.0000 0.12230  0.84110  0.33640  Biso   1.000  O
  O6       1.0000 0.87770  0.34110  0.66360  Biso   1.000  O
  O7       1.0000 0.93980  0.51520  0.38590  Biso   1.000  O
  O8       1.0000 0.06020  0.01520  0.61410  Biso   1.000  O
  O9       1.0000 0.74790  0.66660  0.25570  Biso   1.000  O
  O10      1.0000 0.25210  0.16660  0.74430  Biso   1.000  O
  O11      1.0000 0.78140  0.36850  0.16290  Biso   1.000  O
  O12      1.0000 0.21860  0.86850  0.83710  Biso   1.000  O
  O13      1.0000 0.04480  0.50080  0.14320  Biso   1.000  O
  O14      1.0000 0.95520  0.00080  0.85680  Biso   1.000  O
  O15      1.0000 0.14910  0.20950  0.27120  Biso   1.000  O
  O16      1.0000 0.85090  0.70950  0.72880  Biso   1.000  O
  C1       1.0000 0.07410  0.86450  0.06350  Biso   1.000  C
  C2       1.0000 0.92590  0.36450  0.93650  Biso   1.000  C
  H1       1.0000 0.99540  0.90110  0.02200  Biso   1.000  H
  H2       1.0000 0.00460  0.40110  0.97800  Biso   1.000  H
  H3       1.0000 0.11780  0.02340  0.08150  Biso   1.000  H
  H4       1.0000 0.88220  0.52340  0.91850  Biso   1.000  H
  O17      1.0000 0.88440  0.15840  0.31640  Biso   1.000  O
  O18      1.0000 0.11560  0.65840  0.68360  Biso   1.000  O
  C3       1.0000 0.56960  0.20770  0.36330  Biso   1.000  C
  C4       1.0000 0.43040  0.70770  0.63670  Biso   1.000  C
  H5       1.0000 0.62620  0.33940  0.35160  Biso   1.000  H
  H6       1.0000 0.37380  0.83940  0.64840  Biso   1.000  H
  C5       1.0000 0.37240  0.46860  0.04850  Biso   1.000  C
  C6       1.0000 0.62760  0.96860  0.95150  Biso   1.000  C
  H7       1.0000 0.33270  0.36750  0.00510  Biso   1.000  H
  H8       1.0000 0.66730  0.86750  0.99490  Biso   1.000  H
  C7       1.0000 0.42960  0.21220  0.33340  Biso   1.000  C
  C8       1.0000 0.57040  0.71220  0.66660  Biso   1.000  C
  H9       1.0000 0.39300  0.34760  0.30140  Biso   1.000  H
  H10      1.0000 0.60700  0.84760  0.69860  Biso   1.000  H
  C9       1.0000 0.56340  0.56760  0.15270  Biso   1.000  C
  C10      1.0000 0.43660  0.06760  0.84730  Biso   1.000  C
  C11      1.0000 0.34280  0.01770  0.35050  Biso   1.000  C
  C12      1.0000 0.65720  0.51770  0.64950  Biso   1.000  C
  C13      1.0000 0.39800  0.81550  0.39800  Biso   1.000  C
  C14      1.0000 0.60200  0.31550  0.60200  Biso   1.000  C
  H11      1.0000 0.34110  0.68350  0.40890  Biso   1.000  H
  H12      1.0000 0.65890  0.18350  0.59110  Biso   1.000  H
  C15      1.0000 0.53740  0.80830  0.42940  Biso   1.000  C
  C16      1.0000 0.46260  0.30830  0.57060  Biso   1.000  C
  H13      1.0000 0.57310  0.67470  0.46260  Biso   1.000  H
  H14      1.0000 0.42690  0.17470  0.53740  Biso   1.000  H
  C17      1.0000 0.19310  0.02650  0.31800  Biso   1.000  C
  C18      1.0000 0.80690  0.52650  0.68200  Biso   1.000  C
  C19      1.0000 0.62450  0.00390  0.41090  Biso   1.000  C
  C20      1.0000 0.37550  0.50390  0.58910  Biso   1.000  C
  C21      1.0000 0.84130  0.19760  0.45650  Biso   1.000  C
  C22      1.0000 0.15870  0.69760  0.54350  Biso   1.000  C
  H15      1.0000 0.92120  0.16470  0.49750  Biso   1.000  H
  H16      1.0000 0.07880  0.66470  0.50250  Biso   1.000  H
  H17      1.0000 0.78770  0.32900  0.47770  Biso   1.000  H
  H18      1.0000 0.21230  0.82900  0.52230  Biso   1.000  H
  C23      1.0000 0.29720  0.67060  0.07420  Biso   1.000  C
  C24      1.0000 0.70280  0.17060  0.92580  Biso   1.000  C
  O19      1.0000 0.96000  0.86810  0.17980  Biso   1.000  O
  O20      1.0000 0.04000  0.36810  0.82020  Biso   1.000  O
  C25      1.0000 0.48650  0.76200  0.17950  Biso   1.000  C
  C26      1.0000 0.51350  0.26200  0.82050  Biso   1.000  C
  H19      1.0000 0.52410  0.85900  0.22440  Biso   1.000  H
  H20      1.0000 0.47590  0.35900  0.77560  Biso   1.000  H
  C27      1.0000 0.89060  0.29530  0.37890  Biso   1.000  C
  C28      1.0000 0.10940  0.79530  0.62110  Biso   1.000  C
  C29      1.0000 0.35330  0.81400  0.13970  Biso   1.000  C
  C30      1.0000 0.64670  0.31400  0.86030  Biso   1.000  C
  H21      1.0000 0.30310  0.94580  0.15780  Biso   1.000  H
  H22      1.0000 0.69690  0.44580  0.84220  Biso   1.000  H
  C31      1.0000 0.50560  0.41770  0.08700  Biso   1.000  C
  C32      1.0000 0.49440  0.91770  0.91300  Biso   1.000  C
  H23      1.0000 0.55550  0.28520  0.06910  Biso   1.000  H
  H24      1.0000 0.44450  0.78520  0.93090  Biso   1.000  H
  C33      1.0000 0.02590  0.73490  0.13530  Biso   1.000  C
  C34      1.0000 0.97410  0.23490  0.86470  Biso   1.000  C
  C35      1.0000 0.70720  0.53110  0.19340  Biso   1.000  C
  C36      1.0000 0.29280  0.03110  0.80660  Biso   1.000  C
