data_image0
_cell_length_a       13.22
_cell_length_b       7.6773
_cell_length_c       18.315
_cell_angle_alpha    90
_cell_angle_beta     110.36
_cell_angle_gamma    90

_symmetry_space_group_name_H-M    "P 1"
_symmetry_int_tables_number       1

loop_
  _symmetry_equiv_pos_as_xyz
  'x, y, z'

loop_
  _atom_site_label
  _atom_site_occupancy
  _atom_site_fract_x
  _atom_site_fract_y
  _atom_site_fract_z
  _atom_site_thermal_displace_type
  _atom_site_B_iso_or_equiv
  _atom_site_type_symbol
  Cu1      1.0000 0.63514  0.11446  0.19480  Biso   1.000  Cu
  Cu2      1.0000 0.86486  0.61446  0.30520  Biso   1.000  Cu
  Cu3      1.0000 0.36486  0.88554  0.80520  Biso   1.000  Cu
  Cu4      1.0000 0.13514  0.38554  0.69480  Biso   1.000  Cu
  Cl1      1.0000 0.73295  0.45839  0.21657  Biso   1.000  Cl
  Cl2      1.0000 0.76705  0.95839  0.28343  Biso   1.000  Cl
  Cl3      1.0000 0.26705  0.54161  0.78343  Biso   1.000  Cl
  Cl4      1.0000 0.23295  0.04161  0.71657  Biso   1.000  Cl
  N1       1.0000 0.68330  0.05350  0.10660  Biso   1.000  N
  N2       1.0000 0.81670  0.55350  0.39340  Biso   1.000  N
  N3       1.0000 0.31670  0.94650  0.89340  Biso   1.000  N
  N4       1.0000 0.18330  0.44650  0.60660  Biso   1.000  N
  N5       1.0000 0.51970  0.23820  0.11210  Biso   1.000  N
  N6       1.0000 0.98030  0.73820  0.38790  Biso   1.000  N
  N7       1.0000 0.48030  0.76180  0.88790  Biso   1.000  N
  N8       1.0000 0.01970  0.26180  0.61210  Biso   1.000  N
  N9       1.0000 0.93800  0.30180  0.09430  Biso   1.000  N
  N10      1.0000 0.56200  0.80180  0.40570  Biso   1.000  N
  N11      1.0000 0.06200  0.69820  0.90570  Biso   1.000  N
  N12      1.0000 0.43800  0.19820  0.59430  Biso   1.000  N
  O1       1.0000 0.56730  0.14710  0.26858  Biso   1.000  O
  O2       1.0000 0.93270  0.64710  0.23142  Biso   1.000  O
  O3       1.0000 0.43270  0.85290  0.73142  Biso   1.000  O
  O4       1.0000 0.06730  0.35290  0.76858  Biso   1.000  O
  O5       1.0000 0.81630  0.45130  0.99540  Biso   1.000  O
  O6       1.0000 0.68370  0.95130  0.50460  Biso   1.000  O
  O7       1.0000 0.18370  0.54870  0.00460  Biso   1.000  O
  O8       1.0000 0.31630  0.04870  0.49540  Biso   1.000  O
  C1       1.0000 0.43940  0.31960  0.12230  Biso   1.000  C
  C2       1.0000 0.06060  0.81960  0.37770  Biso   1.000  C
  C3       1.0000 0.56060  0.68040  0.87770  Biso   1.000  C
  C4       1.0000 0.93940  0.18040  0.62230  Biso   1.000  C
  H1       1.0000 0.39320  0.38140  0.08020  Biso   1.000  H
  H2       1.0000 0.10680  0.88140  0.41980  Biso   1.000  H
  H3       1.0000 0.60680  0.61860  0.91980  Biso   1.000  H
  H4       1.0000 0.89320  0.11860  0.58020  Biso   1.000  H
  C5       1.0000 0.41630  0.32160  0.19250  Biso   1.000  C
  C6       1.0000 0.08370  0.82160  0.30750  Biso   1.000  C
  C7       1.0000 0.58370  0.67840  0.80750  Biso   1.000  C
  C8       1.0000 0.91630  0.17840  0.69250  Biso   1.000  C
  C9       1.0000 0.47850  0.23190  0.26050  Biso   1.000  C
  C10      1.0000 0.02150  0.73190  0.23950  Biso   1.000  C
  C11      1.0000 0.52150  0.76810  0.73950  Biso   1.000  C
  C12      1.0000 0.97850  0.26810  0.76050  Biso   1.000  C
  C13      1.0000 0.44080  0.23430  0.32400  Biso   1.000  C
  C14      1.0000 0.05920  0.73430  0.17600  Biso   1.000  C
  C15      1.0000 0.55920  0.76570  0.67600  Biso   1.000  C
  C16      1.0000 0.94080  0.26570  0.82400  Biso   1.000  C
  H5       1.0000 0.47900  0.17370  0.36920  Biso   1.000  H
  H6       1.0000 0.02100  0.67370  0.13080  Biso   1.000  H
  H7       1.0000 0.52100  0.82630  0.63080  Biso   1.000  H
  H8       1.0000 0.97900  0.32630  0.86920  Biso   1.000  H
  C17      1.0000 0.34970  0.32340  0.32070  Biso   1.000  C
  C18      1.0000 0.15030  0.82340  0.17930  Biso   1.000  C
  C19      1.0000 0.65030  0.67660  0.67930  Biso   1.000  C
  C20      1.0000 0.84970  0.17660  0.82070  Biso   1.000  C
  H9       1.0000 0.32690  0.32150  0.36330  Biso   1.000  H
  H10      1.0000 0.17310  0.82150  0.13670  Biso   1.000  H
  H11      1.0000 0.67310  0.67850  0.63670  Biso   1.000  H
  H12      1.0000 0.82690  0.17850  0.86330  Biso   1.000  H
  C21      1.0000 0.29130  0.41600  0.25490  Biso   1.000  C
  C22      1.0000 0.20870  0.91600  0.24510  Biso   1.000  C
  C23      1.0000 0.70870  0.58400  0.74510  Biso   1.000  C
  C24      1.0000 0.79130  0.08400  0.75490  Biso   1.000  C
  H13      1.0000 0.23080  0.47920  0.25390  Biso   1.000  H
  H14      1.0000 0.26920  0.97920  0.24610  Biso   1.000  H
  H15      1.0000 0.76920  0.52080  0.74610  Biso   1.000  H
  H16      1.0000 0.73080  0.02080  0.75390  Biso   1.000  H
  C25      1.0000 0.32280  0.41420  0.19160  Biso   1.000  C
  C26      1.0000 0.17720  0.91420  0.30840  Biso   1.000  C
  C27      1.0000 0.67720  0.58580  0.80840  Biso   1.000  C
  C28      1.0000 0.82280  0.08580  0.69160  Biso   1.000  C
  H17      1.0000 0.28240  0.47460  0.14690  Biso   1.000  H
  H18      1.0000 0.21760  0.97460  0.35310  Biso   1.000  H
  H19      1.0000 0.71760  0.52540  0.85310  Biso   1.000  H
  H20      1.0000 0.78240  0.02540  0.64690  Biso   1.000  H
  C29      1.0000 0.53170  0.23090  0.03820  Biso   1.000  C
  C30      1.0000 0.96830  0.73090  0.46180  Biso   1.000  C
  C31      1.0000 0.46830  0.76910  0.96180  Biso   1.000  C
  C32      1.0000 0.03170  0.26910  0.53820  Biso   1.000  C
  C33      1.0000 0.46590  0.30220  0.96960  Biso   1.000  C
  C34      1.0000 0.03410  0.80220  0.53040  Biso   1.000  C
  C35      1.0000 0.53410  0.69780  0.03040  Biso   1.000  C
  C36      1.0000 0.96590  0.19780  0.46960  Biso   1.000  C
  H21      1.0000 0.40660  0.36840  0.96870  Biso   1.000  H
  H22      1.0000 0.09340  0.86840  0.53130  Biso   1.000  H
  H23      1.0000 0.59340  0.63160  0.03130  Biso   1.000  H
  H24      1.0000 0.90660  0.13160  0.46870  Biso   1.000  H
  C37      1.0000 0.48760  0.27580  0.90070  Biso   1.000  C
  C38      1.0000 0.01240  0.77580  0.59930  Biso   1.000  C
  C39      1.0000 0.51240  0.72420  0.09930  Biso   1.000  C
  C40      1.0000 0.98760  0.22420  0.40070  Biso   1.000  C
  H25      1.0000 0.44260  0.32740  0.85500  Biso   1.000  H
  H26      1.0000 0.05740  0.82740  0.64500  Biso   1.000  H
  H27      1.0000 0.55740  0.67260  0.14500  Biso   1.000  H
  H28      1.0000 0.94260  0.17260  0.35500  Biso   1.000  H
  C41      1.0000 0.57170  0.17780  0.89850  Biso   1.000  C
  C42      1.0000 0.92830  0.67780  0.60150  Biso   1.000  C
  C43      1.0000 0.42830  0.82220  0.10150  Biso   1.000  C
  C44      1.0000 0.07170  0.32220  0.39850  Biso   1.000  C
  H29      1.0000 0.58370  0.16240  0.85180  Biso   1.000  H
  H30      1.0000 0.91630  0.66240  0.64820  Biso   1.000  H
  H31      1.0000 0.41630  0.83760  0.14820  Biso   1.000  H
  H32      1.0000 0.08370  0.33760  0.35180  Biso   1.000  H
  C45      1.0000 0.64070  0.09940  0.96710  Biso   1.000  C
  C46      1.0000 0.85930  0.59940  0.53290  Biso   1.000  C
  C47      1.0000 0.35930  0.90060  0.03290  Biso   1.000  C
  C48      1.0000 0.14070  0.40060  0.46710  Biso   1.000  C
  C49      1.0000 0.62130  0.12750  0.03770  Biso   1.000  C
  C50      1.0000 0.87870  0.62750  0.46230  Biso   1.000  C
  C51      1.0000 0.37870  0.87250  0.96230  Biso   1.000  C
  C52      1.0000 0.12130  0.37250  0.53770  Biso   1.000  C
  C53      1.0000 0.76260  0.94710  0.10670  Biso   1.000  C
  C54      1.0000 0.73740  0.44710  0.39330  Biso   1.000  C
  C55      1.0000 0.23740  0.05290  0.89330  Biso   1.000  C
  C56      1.0000 0.26260  0.55290  0.60670  Biso   1.000  C
  H33      1.0000 0.80480  0.89630  0.15340  Biso   1.000  H
  H34      1.0000 0.69520  0.39630  0.34660  Biso   1.000  H
  H35      1.0000 0.19520  0.10370  0.84660  Biso   1.000  H
  H36      1.0000 0.30480  0.60370  0.65340  Biso   1.000  H
  C57      1.0000 0.78530  0.90820  0.03920  Biso   1.000  C
  C58      1.0000 0.71470  0.40820  0.46080  Biso   1.000  C
  C59      1.0000 0.21470  0.09180  0.96080  Biso   1.000  C
  C60      1.0000 0.28530  0.59180  0.53920  Biso   1.000  C
  H37      1.0000 0.84010  0.83060  0.04110  Biso   1.000  H
  H38      1.0000 0.65990  0.33060  0.45890  Biso   1.000  H
  H39      1.0000 0.15990  0.16940  0.95890  Biso   1.000  H
  H40      1.0000 0.34010  0.66940  0.54110  Biso   1.000  H
  C61      1.0000 0.72590  0.98560  0.97130  Biso   1.000  C
  C62      1.0000 0.77410  0.48560  0.52870  Biso   1.000  C
  C63      1.0000 0.27410  0.01440  0.02870  Biso   1.000  C
  C64      1.0000 0.22590  0.51440  0.47130  Biso   1.000  C
  H41      1.0000 0.74190  0.96310  0.92660  Biso   1.000  H
  H42      1.0000 0.75810  0.46310  0.57340  Biso   1.000  H
  H43      1.0000 0.25810  0.03690  0.07340  Biso   1.000  H
  H44      1.0000 0.24190  0.53690  0.42660  Biso   1.000  H
  C65      1.0000 0.84970  0.39790  0.06200  Biso   1.000  C
  C66      1.0000 0.65030  0.89790  0.43800  Biso   1.000  C
  C67      1.0000 0.15030  0.60210  0.93800  Biso   1.000  C
  C68      1.0000 0.34970  0.10210  0.56200  Biso   1.000  C
  H45      1.0000 0.81000  0.42670  0.09340  Biso   1.000  H
  H46      1.0000 0.69000  0.92670  0.40660  Biso   1.000  H
  H47      1.0000 0.19000  0.57330  0.90660  Biso   1.000  H
  H48      1.0000 0.31000  0.07330  0.59340  Biso   1.000  H
  C69      1.0000 0.97280  0.24760  0.17430  Biso   1.000  C
  C70      1.0000 0.52720  0.74760  0.32570  Biso   1.000  C
  C71      1.0000 0.02720  0.75240  0.82570  Biso   1.000  C
  C72      1.0000 0.47280  0.25240  0.67430  Biso   1.000  C
  H49      1.0000 0.04010  0.30290  0.20270  Biso   1.000  H
  H50      1.0000 0.45990  0.80290  0.29730  Biso   1.000  H
  H51      1.0000 0.95990  0.69710  0.79730  Biso   1.000  H
  H52      1.0000 0.54010  0.19710  0.70270  Biso   1.000  H
  H53      1.0000 0.98200  0.12350  0.17720  Biso   1.000  H
  H54      1.0000 0.51800  0.62350  0.32280  Biso   1.000  H
  H55      1.0000 0.01800  0.87650  0.82280  Biso   1.000  H
  H56      1.0000 0.48200  0.37650  0.67720  Biso   1.000  H
  H57      1.0000 0.91950  0.28020  0.19640  Biso   1.000  H
  H58      1.0000 0.58050  0.78020  0.30360  Biso   1.000  H
  H59      1.0000 0.08050  0.71980  0.80360  Biso   1.000  H
  H60      1.0000 0.41950  0.21980  0.69640  Biso   1.000  H
  C73      1.0000 0.00500  0.25280  0.05030  Biso   1.000  C
  C74      1.0000 0.49500  0.75280  0.44970  Biso   1.000  C
  C75      1.0000 0.99500  0.74720  0.94970  Biso   1.000  C
  C76      1.0000 0.50500  0.24720  0.55030  Biso   1.000  C
  H61      1.0000 0.01430  0.12860  0.05240  Biso   1.000  H
  H62      1.0000 0.48570  0.62860  0.44760  Biso   1.000  H
  H63      1.0000 0.98570  0.87140  0.94760  Biso   1.000  H
  H64      1.0000 0.51430  0.37140  0.55240  Biso   1.000  H
  H65      1.0000 0.07410  0.30820  0.07220  Biso   1.000  H
  H66      1.0000 0.42590  0.80820  0.42780  Biso   1.000  H
  H67      1.0000 0.92590  0.69180  0.92780  Biso   1.000  H
  H68      1.0000 0.57410  0.19180  0.57220  Biso   1.000  H
  H69      1.0000 0.97120  0.28880  0.99720  Biso   1.000  H
  H70      1.0000 0.52880  0.78880  0.50280  Biso   1.000  H
  H71      1.0000 0.02880  0.71120  0.00280  Biso   1.000  H
  H72      1.0000 0.47120  0.21120  0.49720  Biso   1.000  H
