data_image0
_cell_length_a       7.061
_cell_length_b       29.885
_cell_length_c       16.526
_cell_angle_alpha    90
_cell_angle_beta     96.87
_cell_angle_gamma    90

_symmetry_space_group_name_H-M    "P 1"
_symmetry_int_tables_number       1

loop_
  _symmetry_equiv_pos_as_xyz
  'x, y, z'

loop_
  _atom_site_label
  _atom_site_occupancy
  _atom_site_fract_x
  _atom_site_fract_y
  _atom_site_fract_z
  _atom_site_thermal_displace_type
  _atom_site_B_iso_or_equiv
  _atom_site_type_symbol
  C1       1.0000 0.09230  0.39061  0.48270  Biso   1.000  C
  C2       1.0000 0.90770  0.89061  0.01730  Biso   1.000  C
  C3       1.0000 0.90770  0.60939  0.51730  Biso   1.000  C
  C4       1.0000 0.09230  0.10939  0.98270  Biso   1.000  C
  C5       1.0000 0.15590  0.34070  0.35830  Biso   1.000  C
  C6       1.0000 0.84410  0.84070  0.14170  Biso   1.000  C
  C7       1.0000 0.84410  0.65930  0.64170  Biso   1.000  C
  C8       1.0000 0.15590  0.15930  0.85830  Biso   1.000  C
  C9       1.0000 0.23290  0.27490  0.45200  Biso   1.000  C
  C10      1.0000 0.76710  0.77490  0.04800  Biso   1.000  C
  C11      1.0000 0.76710  0.72510  0.54800  Biso   1.000  C
  C12      1.0000 0.23290  0.22510  0.95200  Biso   1.000  C
  C13      1.0000 0.17070  0.32234  0.57850  Biso   1.000  C
  C14      1.0000 0.82930  0.82234  0.92150  Biso   1.000  C
  C15      1.0000 0.82930  0.67766  0.42150  Biso   1.000  C
  C16      1.0000 0.17070  0.17766  0.07850  Biso   1.000  C
  C17      1.0000 0.41860  0.40052  0.41560  Biso   1.000  C
  C18      1.0000 0.58140  0.90052  0.08440  Biso   1.000  C
  C19      1.0000 0.58140  0.59948  0.58440  Biso   1.000  C
  C20      1.0000 0.41860  0.09948  0.91560  Biso   1.000  C
  C21      1.0000 0.52040  0.31791  0.39960  Biso   1.000  C
  C22      1.0000 0.47960  0.81791  0.10040  Biso   1.000  C
  C23      1.0000 0.47960  0.68209  0.60040  Biso   1.000  C
  C24      1.0000 0.52040  0.18209  0.89960  Biso   1.000  C
  C25      1.0000 0.51820  0.30134  0.55190  Biso   1.000  C
  C26      1.0000 0.48180  0.80134  0.94810  Biso   1.000  C
  C27      1.0000 0.48180  0.69866  0.44810  Biso   1.000  C
  C28      1.0000 0.51820  0.19866  0.05190  Biso   1.000  C
  C29      1.0000 0.44860  0.38631  0.57290  Biso   1.000  C
  C30      1.0000 0.55140  0.88631  0.92710  Biso   1.000  C
  C31      1.0000 0.55140  0.61369  0.42710  Biso   1.000  C
  C32      1.0000 0.44860  0.11369  0.07290  Biso   1.000  C
  C33      1.0000 0.86230  0.51888  0.33250  Biso   1.000  C
  C34      1.0000 0.13770  0.01888  0.16750  Biso   1.000  C
  C35      1.0000 0.13770  0.48112  0.66750  Biso   1.000  C
  C36      1.0000 0.86230  0.98112  0.83250  Biso   1.000  C
  H1       1.0000 0.88740  0.55110  0.33520  Biso   1.000  H
  H2       1.0000 0.11260  0.05110  0.16480  Biso   1.000  H
  H3       1.0000 0.11260  0.44890  0.66480  Biso   1.000  H
  H4       1.0000 0.88740  0.94890  0.83520  Biso   1.000  H
  C37      1.0000 0.72640  0.51040  0.25690  Biso   1.000  C
  C38      1.0000 0.27360  0.01040  0.24310  Biso   1.000  C
  C39      1.0000 0.27360  0.48960  0.74310  Biso   1.000  C
  C40      1.0000 0.72640  0.98960  0.75690  Biso   1.000  C
  H5       1.0000 0.61130  0.52790  0.25890  Biso   1.000  H
  H6       1.0000 0.38870  0.02790  0.24110  Biso   1.000  H
  H7       1.0000 0.38870  0.47210  0.74110  Biso   1.000  H
  H8       1.0000 0.61130  0.97210  0.75890  Biso   1.000  H
  H9       1.0000 0.69120  0.47900  0.25430  Biso   1.000  H
  H10      1.0000 0.30880  0.97900  0.24570  Biso   1.000  H
  H11      1.0000 0.30880  0.52100  0.74570  Biso   1.000  H
  H12      1.0000 0.69120  0.02100  0.75430  Biso   1.000  H
  C41      1.0000 0.81680  0.52293  0.18130  Biso   1.000  C
  C42      1.0000 0.18320  0.02293  0.31870  Biso   1.000  C
  C43      1.0000 0.18320  0.47707  0.81870  Biso   1.000  C
  C44      1.0000 0.81680  0.97707  0.68130  Biso   1.000  C
  H13      1.0000 0.73160  0.51440  0.13340  Biso   1.000  H
  H14      1.0000 0.26840  0.01440  0.36660  Biso   1.000  H
  H15      1.0000 0.26840  0.48560  0.86660  Biso   1.000  H
  H16      1.0000 0.73160  0.98560  0.63340  Biso   1.000  H
  H17      1.0000 0.83310  0.55510  0.18000  Biso   1.000  H
  H18      1.0000 0.16690  0.05510  0.32000  Biso   1.000  H
  H19      1.0000 0.16690  0.44490  0.82000  Biso   1.000  H
  H20      1.0000 0.83310  0.94490  0.68000  Biso   1.000  H
  C45      1.0000 0.00370  0.50121  0.17840  Biso   1.000  C
  C46      1.0000 0.99630  0.00121  0.32160  Biso   1.000  C
  C47      1.0000 0.99630  0.49879  0.82160  Biso   1.000  C
  C48      1.0000 0.00370  0.99879  0.67840  Biso   1.000  C
  H21      1.0000 0.06090  0.51310  0.13230  Biso   1.000  H
  H22      1.0000 0.93910  0.01310  0.36770  Biso   1.000  H
  H23      1.0000 0.93910  0.48690  0.86770  Biso   1.000  H
  H24      1.0000 0.06090  0.98690  0.63230  Biso   1.000  H
  H25      1.0000 0.98390  0.46940  0.16930  Biso   1.000  H
  H26      1.0000 0.01610  0.96940  0.33070  Biso   1.000  H
  H27      1.0000 0.01610  0.53060  0.83070  Biso   1.000  H
  H28      1.0000 0.98390  0.03060  0.66930  Biso   1.000  H
  C49      1.0000 0.14370  0.50792  0.25640  Biso   1.000  C
  C50      1.0000 0.85630  0.00792  0.24360  Biso   1.000  C
  C51      1.0000 0.85630  0.49208  0.74360  Biso   1.000  C
  C52      1.0000 0.14370  0.99208  0.75640  Biso   1.000  C
  H29      1.0000 0.25480  0.48910  0.25430  Biso   1.000  H
  H30      1.0000 0.74520  0.98910  0.24570  Biso   1.000  H
  H31      1.0000 0.74520  0.51090  0.74570  Biso   1.000  H
  H32      1.0000 0.25480  0.01090  0.75430  Biso   1.000  H
  H33      1.0000 0.18590  0.53880  0.25990  Biso   1.000  H
  H34      1.0000 0.81410  0.03880  0.24010  Biso   1.000  H
  H35      1.0000 0.81410  0.46120  0.74010  Biso   1.000  H
  H36      1.0000 0.18590  0.96120  0.75990  Biso   1.000  H
  C53      1.0000 0.04740  0.49614  0.33080  Biso   1.000  C
  C54      1.0000 0.95260  0.99614  0.16920  Biso   1.000  C
  C55      1.0000 0.95260  0.50386  0.66920  Biso   1.000  C
  C56      1.0000 0.04740  0.00386  0.83080  Biso   1.000  C
  H37      1.0000 0.02120  0.46390  0.32810  Biso   1.000  H
  H38      1.0000 0.97880  0.96390  0.17190  Biso   1.000  H
  H39      1.0000 0.97880  0.53610  0.67190  Biso   1.000  H
  H40      1.0000 0.02120  0.03610  0.82810  Biso   1.000  H
  C57      1.0000 0.56890  0.17833  0.28560  Biso   1.000  C
  C58      1.0000 0.43110  0.67833  0.21440  Biso   1.000  C
  C59      1.0000 0.43110  0.82167  0.71440  Biso   1.000  C
  C60      1.0000 0.56890  0.32167  0.78560  Biso   1.000  C
  H41      1.0000 0.58040  0.16400  0.23310  Biso   1.000  H
  H42      1.0000 0.41960  0.66400  0.26690  Biso   1.000  H
  H43      1.0000 0.41960  0.83600  0.76690  Biso   1.000  H
  H44      1.0000 0.58040  0.33600  0.73310  Biso   1.000  H
  C61      1.0000 0.49630  0.14266  0.34080  Biso   1.000  C
  C62      1.0000 0.50370  0.64266  0.15920  Biso   1.000  C
  C63      1.0000 0.50370  0.85734  0.65920  Biso   1.000  C
  C64      1.0000 0.49630  0.35734  0.84080  Biso   1.000  C
  H45      1.0000 0.47470  0.15610  0.39230  Biso   1.000  H
  H46      1.0000 0.52530  0.65610  0.10770  Biso   1.000  H
  H47      1.0000 0.52530  0.84390  0.60770  Biso   1.000  H
  H48      1.0000 0.47470  0.34390  0.89230  Biso   1.000  H
  H49      1.0000 0.37580  0.13090  0.31530  Biso   1.000  H
  H50      1.0000 0.62420  0.63090  0.18470  Biso   1.000  H
  H51      1.0000 0.62420  0.86910  0.68470  Biso   1.000  H
  H52      1.0000 0.37580  0.36910  0.81530  Biso   1.000  H
  C65      1.0000 0.63880  0.10483  0.35630  Biso   1.000  C
  C66      1.0000 0.36120  0.60483  0.14370  Biso   1.000  C
  C67      1.0000 0.36120  0.89517  0.64370  Biso   1.000  C
  C68      1.0000 0.63880  0.39517  0.85630  Biso   1.000  C
  H53      1.0000 0.64300  0.08820  0.30620  Biso   1.000  H
  H54      1.0000 0.35700  0.58820  0.19380  Biso   1.000  H
  H55      1.0000 0.35700  0.91180  0.69380  Biso   1.000  H
  H56      1.0000 0.64300  0.41180  0.80620  Biso   1.000  H
  H57      1.0000 0.59630  0.08460  0.39630  Biso   1.000  H
  H58      1.0000 0.40370  0.58460  0.10370  Biso   1.000  H
  H59      1.0000 0.40370  0.91540  0.60370  Biso   1.000  H
  H60      1.0000 0.59630  0.41540  0.89630  Biso   1.000  H
  C69      1.0000 0.83780  0.12140  0.38660  Biso   1.000  C
  C70      1.0000 0.16220  0.62140  0.11340  Biso   1.000  C
  C71      1.0000 0.16220  0.87860  0.61340  Biso   1.000  C
  C72      1.0000 0.83780  0.37860  0.88660  Biso   1.000  C
  H61      1.0000 0.83880  0.13310  0.44130  Biso   1.000  H
  H62      1.0000 0.16120  0.63310  0.05870  Biso   1.000  H
  H63      1.0000 0.16120  0.86690  0.55870  Biso   1.000  H
  H64      1.0000 0.83880  0.36690  0.94130  Biso   1.000  H
  H65      1.0000 0.92610  0.09640  0.38900  Biso   1.000  H
  H66      1.0000 0.07390  0.59640  0.11100  Biso   1.000  H
  H67      1.0000 0.07390  0.90360  0.61100  Biso   1.000  H
  H68      1.0000 0.92610  0.40360  0.88900  Biso   1.000  H
  C73      1.0000 0.90400  0.15732  0.33220  Biso   1.000  C
  C74      1.0000 0.09600  0.65732  0.16780  Biso   1.000  C
  C75      1.0000 0.09600  0.84268  0.66780  Biso   1.000  C
  C76      1.0000 0.90400  0.34268  0.83220  Biso   1.000  C
  H69      1.0000 0.92540  0.14420  0.28040  Biso   1.000  H
  H70      1.0000 0.07460  0.64420  0.21960  Biso   1.000  H
  H71      1.0000 0.07460  0.85580  0.71960  Biso   1.000  H
  H72      1.0000 0.92540  0.35580  0.78040  Biso   1.000  H
  H73      1.0000 0.02440  0.16940  0.35730  Biso   1.000  H
  H74      1.0000 0.97560  0.66940  0.14270  Biso   1.000  H
  H75      1.0000 0.97560  0.83060  0.64270  Biso   1.000  H
  H76      1.0000 0.02440  0.33060  0.85730  Biso   1.000  H
  C77      1.0000 0.76030  0.19500  0.31720  Biso   1.000  C
  C78      1.0000 0.23970  0.69500  0.18280  Biso   1.000  C
  C79      1.0000 0.23970  0.80500  0.68280  Biso   1.000  C
  C80      1.0000 0.76030  0.30500  0.81720  Biso   1.000  C
  H77      1.0000 0.74860  0.20840  0.37050  Biso   1.000  H
  H78      1.0000 0.25140  0.70840  0.12950  Biso   1.000  H
  H79      1.0000 0.25140  0.79160  0.62950  Biso   1.000  H
  H80      1.0000 0.74860  0.29160  0.87050  Biso   1.000  H
  C81      1.0000 0.57030  0.35559  0.15680  Biso   1.000  C
  C82      1.0000 0.42970  0.85559  0.34320  Biso   1.000  C
  C83      1.0000 0.42970  0.64441  0.84320  Biso   1.000  C
  C84      1.0000 0.57030  0.14441  0.65680  Biso   1.000  C
  H81      1.0000 0.54500  0.36800  0.20930  Biso   1.000  H
  H82      1.0000 0.45500  0.86800  0.29070  Biso   1.000  H
  H83      1.0000 0.45500  0.63200  0.79070  Biso   1.000  H
  H84      1.0000 0.54500  0.13200  0.70930  Biso   1.000  H
  C85      1.0000 0.63350  0.39564  0.11260  Biso   1.000  C
  C86      1.0000 0.36650  0.89564  0.38740  Biso   1.000  C
  C87      1.0000 0.36650  0.60436  0.88740  Biso   1.000  C
  C88      1.0000 0.63350  0.10436  0.61260  Biso   1.000  C
  H85      1.0000 0.73500  0.41060  0.14710  Biso   1.000  H
  H86      1.0000 0.26500  0.91060  0.35290  Biso   1.000  H
  H87      1.0000 0.26500  0.58940  0.85290  Biso   1.000  H
  H88      1.0000 0.73500  0.08940  0.64710  Biso   1.000  H
  H89      1.0000 0.68520  0.38570  0.06380  Biso   1.000  H
  H90      1.0000 0.31480  0.88570  0.43620  Biso   1.000  H
  H91      1.0000 0.31480  0.61430  0.93620  Biso   1.000  H
  H92      1.0000 0.68520  0.11430  0.56380  Biso   1.000  H
  C89      1.0000 0.48020  0.42766  0.08940  Biso   1.000  C
  C90      1.0000 0.51980  0.92766  0.41060  Biso   1.000  C
  C91      1.0000 0.51980  0.57234  0.91060  Biso   1.000  C
  C92      1.0000 0.48020  0.07234  0.58940  Biso   1.000  C
  H93      1.0000 0.46070  0.44510  0.13730  Biso   1.000  H
  H94      1.0000 0.53930  0.94510  0.36270  Biso   1.000  H
  H95      1.0000 0.53930  0.55490  0.86270  Biso   1.000  H
  H96      1.0000 0.46070  0.05490  0.63730  Biso   1.000  H
  H97      1.0000 0.52280  0.44820  0.04980  Biso   1.000  H
  H98      1.0000 0.47720  0.94820  0.45020  Biso   1.000  H
  H99      1.0000 0.47720  0.55180  0.95020  Biso   1.000  H
  H100     1.0000 0.52280  0.05180  0.54980  Biso   1.000  H
  C93      1.0000 0.29880  0.40956  0.05580  Biso   1.000  C
  C94      1.0000 0.70120  0.90956  0.44420  Biso   1.000  C
  C95      1.0000 0.70120  0.59044  0.94420  Biso   1.000  C
  C96      1.0000 0.29880  0.09044  0.55580  Biso   1.000  C
  H101     1.0000 0.30690  0.40110  0.99960  Biso   1.000  H
  H102     1.0000 0.69310  0.90110  0.50040  Biso   1.000  H
  H103     1.0000 0.69310  0.59890  0.00040  Biso   1.000  H
  H104     1.0000 0.30690  0.09890  0.49960  Biso   1.000  H
  H105     1.0000 0.20350  0.43300  0.05540  Biso   1.000  H
  H106     1.0000 0.79650  0.93300  0.44460  Biso   1.000  H
  H107     1.0000 0.79650  0.56700  0.94460  Biso   1.000  H
  H108     1.0000 0.20350  0.06700  0.55540  Biso   1.000  H
  C97      1.0000 0.23140  0.36946  0.10020  Biso   1.000  C
  C98      1.0000 0.76860  0.86946  0.39980  Biso   1.000  C
  C99      1.0000 0.76860  0.63054  0.89980  Biso   1.000  C
  C100     1.0000 0.23140  0.13054  0.60020  Biso   1.000  C
  H109     1.0000 0.18140  0.37980  0.14910  Biso   1.000  H
  H110     1.0000 0.81860  0.87980  0.35090  Biso   1.000  H
  H111     1.0000 0.81860  0.62020  0.85090  Biso   1.000  H
  H112     1.0000 0.18140  0.12020  0.64910  Biso   1.000  H
  H113     1.0000 0.12760  0.35530  0.06570  Biso   1.000  H
  H114     1.0000 0.87240  0.85530  0.43430  Biso   1.000  H
  H115     1.0000 0.87240  0.64470  0.93430  Biso   1.000  H
  H116     1.0000 0.12760  0.14470  0.56570  Biso   1.000  H
  C101     1.0000 0.38080  0.33558  0.12350  Biso   1.000  C
  C102     1.0000 0.61920  0.83558  0.37650  Biso   1.000  C
  C103     1.0000 0.61920  0.66442  0.87650  Biso   1.000  C
  C104     1.0000 0.38080  0.16442  0.62350  Biso   1.000  C
  H117     1.0000 0.40510  0.32250  0.07130  Biso   1.000  H
  H118     1.0000 0.59490  0.82250  0.42870  Biso   1.000  H
  H119     1.0000 0.59490  0.67750  0.92870  Biso   1.000  H
  H120     1.0000 0.40510  0.17750  0.57130  Biso   1.000  H
  Cu1      1.0000 0.00000  0.50000  0.50000  Biso   1.000  Cu
  Cu2      1.0000 0.00000  0.00000  0.00000  Biso   1.000  Cu
  Cu3      1.0000 0.57964  0.26688  0.22208  Biso   1.000  Cu
  Cu4      1.0000 0.42036  0.76688  0.27792  Biso   1.000  Cu
  Cu5      1.0000 0.42036  0.73312  0.77792  Biso   1.000  Cu
  Cu6      1.0000 0.57964  0.23312  0.72208  Biso   1.000  Cu
  Mo1      1.0000 0.31820  0.34199  0.47725  Biso   1.000  Mo
  Mo2      1.0000 0.68180  0.84199  0.02275  Biso   1.000  Mo
  Mo3      1.0000 0.68180  0.65801  0.52275  Biso   1.000  Mo
  Mo4      1.0000 0.31820  0.15801  0.97725  Biso   1.000  Mo
  N1       1.0000 0.98490  0.41776  0.48860  Biso   1.000  N
  N2       1.0000 0.01510  0.91776  0.01140  Biso   1.000  N
  N3       1.0000 0.01510  0.58224  0.51140  Biso   1.000  N
  N4       1.0000 0.98490  0.08224  0.98860  Biso   1.000  N
  N5       1.0000 0.06880  0.33855  0.29680  Biso   1.000  N
  N6       1.0000 0.93120  0.83855  0.20320  Biso   1.000  N
  N7       1.0000 0.93120  0.66145  0.70320  Biso   1.000  N
  N8       1.0000 0.06880  0.16145  0.79680  Biso   1.000  N
  N9       1.0000 0.18960  0.23791  0.43970  Biso   1.000  N
  N10      1.0000 0.81040  0.73791  0.06030  Biso   1.000  N
  N11      1.0000 0.81040  0.76209  0.56030  Biso   1.000  N
  N12      1.0000 0.18960  0.26209  0.93970  Biso   1.000  N
  N13      1.0000 0.10350  0.30986  0.63430  Biso   1.000  N
  N14      1.0000 0.89650  0.80986  0.86570  Biso   1.000  N
  N15      1.0000 0.89650  0.69014  0.36570  Biso   1.000  N
  N16      1.0000 0.10350  0.19014  0.13430  Biso   1.000  N
  N17      1.0000 0.46910  0.43109  0.38420  Biso   1.000  N
  N18      1.0000 0.53090  0.93109  0.11580  Biso   1.000  N
  N19      1.0000 0.53090  0.56891  0.61580  Biso   1.000  N
  N20      1.0000 0.46910  0.06891  0.88420  Biso   1.000  N
  N21      1.0000 0.62030  0.30472  0.35550  Biso   1.000  N
  N22      1.0000 0.37970  0.80472  0.14450  Biso   1.000  N
  N23      1.0000 0.37970  0.69528  0.64450  Biso   1.000  N
  N24      1.0000 0.62030  0.19528  0.85550  Biso   1.000  N
  N25      1.0000 0.61410  0.27787  0.59190  Biso   1.000  N
  N26      1.0000 0.38590  0.77787  0.90810  Biso   1.000  N
  N27      1.0000 0.38590  0.72213  0.40810  Biso   1.000  N
  N28      1.0000 0.61410  0.22213  0.09190  Biso   1.000  N
  N29      1.0000 0.51960  0.41009  0.61950  Biso   1.000  N
  N30      1.0000 0.48040  0.91009  0.88050  Biso   1.000  N
  N31      1.0000 0.48040  0.58991  0.38050  Biso   1.000  N
  N32      1.0000 0.51960  0.08991  0.11950  Biso   1.000  N
  N33      1.0000 0.78250  0.50630  0.40750  Biso   1.000  N
  N34      1.0000 0.21750  0.00630  0.09250  Biso   1.000  N
  N35      1.0000 0.21750  0.49370  0.59250  Biso   1.000  N
  N36      1.0000 0.78250  0.99370  0.90750  Biso   1.000  N
  H121     1.0000 0.71910  0.48020  0.40010  Biso   1.000  H
  H122     1.0000 0.28090  0.98020  0.09990  Biso   1.000  H
  H123     1.0000 0.28090  0.51980  0.59990  Biso   1.000  H
  H124     1.0000 0.71910  0.01980  0.90010  Biso   1.000  H
  H125     1.0000 0.70010  0.52740  0.42020  Biso   1.000  H
  H126     1.0000 0.29990  0.02740  0.07980  Biso   1.000  H
  H127     1.0000 0.29990  0.47260  0.57980  Biso   1.000  H
  H128     1.0000 0.70010  0.97260  0.92020  Biso   1.000  H
  N37      1.0000 0.16730  0.50454  0.41000  Biso   1.000  N
  N38      1.0000 0.83270  0.00454  0.09000  Biso   1.000  N
  N39      1.0000 0.83270  0.49546  0.59000  Biso   1.000  N
  N40      1.0000 0.16730  0.99546  0.91000  Biso   1.000  N
  H129     1.0000 0.21990  0.53200  0.40990  Biso   1.000  H
  H130     1.0000 0.78010  0.03200  0.09010  Biso   1.000  H
  H131     1.0000 0.78010  0.46800  0.59010  Biso   1.000  H
  H132     1.0000 0.21990  0.96800  0.90990  Biso   1.000  H
  H133     1.0000 0.26180  0.48420  0.41760  Biso   1.000  H
  H134     1.0000 0.73820  0.98420  0.08240  Biso   1.000  H
  H135     1.0000 0.73820  0.51580  0.58240  Biso   1.000  H
  H136     1.0000 0.26180  0.01580  0.91760  Biso   1.000  H
  N41      1.0000 0.43820  0.21678  0.26890  Biso   1.000  N
  N42      1.0000 0.56180  0.71678  0.23110  Biso   1.000  N
  N43      1.0000 0.56180  0.78322  0.73110  Biso   1.000  N
  N44      1.0000 0.43820  0.28322  0.76890  Biso   1.000  N
  H137     1.0000 0.39500  0.22580  0.31530  Biso   1.000  H
  H138     1.0000 0.60500  0.72580  0.18470  Biso   1.000  H
  H139     1.0000 0.60500  0.77420  0.68470  Biso   1.000  H
  H140     1.0000 0.39500  0.27420  0.81530  Biso   1.000  H
  H141     1.0000 0.33730  0.20870  0.23340  Biso   1.000  H
  H142     1.0000 0.66270  0.70870  0.26660  Biso   1.000  H
  H143     1.0000 0.66270  0.79130  0.76660  Biso   1.000  H
  H144     1.0000 0.33730  0.29130  0.73340  Biso   1.000  H
  N45      1.0000 0.81690  0.23114  0.26530  Biso   1.000  N
  N46      1.0000 0.18310  0.73114  0.23470  Biso   1.000  N
  N47      1.0000 0.18310  0.76886  0.73470  Biso   1.000  N
  N48      1.0000 0.81690  0.26886  0.76530  Biso   1.000  N
  H145     1.0000 0.87180  0.21970  0.22350  Biso   1.000  H
  H146     1.0000 0.12820  0.71970  0.27650  Biso   1.000  H
  H147     1.0000 0.12820  0.78030  0.77650  Biso   1.000  H
  H148     1.0000 0.87180  0.28030  0.72350  Biso   1.000  H
  H149     1.0000 0.90200  0.24910  0.29430  Biso   1.000  H
  H150     1.0000 0.09800  0.74910  0.20570  Biso   1.000  H
  H151     1.0000 0.09800  0.75090  0.70570  Biso   1.000  H
  H152     1.0000 0.90200  0.25090  0.79430  Biso   1.000  H
  N49      1.0000 0.70880  0.32031  0.18030  Biso   1.000  N
  N50      1.0000 0.29120  0.82031  0.31970  Biso   1.000  N
  N51      1.0000 0.29120  0.67969  0.81970  Biso   1.000  N
  N52      1.0000 0.70880  0.17969  0.68030  Biso   1.000  N
  H153     1.0000 0.79820  0.33060  0.21920  Biso   1.000  H
  H154     1.0000 0.20180  0.83060  0.28080  Biso   1.000  H
  H155     1.0000 0.20180  0.66940  0.78080  Biso   1.000  H
  H156     1.0000 0.79820  0.16940  0.71920  Biso   1.000  H
  H157     1.0000 0.76710  0.31240  0.13690  Biso   1.000  H
  H158     1.0000 0.23290  0.81240  0.36310  Biso   1.000  H
  H159     1.0000 0.23290  0.68760  0.86310  Biso   1.000  H
  H160     1.0000 0.76710  0.18760  0.63690  Biso   1.000  H
  N53      1.0000 0.33830  0.29699  0.17190  Biso   1.000  N
  N54      1.0000 0.66170  0.79699  0.32810  Biso   1.000  N
  N55      1.0000 0.66170  0.70301  0.82810  Biso   1.000  N
  N56      1.0000 0.33830  0.20301  0.67190  Biso   1.000  N
  H161     1.0000 0.26750  0.27730  0.14000  Biso   1.000  H
  H162     1.0000 0.73250  0.77730  0.36000  Biso   1.000  H
  H163     1.0000 0.73250  0.72270  0.86000  Biso   1.000  H
  H164     1.0000 0.26750  0.22270  0.64000  Biso   1.000  H
  H165     1.0000 0.26980  0.30580  0.21160  Biso   1.000  H
  H166     1.0000 0.73020  0.80580  0.28840  Biso   1.000  H
  H167     1.0000 0.73020  0.69420  0.78840  Biso   1.000  H
  H168     1.0000 0.26980  0.19420  0.71160  Biso   1.000  H
  O1       1.0000 0.89000  0.28422  0.03890  Biso   1.000  O
  O2       1.0000 0.11000  0.78422  0.46110  Biso   1.000  O
  O3       1.0000 0.11000  0.71578  0.96110  Biso   1.000  O
  O4       1.0000 0.89000  0.21578  0.53890  Biso   1.000  O
  H169     1.0000 0.00740  0.28920  0.05420  Biso   1.000  H
  H170     1.0000 0.99260  0.78920  0.44580  Biso   1.000  H
  H171     1.0000 0.99260  0.71080  0.94580  Biso   1.000  H
  H172     1.0000 0.00740  0.21080  0.55420  Biso   1.000  H
  H173     1.0000 0.87290  0.25630  0.03100  Biso   1.000  H
  H174     1.0000 0.12710  0.75630  0.46900  Biso   1.000  H
  H175     1.0000 0.12710  0.74370  0.96900  Biso   1.000  H
  H176     1.0000 0.87290  0.24370  0.53100  Biso   1.000  H
