data_image0
_cell_length_a       7.0526
_cell_length_b       29.865
_cell_length_c       16.523
_cell_angle_alpha    90
_cell_angle_beta     96.943
_cell_angle_gamma    90

_symmetry_space_group_name_H-M    "P 1"
_symmetry_int_tables_number       1

loop_
  _symmetry_equiv_pos_as_xyz
  'x, y, z'

loop_
  _atom_site_label
  _atom_site_occupancy
  _atom_site_fract_x
  _atom_site_fract_y
  _atom_site_fract_z
  _atom_site_thermal_displace_type
  _atom_site_B_iso_or_equiv
  _atom_site_type_symbol
  C1       1.0000 0.09190  0.61020  0.48450  Biso   1.000  C
  C2       1.0000 0.90810  0.11020  0.01550  Biso   1.000  C
  C3       1.0000 0.90810  0.38980  0.51550  Biso   1.000  C
  C4       1.0000 0.09190  0.88980  0.98450  Biso   1.000  C
  C5       1.0000 0.15360  0.65930  0.35950  Biso   1.000  C
  C6       1.0000 0.84640  0.15930  0.14050  Biso   1.000  C
  C7       1.0000 0.84640  0.34070  0.64050  Biso   1.000  C
  C8       1.0000 0.15360  0.84070  0.85950  Biso   1.000  C
  C9       1.0000 0.22840  0.72710  0.45210  Biso   1.000  C
  C10      1.0000 0.77160  0.22710  0.04790  Biso   1.000  C
  C11      1.0000 0.77160  0.27290  0.54790  Biso   1.000  C
  C12      1.0000 0.22840  0.77290  0.95210  Biso   1.000  C
  C13      1.0000 0.17520  0.67780  0.58040  Biso   1.000  C
  C14      1.0000 0.82480  0.17780  0.91960  Biso   1.000  C
  C15      1.0000 0.82480  0.32220  0.41960  Biso   1.000  C
  C16      1.0000 0.17520  0.82220  0.08040  Biso   1.000  C
  C17      1.0000 0.41790  0.60030  0.41640  Biso   1.000  C
  C18      1.0000 0.58210  0.10030  0.08360  Biso   1.000  C
  C19      1.0000 0.58210  0.39970  0.58360  Biso   1.000  C
  C20      1.0000 0.41790  0.89970  0.91640  Biso   1.000  C
  C21      1.0000 0.52260  0.68160  0.39920  Biso   1.000  C
  C22      1.0000 0.47740  0.18160  0.10080  Biso   1.000  C
  C23      1.0000 0.47740  0.31840  0.60080  Biso   1.000  C
  C24      1.0000 0.52260  0.81840  0.89920  Biso   1.000  C
  C25      1.0000 0.52180  0.69810  0.55280  Biso   1.000  C
  C26      1.0000 0.47820  0.19810  0.94720  Biso   1.000  C
  C27      1.0000 0.47820  0.30190  0.44720  Biso   1.000  C
  C28      1.0000 0.52180  0.80190  0.05280  Biso   1.000  C
  C29      1.0000 0.45140  0.61360  0.57190  Biso   1.000  C
  C30      1.0000 0.54860  0.11360  0.92810  Biso   1.000  C
  C31      1.0000 0.54860  0.38640  0.42810  Biso   1.000  C
  C32      1.0000 0.45140  0.88640  0.07190  Biso   1.000  C
  C33      1.0000 0.14030  0.51820  0.66680  Biso   1.000  C
  C34      1.0000 0.85970  0.01820  0.83320  Biso   1.000  C
  C35      1.0000 0.85970  0.48180  0.33320  Biso   1.000  C
  C36      1.0000 0.14030  0.98180  0.16680  Biso   1.000  C
  H1       1.0000 0.11400  0.55040  0.66350  Biso   1.000  H
  H2       1.0000 0.88600  0.05040  0.83650  Biso   1.000  H
  H3       1.0000 0.88600  0.44960  0.33650  Biso   1.000  H
  H4       1.0000 0.11400  0.94960  0.16350  Biso   1.000  H
  C37      1.0000 0.27560  0.51080  0.74440  Biso   1.000  C
  C38      1.0000 0.72440  0.01080  0.75560  Biso   1.000  C
  C39      1.0000 0.72440  0.48920  0.25560  Biso   1.000  C
  C40      1.0000 0.27560  0.98920  0.24440  Biso   1.000  C
  H5       1.0000 0.38760  0.52960  0.74340  Biso   1.000  H
  H6       1.0000 0.61240  0.02960  0.75660  Biso   1.000  H
  H7       1.0000 0.61240  0.47040  0.25660  Biso   1.000  H
  H8       1.0000 0.38760  0.97040  0.24340  Biso   1.000  H
  H9       1.0000 0.31740  0.47980  0.74690  Biso   1.000  H
  H10      1.0000 0.68260  0.97980  0.75310  Biso   1.000  H
  H11      1.0000 0.68260  0.52020  0.25310  Biso   1.000  H
  H12      1.0000 0.31740  0.02020  0.24690  Biso   1.000  H
  C41      1.0000 0.17980  0.52170  0.82000  Biso   1.000  C
  C42      1.0000 0.82020  0.02170  0.68000  Biso   1.000  C
  C43      1.0000 0.82020  0.47830  0.18000  Biso   1.000  C
  C44      1.0000 0.17980  0.97830  0.32000  Biso   1.000  C
  H13      1.0000 0.26310  0.51230  0.86800  Biso   1.000  H
  H14      1.0000 0.73690  0.01230  0.63200  Biso   1.000  H
  H15      1.0000 0.73690  0.48770  0.13200  Biso   1.000  H
  H16      1.0000 0.26310  0.98770  0.36800  Biso   1.000  H
  H17      1.0000 0.16430  0.55390  0.82330  Biso   1.000  H
  H18      1.0000 0.83570  0.05390  0.67670  Biso   1.000  H
  H19      1.0000 0.83570  0.44610  0.17670  Biso   1.000  H
  H20      1.0000 0.16430  0.94610  0.32330  Biso   1.000  H
  C45      1.0000 0.99360  0.50050  0.82080  Biso   1.000  C
  C46      1.0000 0.00640  0.00050  0.67920  Biso   1.000  C
  C47      1.0000 0.00640  0.49950  0.17920  Biso   1.000  C
  C48      1.0000 0.99360  0.99950  0.32080  Biso   1.000  C
  H21      1.0000 0.93450  0.51220  0.86650  Biso   1.000  H
  H22      1.0000 0.06550  0.01220  0.63350  Biso   1.000  H
  H23      1.0000 0.06550  0.48780  0.13350  Biso   1.000  H
  H24      1.0000 0.93450  0.98780  0.36650  Biso   1.000  H
  H25      1.0000 0.01200  0.46860  0.82920  Biso   1.000  H
  H26      1.0000 0.98800  0.96860  0.67080  Biso   1.000  H
  H27      1.0000 0.98800  0.53140  0.17080  Biso   1.000  H
  H28      1.0000 0.01200  0.03140  0.32920  Biso   1.000  H
  C49      1.0000 0.85950  0.50790  0.74320  Biso   1.000  C
  C50      1.0000 0.14050  0.00790  0.75680  Biso   1.000  C
  C51      1.0000 0.14050  0.49210  0.25680  Biso   1.000  C
  C52      1.0000 0.85950  0.99210  0.24320  Biso   1.000  C
  H29      1.0000 0.74540  0.48990  0.74490  Biso   1.000  H
  H30      1.0000 0.25460  0.98990  0.75510  Biso   1.000  H
  H31      1.0000 0.25460  0.51010  0.25510  Biso   1.000  H
  H32      1.0000 0.74540  0.01010  0.24490  Biso   1.000  H
  H33      1.0000 0.82150  0.53910  0.73970  Biso   1.000  H
  H34      1.0000 0.17850  0.03910  0.76030  Biso   1.000  H
  H35      1.0000 0.17850  0.46090  0.26030  Biso   1.000  H
  H36      1.0000 0.82150  0.96090  0.23970  Biso   1.000  H
  C53      1.0000 0.95240  0.49550  0.66830  Biso   1.000  C
  C54      1.0000 0.04760  0.99550  0.83170  Biso   1.000  C
  C55      1.0000 0.04760  0.50450  0.33170  Biso   1.000  C
  C56      1.0000 0.95240  0.00450  0.16830  Biso   1.000  C
  H37      1.0000 0.97680  0.46310  0.67080  Biso   1.000  H
  H38      1.0000 0.02320  0.96310  0.82920  Biso   1.000  H
  H39      1.0000 0.02320  0.53690  0.32920  Biso   1.000  H
  H40      1.0000 0.97680  0.03690  0.17080  Biso   1.000  H
  C57      1.0000 0.56470  0.64530  0.15990  Biso   1.000  C
  C58      1.0000 0.43530  0.14530  0.34010  Biso   1.000  C
  C59      1.0000 0.43530  0.35470  0.84010  Biso   1.000  C
  C60      1.0000 0.56470  0.85470  0.65990  Biso   1.000  C
  H41      1.0000 0.53630  0.63300  0.21210  Biso   1.000  H
  H42      1.0000 0.46370  0.13300  0.28790  Biso   1.000  H
  H43      1.0000 0.46370  0.36700  0.78790  Biso   1.000  H
  H44      1.0000 0.53630  0.86700  0.71210  Biso   1.000  H
  C61      1.0000 0.63150  0.60610  0.11340  Biso   1.000  C
  C62      1.0000 0.36850  0.10610  0.38660  Biso   1.000  C
  C63      1.0000 0.36850  0.39390  0.88660  Biso   1.000  C
  C64      1.0000 0.63150  0.89390  0.61340  Biso   1.000  C
  H45      1.0000 0.73490  0.59110  0.14690  Biso   1.000  H
  H46      1.0000 0.26510  0.09110  0.35310  Biso   1.000  H
  H47      1.0000 0.26510  0.40890  0.85310  Biso   1.000  H
  H48      1.0000 0.73490  0.90890  0.64690  Biso   1.000  H
  H49      1.0000 0.68080  0.61700  0.06470  Biso   1.000  H
  H50      1.0000 0.31920  0.11700  0.43530  Biso   1.000  H
  H51      1.0000 0.31920  0.38300  0.93530  Biso   1.000  H
  H52      1.0000 0.68080  0.88300  0.56470  Biso   1.000  H
  C65      1.0000 0.46930  0.57210  0.08870  Biso   1.000  C
  C66      1.0000 0.53070  0.07210  0.41130  Biso   1.000  C
  C67      1.0000 0.53070  0.42790  0.91130  Biso   1.000  C
  C68      1.0000 0.46930  0.92790  0.58870  Biso   1.000  C
  H53      1.0000 0.51000  0.55160  0.04870  Biso   1.000  H
  H54      1.0000 0.49000  0.05160  0.45130  Biso   1.000  H
  H55      1.0000 0.49000  0.44840  0.95130  Biso   1.000  H
  H56      1.0000 0.51000  0.94840  0.54870  Biso   1.000  H
  H57      1.0000 0.44710  0.55480  0.13630  Biso   1.000  H
  H58      1.0000 0.55290  0.05480  0.36370  Biso   1.000  H
  H59      1.0000 0.55290  0.44520  0.86370  Biso   1.000  H
  H60      1.0000 0.44710  0.94520  0.63630  Biso   1.000  H
  C69      1.0000 0.29130  0.59300  0.05500  Biso   1.000  C
  C70      1.0000 0.70870  0.09300  0.44500  Biso   1.000  C
  C71      1.0000 0.70870  0.40700  0.94500  Biso   1.000  C
  C72      1.0000 0.29130  0.90700  0.55500  Biso   1.000  C
  H61      1.0000 0.19150  0.57050  0.05120  Biso   1.000  H
  H62      1.0000 0.80850  0.07050  0.44880  Biso   1.000  H
  H63      1.0000 0.80850  0.42950  0.94880  Biso   1.000  H
  H64      1.0000 0.19150  0.92950  0.55120  Biso   1.000  H
  H65      1.0000 0.30430  0.60290  0.00000  Biso   1.000  H
  H66      1.0000 0.69570  0.10290  0.50000  Biso   1.000  H
  H67      1.0000 0.69570  0.39710  0.00000  Biso   1.000  H
  H68      1.0000 0.30430  0.89710  0.50000  Biso   1.000  H
  C73      1.0000 0.22810  0.63200  0.10150  Biso   1.000  C
  C74      1.0000 0.77190  0.13200  0.39850  Biso   1.000  C
  C75      1.0000 0.77190  0.36800  0.89850  Biso   1.000  C
  C76      1.0000 0.22810  0.86800  0.60150  Biso   1.000  C
  H69      1.0000 0.18270  0.62130  0.15120  Biso   1.000  H
  H70      1.0000 0.81730  0.12130  0.34880  Biso   1.000  H
  H71      1.0000 0.81730  0.37870  0.84880  Biso   1.000  H
  H72      1.0000 0.18270  0.87870  0.65120  Biso   1.000  H
  H73      1.0000 0.12270  0.64690  0.06920  Biso   1.000  H
  H74      1.0000 0.87730  0.14690  0.43080  Biso   1.000  H
  H75      1.0000 0.87730  0.35310  0.93080  Biso   1.000  H
  H76      1.0000 0.12270  0.85310  0.56920  Biso   1.000  H
  C77      1.0000 0.38780  0.66510  0.12300  Biso   1.000  C
  C78      1.0000 0.61220  0.16510  0.37700  Biso   1.000  C
  C79      1.0000 0.61220  0.33490  0.87700  Biso   1.000  C
  C80      1.0000 0.38780  0.83490  0.62300  Biso   1.000  C
  H77      1.0000 0.41600  0.67760  0.07100  Biso   1.000  H
  H78      1.0000 0.58400  0.17760  0.42900  Biso   1.000  H
  H79      1.0000 0.58400  0.32240  0.92900  Biso   1.000  H
  H80      1.0000 0.41600  0.82240  0.57100  Biso   1.000  H
  C81      1.0000 0.76360  0.80470  0.31940  Biso   1.000  C
  C82      1.0000 0.23640  0.30470  0.18060  Biso   1.000  C
  C83      1.0000 0.23640  0.19530  0.68060  Biso   1.000  C
  C84      1.0000 0.76360  0.69530  0.81940  Biso   1.000  C
  H81      1.0000 0.75250  0.79120  0.37260  Biso   1.000  H
  H82      1.0000 0.24750  0.29120  0.12740  Biso   1.000  H
  H83      1.0000 0.24750  0.20880  0.62740  Biso   1.000  H
  H84      1.0000 0.75250  0.70880  0.87260  Biso   1.000  H
  C85      1.0000 0.90820  0.84380  0.33430  Biso   1.000  C
  C86      1.0000 0.09180  0.34380  0.16570  Biso   1.000  C
  C87      1.0000 0.09180  0.15620  0.66570  Biso   1.000  C
  C88      1.0000 0.90820  0.65620  0.83430  Biso   1.000  C
  H85      1.0000 0.03080  0.83210  0.35800  Biso   1.000  H
  H86      1.0000 0.96920  0.33210  0.14200  Biso   1.000  H
  H87      1.0000 0.96920  0.16790  0.64200  Biso   1.000  H
  H88      1.0000 0.03080  0.66790  0.85800  Biso   1.000  H
  H89      1.0000 0.92540  0.85760  0.28260  Biso   1.000  H
  H90      1.0000 0.07460  0.35760  0.21740  Biso   1.000  H
  H91      1.0000 0.07460  0.14240  0.71740  Biso   1.000  H
  H92      1.0000 0.92540  0.64240  0.78260  Biso   1.000  H
  C89      1.0000 0.83970  0.87870  0.39080  Biso   1.000  C
  C90      1.0000 0.16030  0.37870  0.10920  Biso   1.000  C
  C91      1.0000 0.16030  0.12130  0.60920  Biso   1.000  C
  C92      1.0000 0.83970  0.62130  0.89080  Biso   1.000  C
  H93      1.0000 0.83800  0.86580  0.44460  Biso   1.000  H
  H94      1.0000 0.16200  0.36580  0.05540  Biso   1.000  H
  H95      1.0000 0.16200  0.13420  0.55540  Biso   1.000  H
  H96      1.0000 0.83800  0.63420  0.94460  Biso   1.000  H
  H97      1.0000 0.92790  0.90370  0.39560  Biso   1.000  H
  H98      1.0000 0.07210  0.40370  0.10440  Biso   1.000  H
  H99      1.0000 0.07210  0.09630  0.60440  Biso   1.000  H
  H100     1.0000 0.92790  0.59630  0.89560  Biso   1.000  H
  C93      1.0000 0.64330  0.89510  0.35950  Biso   1.000  C
  C94      1.0000 0.35670  0.39510  0.14050  Biso   1.000  C
  C95      1.0000 0.35670  0.10490  0.64050  Biso   1.000  C
  C96      1.0000 0.64330  0.60490  0.85950  Biso   1.000  C
  H101     1.0000 0.64990  0.91190  0.30970  Biso   1.000  H
  H102     1.0000 0.35010  0.41190  0.19030  Biso   1.000  H
  H103     1.0000 0.35010  0.08810  0.69030  Biso   1.000  H
  H104     1.0000 0.64990  0.58810  0.80970  Biso   1.000  H
  H105     1.0000 0.59950  0.91520  0.39930  Biso   1.000  H
  H106     1.0000 0.40050  0.41520  0.10070  Biso   1.000  H
  H107     1.0000 0.40050  0.08480  0.60070  Biso   1.000  H
  H108     1.0000 0.59950  0.58480  0.89930  Biso   1.000  H
  C97      1.0000 0.49780  0.85710  0.34220  Biso   1.000  C
  C98      1.0000 0.50220  0.35710  0.15780  Biso   1.000  C
  C99      1.0000 0.50220  0.14290  0.65780  Biso   1.000  C
  C100     1.0000 0.49780  0.64290  0.84220  Biso   1.000  C
  H109     1.0000 0.47390  0.84330  0.39310  Biso   1.000  H
  H110     1.0000 0.52610  0.34330  0.10690  Biso   1.000  H
  H111     1.0000 0.52610  0.15670  0.60690  Biso   1.000  H
  H112     1.0000 0.47390  0.65670  0.89310  Biso   1.000  H
  H113     1.0000 0.37810  0.86920  0.31600  Biso   1.000  H
  H114     1.0000 0.62190  0.36920  0.18400  Biso   1.000  H
  H115     1.0000 0.62190  0.13080  0.68400  Biso   1.000  H
  H116     1.0000 0.37810  0.63080  0.81600  Biso   1.000  H
  C101     1.0000 0.57120  0.82260  0.28810  Biso   1.000  C
  C102     1.0000 0.42880  0.32260  0.21190  Biso   1.000  C
  C103     1.0000 0.42880  0.17740  0.71190  Biso   1.000  C
  C104     1.0000 0.57120  0.67740  0.78810  Biso   1.000  C
  H117     1.0000 0.58250  0.83700  0.23560  Biso   1.000  H
  H118     1.0000 0.41750  0.33700  0.26440  Biso   1.000  H
  H119     1.0000 0.41750  0.16300  0.76440  Biso   1.000  H
  H120     1.0000 0.58250  0.66300  0.73560  Biso   1.000  H
  Cu1      1.0000 0.00000  0.50000  0.50000  Biso   1.000  Cu
  Cu2      1.0000 0.00000  0.00000  0.00000  Biso   1.000  Cu
  Cu3      1.0000 0.58116  0.73385  0.22345  Biso   1.000  Cu
  Cu4      1.0000 0.41884  0.23385  0.27655  Biso   1.000  Cu
  Cu5      1.0000 0.41884  0.26615  0.77655  Biso   1.000  Cu
  Cu6      1.0000 0.58116  0.76615  0.72345  Biso   1.000  Cu
  N1       1.0000 0.97900  0.58340  0.48800  Biso   1.000  N
  N2       1.0000 0.02100  0.08340  0.01200  Biso   1.000  N
  N3       1.0000 0.02100  0.41660  0.51200  Biso   1.000  N
  N4       1.0000 0.97900  0.91660  0.98800  Biso   1.000  N
  N5       1.0000 0.07250  0.66240  0.29670  Biso   1.000  N
  N6       1.0000 0.92750  0.16240  0.20330  Biso   1.000  N
  N7       1.0000 0.92750  0.33760  0.70330  Biso   1.000  N
  N8       1.0000 0.07250  0.83760  0.79670  Biso   1.000  N
  N9       1.0000 0.19270  0.76340  0.43970  Biso   1.000  N
  N10      1.0000 0.80730  0.26340  0.06030  Biso   1.000  N
  N11      1.0000 0.80730  0.23660  0.56030  Biso   1.000  N
  N12      1.0000 0.19270  0.73660  0.93970  Biso   1.000  N
  N13      1.0000 0.10770  0.69090  0.63670  Biso   1.000  N
  N14      1.0000 0.89230  0.19090  0.86330  Biso   1.000  N
  N15      1.0000 0.89230  0.30910  0.36330  Biso   1.000  N
  N16      1.0000 0.10770  0.80910  0.13670  Biso   1.000  N
  N17      1.0000 0.47090  0.56990  0.38550  Biso   1.000  N
  N18      1.0000 0.52910  0.06990  0.11450  Biso   1.000  N
  N19      1.0000 0.52910  0.43010  0.61450  Biso   1.000  N
  N20      1.0000 0.47090  0.93010  0.88550  Biso   1.000  N
  N21      1.0000 0.61920  0.69580  0.35620  Biso   1.000  N
  N22      1.0000 0.38080  0.19580  0.14380  Biso   1.000  N
  N23      1.0000 0.38080  0.30420  0.64380  Biso   1.000  N
  N24      1.0000 0.61920  0.80420  0.85620  Biso   1.000  N
  N25      1.0000 0.62210  0.72170  0.59430  Biso   1.000  N
  N26      1.0000 0.37790  0.22170  0.90570  Biso   1.000  N
  N27      1.0000 0.37790  0.27830  0.40570  Biso   1.000  N
  N28      1.0000 0.62210  0.77830  0.09430  Biso   1.000  N
  N29      1.0000 0.52140  0.58920  0.61940  Biso   1.000  N
  N30      1.0000 0.47860  0.08920  0.88060  Biso   1.000  N
  N31      1.0000 0.47860  0.41080  0.38060  Biso   1.000  N
  N32      1.0000 0.52140  0.91080  0.11940  Biso   1.000  N
  N33      1.0000 0.21630  0.50584  0.59110  Biso   1.000  N
  N34      1.0000 0.78370  0.00584  0.90890  Biso   1.000  N
  N35      1.0000 0.78370  0.49416  0.40890  Biso   1.000  N
  N36      1.0000 0.21630  0.99416  0.09110  Biso   1.000  N
  H121     1.0000 0.27960  0.47970  0.59790  Biso   1.000  H
  H122     1.0000 0.72040  0.97970  0.90210  Biso   1.000  H
  H123     1.0000 0.72040  0.52030  0.40210  Biso   1.000  H
  H124     1.0000 0.27960  0.02030  0.09790  Biso   1.000  H
  H125     1.0000 0.29890  0.52690  0.57830  Biso   1.000  H
  H126     1.0000 0.70110  0.02690  0.92170  Biso   1.000  H
  H127     1.0000 0.70110  0.47310  0.42170  Biso   1.000  H
  H128     1.0000 0.29890  0.97310  0.07830  Biso   1.000  H
  N37      1.0000 0.83130  0.50464  0.58990  Biso   1.000  N
  N38      1.0000 0.16870  0.00464  0.91010  Biso   1.000  N
  N39      1.0000 0.16870  0.49536  0.41010  Biso   1.000  N
  N40      1.0000 0.83130  0.99536  0.08990  Biso   1.000  N
  H129     1.0000 0.78020  0.53220  0.59060  Biso   1.000  H
  H130     1.0000 0.21980  0.03220  0.90940  Biso   1.000  H
  H131     1.0000 0.21980  0.46780  0.40940  Biso   1.000  H
  H132     1.0000 0.78020  0.96780  0.09060  Biso   1.000  H
  H133     1.0000 0.73560  0.48460  0.58190  Biso   1.000  H
  H134     1.0000 0.26440  0.98460  0.91810  Biso   1.000  H
  H135     1.0000 0.26440  0.51540  0.41810  Biso   1.000  H
  H136     1.0000 0.73560  0.01540  0.08190  Biso   1.000  H
  N41      1.0000 0.81750  0.76865  0.26590  Biso   1.000  N
  N42      1.0000 0.18250  0.26865  0.23410  Biso   1.000  N
  N43      1.0000 0.18250  0.23135  0.73410  Biso   1.000  N
  N44      1.0000 0.81750  0.73135  0.76590  Biso   1.000  N
  H137     1.0000 0.90300  0.75040  0.29400  Biso   1.000  H
  H138     1.0000 0.09700  0.25040  0.20600  Biso   1.000  H
  H139     1.0000 0.09700  0.24960  0.70600  Biso   1.000  H
  H140     1.0000 0.90300  0.74960  0.79400  Biso   1.000  H
  H141     1.0000 0.87140  0.78040  0.22400  Biso   1.000  H
  H142     1.0000 0.12860  0.28040  0.27600  Biso   1.000  H
  H143     1.0000 0.12860  0.21960  0.77600  Biso   1.000  H
  H144     1.0000 0.87140  0.71960  0.72400  Biso   1.000  H
  N45      1.0000 0.44010  0.78416  0.27160  Biso   1.000  N
  N46      1.0000 0.55990  0.28416  0.22840  Biso   1.000  N
  N47      1.0000 0.55990  0.21584  0.72840  Biso   1.000  N
  N48      1.0000 0.44010  0.71584  0.77160  Biso   1.000  N
  H145     1.0000 0.33820  0.79230  0.23660  Biso   1.000  H
  H146     1.0000 0.66180  0.29230  0.26340  Biso   1.000  H
  H147     1.0000 0.66180  0.20770  0.76340  Biso   1.000  H
  H148     1.0000 0.33820  0.70770  0.73660  Biso   1.000  H
  H149     1.0000 0.39830  0.77500  0.31830  Biso   1.000  H
  H150     1.0000 0.60170  0.27500  0.18170  Biso   1.000  H
  H151     1.0000 0.60170  0.22500  0.68170  Biso   1.000  H
  H152     1.0000 0.39830  0.72500  0.81830  Biso   1.000  H
  N49      1.0000 0.33640  0.70380  0.17220  Biso   1.000  N
  N50      1.0000 0.66360  0.20380  0.32780  Biso   1.000  N
  N51      1.0000 0.66360  0.29620  0.82780  Biso   1.000  N
  N52      1.0000 0.33640  0.79620  0.67220  Biso   1.000  N
  H153     1.0000 0.26750  0.69450  0.21150  Biso   1.000  H
  H154     1.0000 0.73250  0.19450  0.28850  Biso   1.000  H
  H155     1.0000 0.73250  0.30550  0.78850  Biso   1.000  H
  H156     1.0000 0.26750  0.80550  0.71150  Biso   1.000  H
  H157     1.0000 0.26540  0.72350  0.14020  Biso   1.000  H
  H158     1.0000 0.73460  0.22350  0.35980  Biso   1.000  H
  H159     1.0000 0.73460  0.27650  0.85980  Biso   1.000  H
  H160     1.0000 0.26540  0.77650  0.64020  Biso   1.000  H
  N53      1.0000 0.70920  0.68007  0.18110  Biso   1.000  N
  N54      1.0000 0.29080  0.18007  0.31890  Biso   1.000  N
  N55      1.0000 0.29080  0.31993  0.81890  Biso   1.000  N
  N56      1.0000 0.70920  0.81993  0.68110  Biso   1.000  N
  H161     1.0000 0.76470  0.68760  0.13670  Biso   1.000  H
  H162     1.0000 0.23530  0.18760  0.36330  Biso   1.000  H
  H163     1.0000 0.23530  0.31240  0.86330  Biso   1.000  H
  H164     1.0000 0.76470  0.81240  0.63670  Biso   1.000  H
  H165     1.0000 0.80030  0.66970  0.21940  Biso   1.000  H
  H166     1.0000 0.19970  0.16970  0.28060  Biso   1.000  H
  H167     1.0000 0.19970  0.33030  0.78060  Biso   1.000  H
  H168     1.0000 0.80030  0.83030  0.71940  Biso   1.000  H
  O1       1.0000 0.89020  0.78580  0.54110  Biso   1.000  O
  O2       1.0000 0.10980  0.28580  0.95890  Biso   1.000  O
  O3       1.0000 0.10980  0.21420  0.45890  Biso   1.000  O
  O4       1.0000 0.89020  0.71420  0.04110  Biso   1.000  O
  H169     1.0000 0.97200  0.77570  0.51200  Biso   1.000  H
  H170     1.0000 0.02800  0.27570  0.98800  Biso   1.000  H
  H171     1.0000 0.02800  0.22430  0.48800  Biso   1.000  H
  H172     1.0000 0.97200  0.72430  0.01200  Biso   1.000  H
  H173     1.0000 0.81970  0.76440  0.55310  Biso   1.000  H
  H174     1.0000 0.18030  0.26440  0.94690  Biso   1.000  H
  H175     1.0000 0.18030  0.23560  0.44690  Biso   1.000  H
  H176     1.0000 0.81970  0.73560  0.05310  Biso   1.000  H
  W1       1.0000 0.31863  0.65825  0.47817  Biso   1.000  W
  W2       1.0000 0.68137  0.15825  0.02183  Biso   1.000  W
  W3       1.0000 0.68137  0.34175  0.52183  Biso   1.000  W
  W4       1.0000 0.31863  0.84175  0.97817  Biso   1.000  W
