data_image0
_cell_length_a       21.456
_cell_length_b       15.359
_cell_length_c       18.491
_cell_angle_alpha    90
_cell_angle_beta     97.74
_cell_angle_gamma    90

_symmetry_space_group_name_H-M    "P 1"
_symmetry_int_tables_number       1

loop_
  _symmetry_equiv_pos_as_xyz
  'x, y, z'

loop_
  _atom_site_label
  _atom_site_occupancy
  _atom_site_fract_x
  _atom_site_fract_y
  _atom_site_fract_z
  _atom_site_thermal_displace_type
  _atom_site_B_iso_or_equiv
  _atom_site_type_symbol
  C1       1.0000 0.76965  0.52259  0.58609  Biso   1.000  C
  C2       1.0000 0.23035  0.52259  0.91391  Biso   1.000  C
  C3       1.0000 0.26965  0.02259  0.58609  Biso   1.000  C
  C4       1.0000 0.73035  0.02259  0.91391  Biso   1.000  C
  C5       1.0000 0.23035  0.47741  0.41391  Biso   1.000  C
  C6       1.0000 0.76965  0.47741  0.08609  Biso   1.000  C
  C7       1.0000 0.73035  0.97741  0.41391  Biso   1.000  C
  C8       1.0000 0.26965  0.97741  0.08609  Biso   1.000  C
  H1       1.0000 0.74630  0.48820  0.61800  Biso   1.000  H
  H2       1.0000 0.25370  0.48820  0.88200  Biso   1.000  H
  H3       1.0000 0.24630  0.98820  0.61800  Biso   1.000  H
  H4       1.0000 0.75370  0.98820  0.88200  Biso   1.000  H
  H5       1.0000 0.25370  0.51180  0.38200  Biso   1.000  H
  H6       1.0000 0.74630  0.51180  0.11800  Biso   1.000  H
  H7       1.0000 0.75370  0.01180  0.38200  Biso   1.000  H
  H8       1.0000 0.24630  0.01180  0.11800  Biso   1.000  H
  H9       1.0000 0.75200  0.51260  0.53510  Biso   1.000  H
  H10      1.0000 0.24800  0.51260  0.96490  Biso   1.000  H
  H11      1.0000 0.25200  0.01260  0.53510  Biso   1.000  H
  H12      1.0000 0.74800  0.01260  0.96490  Biso   1.000  H
  H13      1.0000 0.24800  0.48740  0.46490  Biso   1.000  H
  H14      1.0000 0.75200  0.48740  0.03510  Biso   1.000  H
  H15      1.0000 0.74800  0.98740  0.46490  Biso   1.000  H
  H16      1.0000 0.25200  0.98740  0.03510  Biso   1.000  H
  H17      1.0000 0.76640  0.58450  0.59770  Biso   1.000  H
  H18      1.0000 0.23360  0.58450  0.90230  Biso   1.000  H
  H19      1.0000 0.26640  0.08450  0.59770  Biso   1.000  H
  H20      1.0000 0.73360  0.08450  0.90230  Biso   1.000  H
  H21      1.0000 0.23360  0.41550  0.40230  Biso   1.000  H
  H22      1.0000 0.76640  0.41550  0.09770  Biso   1.000  H
  H23      1.0000 0.73360  0.91550  0.40230  Biso   1.000  H
  H24      1.0000 0.26640  0.91550  0.09770  Biso   1.000  H
  C9       1.0000 0.83728  0.49578  0.59738  Biso   1.000  C
  C10      1.0000 0.16272  0.49578  0.90262  Biso   1.000  C
  C11      1.0000 0.33728  0.99578  0.59738  Biso   1.000  C
  C12      1.0000 0.66272  0.99578  0.90262  Biso   1.000  C
  C13      1.0000 0.16272  0.50422  0.40262  Biso   1.000  C
  C14      1.0000 0.83728  0.50422  0.09738  Biso   1.000  C
  C15      1.0000 0.66272  0.00422  0.40262  Biso   1.000  C
  C16      1.0000 0.33728  0.00422  0.09738  Biso   1.000  C
  C17      1.0000 0.87223  0.44383  0.55608  Biso   1.000  C
  C18      1.0000 0.12777  0.44383  0.94392  Biso   1.000  C
  C19      1.0000 0.37223  0.94383  0.55608  Biso   1.000  C
  C20      1.0000 0.62777  0.94383  0.94392  Biso   1.000  C
  C21      1.0000 0.12777  0.55617  0.44392  Biso   1.000  C
  C22      1.0000 0.87223  0.55617  0.05608  Biso   1.000  C
  C23      1.0000 0.62777  0.05617  0.44392  Biso   1.000  C
  C24      1.0000 0.37223  0.05617  0.05608  Biso   1.000  C
  C25      1.0000 0.93294  0.43713  0.59578  Biso   1.000  C
  C26      1.0000 0.06706  0.43713  0.90422  Biso   1.000  C
  C27      1.0000 0.43294  0.93713  0.59578  Biso   1.000  C
  C28      1.0000 0.56706  0.93713  0.90422  Biso   1.000  C
  C29      1.0000 0.06706  0.56287  0.40422  Biso   1.000  C
  C30      1.0000 0.93294  0.56287  0.09578  Biso   1.000  C
  C31      1.0000 0.56706  0.06287  0.40422  Biso   1.000  C
  C32      1.0000 0.43294  0.06287  0.09578  Biso   1.000  C
  C33      1.0000 0.98757  0.38947  0.57328  Biso   1.000  C
  C34      1.0000 0.01243  0.38947  0.92672  Biso   1.000  C
  C35      1.0000 0.48757  0.88947  0.57328  Biso   1.000  C
  C36      1.0000 0.51243  0.88947  0.92672  Biso   1.000  C
  C37      1.0000 0.01243  0.61053  0.42672  Biso   1.000  C
  C38      1.0000 0.98757  0.61053  0.07328  Biso   1.000  C
  C39      1.0000 0.51243  0.11053  0.42672  Biso   1.000  C
  C40      1.0000 0.48757  0.11053  0.07328  Biso   1.000  C
  H25      1.0000 0.01320  0.42960  0.54850  Biso   1.000  H
  H26      1.0000 0.98680  0.42960  0.95150  Biso   1.000  H
  H27      1.0000 0.51320  0.92960  0.54850  Biso   1.000  H
  H28      1.0000 0.48680  0.92960  0.95150  Biso   1.000  H
  H29      1.0000 0.98680  0.57040  0.45150  Biso   1.000  H
  H30      1.0000 0.01320  0.57040  0.04850  Biso   1.000  H
  H31      1.0000 0.48680  0.07040  0.45150  Biso   1.000  H
  H32      1.0000 0.51320  0.07040  0.04850  Biso   1.000  H
  H33      1.0000 0.97240  0.34210  0.54000  Biso   1.000  H
  H34      1.0000 0.02760  0.34210  0.96000  Biso   1.000  H
  H35      1.0000 0.47240  0.84210  0.54000  Biso   1.000  H
  H36      1.0000 0.52760  0.84210  0.96000  Biso   1.000  H
  H37      1.0000 0.02760  0.65790  0.46000  Biso   1.000  H
  H38      1.0000 0.97240  0.65790  0.04000  Biso   1.000  H
  H39      1.0000 0.52760  0.15790  0.46000  Biso   1.000  H
  H40      1.0000 0.47240  0.15790  0.04000  Biso   1.000  H
  H41      1.0000 0.01310  0.36530  0.61650  Biso   1.000  H
  H42      1.0000 0.98690  0.36530  0.88350  Biso   1.000  H
  H43      1.0000 0.51310  0.86530  0.61650  Biso   1.000  H
  H44      1.0000 0.48690  0.86530  0.88350  Biso   1.000  H
  H45      1.0000 0.98690  0.63470  0.38350  Biso   1.000  H
  H46      1.0000 0.01310  0.63470  0.11650  Biso   1.000  H
  H47      1.0000 0.48690  0.13470  0.38350  Biso   1.000  H
  H48      1.0000 0.51310  0.13470  0.11650  Biso   1.000  H
  C41      1.0000 0.97077  0.35740  0.37061  Biso   1.000  C
  C42      1.0000 0.02923  0.35740  0.12939  Biso   1.000  C
  C43      1.0000 0.47077  0.85740  0.37061  Biso   1.000  C
  C44      1.0000 0.52923  0.85740  0.12939  Biso   1.000  C
  C45      1.0000 0.02923  0.64260  0.62939  Biso   1.000  C
  C46      1.0000 0.97077  0.64260  0.87061  Biso   1.000  C
  C47      1.0000 0.52923  0.14260  0.62939  Biso   1.000  C
  C48      1.0000 0.47077  0.14260  0.87061  Biso   1.000  C
  H49      1.0000 0.98450  0.34310  0.32360  Biso   1.000  H
  H50      1.0000 0.01550  0.34310  0.17640  Biso   1.000  H
  H51      1.0000 0.48450  0.84310  0.32360  Biso   1.000  H
  H52      1.0000 0.51550  0.84310  0.17640  Biso   1.000  H
  H53      1.0000 0.01550  0.65690  0.67640  Biso   1.000  H
  H54      1.0000 0.98450  0.65690  0.82360  Biso   1.000  H
  H55      1.0000 0.51550  0.15690  0.67640  Biso   1.000  H
  H56      1.0000 0.48450  0.15690  0.82360  Biso   1.000  H
  H57      1.0000 0.94940  0.30700  0.38850  Biso   1.000  H
  H58      1.0000 0.05060  0.30700  0.11150  Biso   1.000  H
  H59      1.0000 0.44940  0.80700  0.38850  Biso   1.000  H
  H60      1.0000 0.55060  0.80700  0.11150  Biso   1.000  H
  H61      1.0000 0.05060  0.69300  0.61150  Biso   1.000  H
  H62      1.0000 0.94940  0.69300  0.88850  Biso   1.000  H
  H63      1.0000 0.55060  0.19300  0.61150  Biso   1.000  H
  H64      1.0000 0.44940  0.19300  0.88850  Biso   1.000  H
  H65      1.0000 0.00750  0.37250  0.40590  Biso   1.000  H
  H66      1.0000 0.99250  0.37250  0.09410  Biso   1.000  H
  H67      1.0000 0.50750  0.87250  0.40590  Biso   1.000  H
  H68      1.0000 0.49250  0.87250  0.09410  Biso   1.000  H
  H69      1.0000 0.99250  0.62750  0.59410  Biso   1.000  H
  H70      1.0000 0.00750  0.62750  0.90590  Biso   1.000  H
  H71      1.0000 0.49250  0.12750  0.59410  Biso   1.000  H
  H72      1.0000 0.50750  0.12750  0.90590  Biso   1.000  H
  C49      1.0000 0.92668  0.43281  0.36128  Biso   1.000  C
  C50      1.0000 0.07332  0.43281  0.13872  Biso   1.000  C
  C51      1.0000 0.42668  0.93281  0.36128  Biso   1.000  C
  C52      1.0000 0.57332  0.93281  0.13872  Biso   1.000  C
  C53      1.0000 0.07332  0.56719  0.63872  Biso   1.000  C
  C54      1.0000 0.92668  0.56719  0.86128  Biso   1.000  C
  C55      1.0000 0.57332  0.06719  0.63872  Biso   1.000  C
  C56      1.0000 0.42668  0.06719  0.86128  Biso   1.000  C
  C57      1.0000 0.87522  0.45220  0.39826  Biso   1.000  C
  C58      1.0000 0.12478  0.45220  0.10174  Biso   1.000  C
  C59      1.0000 0.37522  0.95220  0.39826  Biso   1.000  C
  C60      1.0000 0.62478  0.95220  0.10174  Biso   1.000  C
  C61      1.0000 0.12478  0.54780  0.60174  Biso   1.000  C
  C62      1.0000 0.87522  0.54780  0.89826  Biso   1.000  C
  C63      1.0000 0.62478  0.04780  0.60174  Biso   1.000  C
  C64      1.0000 0.37522  0.04780  0.89826  Biso   1.000  C
  C65      1.0000 0.84777  0.52685  0.36613  Biso   1.000  C
  C66      1.0000 0.15223  0.52685  0.13387  Biso   1.000  C
  C67      1.0000 0.34777  0.02685  0.36613  Biso   1.000  C
  C68      1.0000 0.65223  0.02685  0.13387  Biso   1.000  C
  C69      1.0000 0.15223  0.47315  0.63387  Biso   1.000  C
  C70      1.0000 0.84777  0.47315  0.86613  Biso   1.000  C
  C71      1.0000 0.65223  0.97315  0.63387  Biso   1.000  C
  C72      1.0000 0.34777  0.97315  0.86613  Biso   1.000  C
  C73      1.0000 0.78973  0.57463  0.37889  Biso   1.000  C
  C74      1.0000 0.21027  0.57463  0.12111  Biso   1.000  C
  C75      1.0000 0.28973  0.07463  0.37889  Biso   1.000  C
  C76      1.0000 0.71027  0.07463  0.12111  Biso   1.000  C
  C77      1.0000 0.21027  0.42537  0.62111  Biso   1.000  C
  C78      1.0000 0.78973  0.42537  0.87889  Biso   1.000  C
  C79      1.0000 0.71027  0.92537  0.62111  Biso   1.000  C
  C80      1.0000 0.28973  0.92537  0.87889  Biso   1.000  C
  H73      1.0000 0.78550  0.62740  0.34890  Biso   1.000  H
  H74      1.0000 0.21450  0.62740  0.15110  Biso   1.000  H
  H75      1.0000 0.28550  0.12740  0.34890  Biso   1.000  H
  H76      1.0000 0.71450  0.12740  0.15110  Biso   1.000  H
  H77      1.0000 0.21450  0.37260  0.65110  Biso   1.000  H
  H78      1.0000 0.78550  0.37260  0.84890  Biso   1.000  H
  H79      1.0000 0.71450  0.87260  0.65110  Biso   1.000  H
  H80      1.0000 0.28550  0.87260  0.84890  Biso   1.000  H
  H81      1.0000 0.79260  0.59060  0.43050  Biso   1.000  H
  H82      1.0000 0.20740  0.59060  0.06950  Biso   1.000  H
  H83      1.0000 0.29260  0.09060  0.43050  Biso   1.000  H
  H84      1.0000 0.70740  0.09060  0.06950  Biso   1.000  H
  H85      1.0000 0.20740  0.40940  0.56950  Biso   1.000  H
  H86      1.0000 0.79260  0.40940  0.93050  Biso   1.000  H
  H87      1.0000 0.70740  0.90940  0.56950  Biso   1.000  H
  H88      1.0000 0.29260  0.90940  0.93050  Biso   1.000  H
  H89      1.0000 0.75300  0.53720  0.36560  Biso   1.000  H
  H90      1.0000 0.24700  0.53720  0.13440  Biso   1.000  H
  H91      1.0000 0.25300  0.03720  0.36560  Biso   1.000  H
  H92      1.0000 0.74700  0.03720  0.13440  Biso   1.000  H
  H93      1.0000 0.24700  0.46280  0.63440  Biso   1.000  H
  H94      1.0000 0.75300  0.46280  0.86560  Biso   1.000  H
  H95      1.0000 0.74700  0.96280  0.63440  Biso   1.000  H
  H96      1.0000 0.25300  0.96280  0.86560  Biso   1.000  H
  C81      1.0000 0.93216  0.04009  0.84170  Biso   1.000  C
  C82      1.0000 0.06784  0.04009  0.65830  Biso   1.000  C
  C83      1.0000 0.43216  0.54009  0.84170  Biso   1.000  C
  C84      1.0000 0.56784  0.54009  0.65830  Biso   1.000  C
  C85      1.0000 0.06784  0.95991  0.15830  Biso   1.000  C
  C86      1.0000 0.93216  0.95991  0.34170  Biso   1.000  C
  C87      1.0000 0.56784  0.45991  0.15830  Biso   1.000  C
  C88      1.0000 0.43216  0.45991  0.34170  Biso   1.000  C
  C89      1.0000 0.97655  0.97286  0.84964  Biso   1.000  C
  C90      1.0000 0.02345  0.97286  0.65036  Biso   1.000  C
  C91      1.0000 0.47655  0.47286  0.84964  Biso   1.000  C
  C92      1.0000 0.52345  0.47286  0.65036  Biso   1.000  C
  C93      1.0000 0.02345  0.02714  0.15036  Biso   1.000  C
  C94      1.0000 0.97655  0.02714  0.34964  Biso   1.000  C
  C95      1.0000 0.52345  0.52714  0.15036  Biso   1.000  C
  C96      1.0000 0.47655  0.52714  0.34964  Biso   1.000  C
  H97      1.0000 0.01770  0.98340  0.87400  Biso   1.000  H
  H98      1.0000 0.98230  0.98340  0.62600  Biso   1.000  H
  H99      1.0000 0.51770  0.48340  0.87400  Biso   1.000  H
  H100     1.0000 0.48230  0.48340  0.62600  Biso   1.000  H
  H101     1.0000 0.98230  0.01660  0.12600  Biso   1.000  H
  H102     1.0000 0.01770  0.01660  0.37400  Biso   1.000  H
  H103     1.0000 0.48230  0.51660  0.12600  Biso   1.000  H
  H104     1.0000 0.51770  0.51660  0.37400  Biso   1.000  H
  C97      1.0000 0.96033  0.89043  0.82184  Biso   1.000  C
  C98      1.0000 0.03967  0.89043  0.67816  Biso   1.000  C
  C99      1.0000 0.46033  0.39043  0.82184  Biso   1.000  C
  C100     1.0000 0.53967  0.39043  0.67816  Biso   1.000  C
  C101     1.0000 0.03967  0.10957  0.17816  Biso   1.000  C
  C102     1.0000 0.96033  0.10957  0.32184  Biso   1.000  C
  C103     1.0000 0.53967  0.60957  0.17816  Biso   1.000  C
  C104     1.0000 0.46033  0.60957  0.32184  Biso   1.000  C
  H105     1.0000 0.99060  0.84490  0.82690  Biso   1.000  H
  H106     1.0000 0.00940  0.84490  0.67310  Biso   1.000  H
  H107     1.0000 0.49060  0.34490  0.82690  Biso   1.000  H
  H108     1.0000 0.50940  0.34490  0.67310  Biso   1.000  H
  H109     1.0000 0.00940  0.15510  0.17310  Biso   1.000  H
  H110     1.0000 0.99060  0.15510  0.32690  Biso   1.000  H
  H111     1.0000 0.50940  0.65510  0.17310  Biso   1.000  H
  H112     1.0000 0.49060  0.65510  0.32690  Biso   1.000  H
  C105     1.0000 0.90039  0.87468  0.78687  Biso   1.000  C
  C106     1.0000 0.09961  0.87468  0.71313  Biso   1.000  C
  C107     1.0000 0.40039  0.37468  0.78687  Biso   1.000  C
  C108     1.0000 0.59961  0.37468  0.71313  Biso   1.000  C
  C109     1.0000 0.09961  0.12532  0.21313  Biso   1.000  C
  C110     1.0000 0.90039  0.12532  0.28687  Biso   1.000  C
  C111     1.0000 0.59961  0.62532  0.21313  Biso   1.000  C
  C112     1.0000 0.40039  0.62532  0.28687  Biso   1.000  C
  H113     1.0000 0.88940  0.81820  0.76830  Biso   1.000  H
  H114     1.0000 0.11060  0.81820  0.73170  Biso   1.000  H
  H115     1.0000 0.38940  0.31820  0.76830  Biso   1.000  H
  H116     1.0000 0.61060  0.31820  0.73170  Biso   1.000  H
  H117     1.0000 0.11060  0.18180  0.23170  Biso   1.000  H
  H118     1.0000 0.88940  0.18180  0.26830  Biso   1.000  H
  H119     1.0000 0.61060  0.68180  0.23170  Biso   1.000  H
  H120     1.0000 0.38940  0.68180  0.26830  Biso   1.000  H
  C113     1.0000 0.85628  0.94080  0.77881  Biso   1.000  C
  C114     1.0000 0.14372  0.94080  0.72119  Biso   1.000  C
  C115     1.0000 0.35628  0.44080  0.77881  Biso   1.000  C
  C116     1.0000 0.64372  0.44080  0.72119  Biso   1.000  C
  C117     1.0000 0.14372  0.05920  0.22119  Biso   1.000  C
  C118     1.0000 0.85628  0.05920  0.27881  Biso   1.000  C
  C119     1.0000 0.64372  0.55920  0.22119  Biso   1.000  C
  C120     1.0000 0.35628  0.55920  0.27881  Biso   1.000  C
  H121     1.0000 0.81510  0.92960  0.75470  Biso   1.000  H
  H122     1.0000 0.18490  0.92960  0.74530  Biso   1.000  H
  H123     1.0000 0.31510  0.42960  0.75470  Biso   1.000  H
  H124     1.0000 0.68490  0.42960  0.74530  Biso   1.000  H
  H125     1.0000 0.18490  0.07040  0.24530  Biso   1.000  H
  H126     1.0000 0.81510  0.07040  0.25470  Biso   1.000  H
  H127     1.0000 0.68490  0.57040  0.24530  Biso   1.000  H
  H128     1.0000 0.31510  0.57040  0.25470  Biso   1.000  H
  C121     1.0000 0.87171  0.02374  0.80581  Biso   1.000  C
  C122     1.0000 0.12829  0.02374  0.69419  Biso   1.000  C
  C123     1.0000 0.37171  0.52374  0.80581  Biso   1.000  C
  C124     1.0000 0.62829  0.52374  0.69419  Biso   1.000  C
  C125     1.0000 0.12829  0.97626  0.19419  Biso   1.000  C
  C126     1.0000 0.87171  0.97626  0.30581  Biso   1.000  C
  C127     1.0000 0.62829  0.47626  0.19419  Biso   1.000  C
  C128     1.0000 0.37171  0.47626  0.30581  Biso   1.000  C
  H129     1.0000 0.84130  0.06900  0.79990  Biso   1.000  H
  H130     1.0000 0.15870  0.06900  0.70010  Biso   1.000  H
  H131     1.0000 0.34130  0.56900  0.79990  Biso   1.000  H
  H132     1.0000 0.65870  0.56900  0.70010  Biso   1.000  H
  H133     1.0000 0.15870  0.93100  0.20010  Biso   1.000  H
  H134     1.0000 0.84130  0.93100  0.29990  Biso   1.000  H
  H135     1.0000 0.65870  0.43100  0.20010  Biso   1.000  H
  H136     1.0000 0.34130  0.43100  0.29990  Biso   1.000  H
  C129     1.0000 0.89479  0.09403  0.99831  Biso   1.000  C
  C130     1.0000 0.10521  0.09403  0.50169  Biso   1.000  C
  C131     1.0000 0.39479  0.59403  0.99831  Biso   1.000  C
  C132     1.0000 0.60521  0.59403  0.50169  Biso   1.000  C
  C133     1.0000 0.10521  0.90597  0.00169  Biso   1.000  C
  C134     1.0000 0.89479  0.90597  0.49831  Biso   1.000  C
  C135     1.0000 0.60521  0.40597  0.00169  Biso   1.000  C
  C136     1.0000 0.39479  0.40597  0.49831  Biso   1.000  C
  H137     1.0000 0.90650  0.03650  0.98690  Biso   1.000  H
  H138     1.0000 0.09350  0.03650  0.51310  Biso   1.000  H
  H139     1.0000 0.40650  0.53650  0.98690  Biso   1.000  H
  H140     1.0000 0.59350  0.53650  0.51310  Biso   1.000  H
  H141     1.0000 0.09350  0.96350  0.01310  Biso   1.000  H
  H142     1.0000 0.90650  0.96350  0.48690  Biso   1.000  H
  H143     1.0000 0.59350  0.46350  0.01310  Biso   1.000  H
  H144     1.0000 0.40650  0.46350  0.48690  Biso   1.000  H
  C137     1.0000 0.86575  0.10921  0.06015  Biso   1.000  C
  C138     1.0000 0.13425  0.10921  0.43985  Biso   1.000  C
  C139     1.0000 0.36575  0.60921  0.06015  Biso   1.000  C
  C140     1.0000 0.63425  0.60921  0.43985  Biso   1.000  C
  C141     1.0000 0.13425  0.89079  0.93985  Biso   1.000  C
  C142     1.0000 0.86575  0.89079  0.56015  Biso   1.000  C
  C143     1.0000 0.63425  0.39079  0.93985  Biso   1.000  C
  C144     1.0000 0.36575  0.39079  0.56015  Biso   1.000  C
  H145     1.0000 0.85800  0.06200  0.09090  Biso   1.000  H
  H146     1.0000 0.14200  0.06200  0.40910  Biso   1.000  H
  H147     1.0000 0.35800  0.56200  0.09090  Biso   1.000  H
  H148     1.0000 0.64200  0.56200  0.40910  Biso   1.000  H
  H149     1.0000 0.14200  0.93800  0.90910  Biso   1.000  H
  H150     1.0000 0.85800  0.93800  0.59090  Biso   1.000  H
  H151     1.0000 0.64200  0.43800  0.90910  Biso   1.000  H
  H152     1.0000 0.35800  0.43800  0.59090  Biso   1.000  H
  C145     1.0000 0.84825  0.19234  0.07704  Biso   1.000  C
  C146     1.0000 0.15175  0.19234  0.42296  Biso   1.000  C
  C147     1.0000 0.34825  0.69234  0.07704  Biso   1.000  C
  C148     1.0000 0.65175  0.69234  0.42296  Biso   1.000  C
  C149     1.0000 0.15175  0.80766  0.92296  Biso   1.000  C
  C150     1.0000 0.84825  0.80766  0.57704  Biso   1.000  C
  C151     1.0000 0.65175  0.30766  0.92296  Biso   1.000  C
  C152     1.0000 0.34825  0.30766  0.57704  Biso   1.000  C
  H153     1.0000 0.82850  0.20240  0.11930  Biso   1.000  H
  H154     1.0000 0.17150  0.20240  0.38070  Biso   1.000  H
  H155     1.0000 0.32850  0.70240  0.11930  Biso   1.000  H
  H156     1.0000 0.67150  0.70240  0.38070  Biso   1.000  H
  H157     1.0000 0.17150  0.79760  0.88070  Biso   1.000  H
  H158     1.0000 0.82850  0.79760  0.61930  Biso   1.000  H
  H159     1.0000 0.67150  0.29760  0.88070  Biso   1.000  H
  H160     1.0000 0.32850  0.29760  0.61930  Biso   1.000  H
  C153     1.0000 0.90673  0.16311  0.95319  Biso   1.000  C
  C154     1.0000 0.09327  0.16311  0.54681  Biso   1.000  C
  C155     1.0000 0.40673  0.66311  0.95319  Biso   1.000  C
  C156     1.0000 0.59327  0.66311  0.54681  Biso   1.000  C
  C157     1.0000 0.09327  0.83689  0.04681  Biso   1.000  C
  C158     1.0000 0.90673  0.83689  0.45319  Biso   1.000  C
  C159     1.0000 0.59327  0.33689  0.04681  Biso   1.000  C
  C160     1.0000 0.40673  0.33689  0.45319  Biso   1.000  C
  C161     1.0000 0.07652  0.14666  0.86366  Biso   1.000  C
  C162     1.0000 0.92348  0.14666  0.63634  Biso   1.000  C
  C163     1.0000 0.57652  0.64666  0.86366  Biso   1.000  C
  C164     1.0000 0.42348  0.64666  0.63634  Biso   1.000  C
  C165     1.0000 0.92348  0.85334  0.13634  Biso   1.000  C
  C166     1.0000 0.07652  0.85334  0.36366  Biso   1.000  C
  C167     1.0000 0.42348  0.35334  0.13634  Biso   1.000  C
  C168     1.0000 0.57652  0.35334  0.36366  Biso   1.000  C
  H161     1.0000 0.06310  0.14650  0.81260  Biso   1.000  H
  H162     1.0000 0.93690  0.14650  0.68740  Biso   1.000  H
  H163     1.0000 0.56310  0.64650  0.81260  Biso   1.000  H
  H164     1.0000 0.43690  0.64650  0.68740  Biso   1.000  H
  H165     1.0000 0.93690  0.85350  0.18740  Biso   1.000  H
  H166     1.0000 0.06310  0.85350  0.31260  Biso   1.000  H
  H167     1.0000 0.43690  0.35350  0.18740  Biso   1.000  H
  H168     1.0000 0.56310  0.35350  0.31260  Biso   1.000  H
  C169     1.0000 0.11652  0.14863  0.01317  Biso   1.000  C
  C170     1.0000 0.88348  0.14863  0.48683  Biso   1.000  C
  C171     1.0000 0.61652  0.64863  0.01317  Biso   1.000  C
  C172     1.0000 0.38348  0.64863  0.48683  Biso   1.000  C
  C173     1.0000 0.88348  0.85137  0.98683  Biso   1.000  C
  C174     1.0000 0.11652  0.85137  0.51317  Biso   1.000  C
  C175     1.0000 0.38348  0.35137  0.98683  Biso   1.000  C
  C176     1.0000 0.61652  0.35137  0.51317  Biso   1.000  C
  H169     1.0000 0.13040  0.14960  0.06420  Biso   1.000  H
  H170     1.0000 0.86960  0.14960  0.43580  Biso   1.000  H
  H171     1.0000 0.63040  0.64960  0.06420  Biso   1.000  H
  H172     1.0000 0.36960  0.64960  0.43580  Biso   1.000  H
  H173     1.0000 0.86960  0.85040  0.93580  Biso   1.000  H
  H174     1.0000 0.13040  0.85040  0.56420  Biso   1.000  H
  H175     1.0000 0.36960  0.35040  0.93580  Biso   1.000  H
  H176     1.0000 0.63040  0.35040  0.56420  Biso   1.000  H
  C177     1.0000 0.05261  0.14969  0.98780  Biso   1.000  C
  C178     1.0000 0.94739  0.14969  0.51220  Biso   1.000  C
  C179     1.0000 0.55261  0.64969  0.98780  Biso   1.000  C
  C180     1.0000 0.44739  0.64969  0.51220  Biso   1.000  C
  C181     1.0000 0.94739  0.85031  0.01220  Biso   1.000  C
  C182     1.0000 0.05261  0.85031  0.48780  Biso   1.000  C
  C183     1.0000 0.44739  0.35031  0.01220  Biso   1.000  C
  C184     1.0000 0.55261  0.35031  0.48780  Biso   1.000  C
  H177     1.0000 0.02280  0.15100  0.02150  Biso   1.000  H
  H178     1.0000 0.97720  0.15100  0.47850  Biso   1.000  H
  H179     1.0000 0.52280  0.65100  0.02150  Biso   1.000  H
  H180     1.0000 0.47720  0.65100  0.47850  Biso   1.000  H
  H181     1.0000 0.97720  0.84900  0.97850  Biso   1.000  H
  H182     1.0000 0.02280  0.84900  0.52150  Biso   1.000  H
  H183     1.0000 0.47720  0.34900  0.97850  Biso   1.000  H
  H184     1.0000 0.52280  0.34900  0.52150  Biso   1.000  H
  C185     1.0000 0.03194  0.14881  0.91255  Biso   1.000  C
  C186     1.0000 0.96806  0.14881  0.58745  Biso   1.000  C
  C187     1.0000 0.53194  0.64881  0.91255  Biso   1.000  C
  C188     1.0000 0.46806  0.64881  0.58745  Biso   1.000  C
  C189     1.0000 0.96806  0.85119  0.08745  Biso   1.000  C
  C190     1.0000 0.03194  0.85119  0.41255  Biso   1.000  C
  C191     1.0000 0.46806  0.35119  0.08745  Biso   1.000  C
  C192     1.0000 0.53194  0.35119  0.41255  Biso   1.000  C
  C193     1.0000 0.16016  0.14610  0.96428  Biso   1.000  C
  C194     1.0000 0.83984  0.14610  0.53572  Biso   1.000  C
  C195     1.0000 0.66016  0.64610  0.96428  Biso   1.000  C
  C196     1.0000 0.33984  0.64610  0.53572  Biso   1.000  C
  C197     1.0000 0.83984  0.85390  0.03572  Biso   1.000  C
  C198     1.0000 0.16016  0.85390  0.46428  Biso   1.000  C
  C199     1.0000 0.33984  0.35390  0.03572  Biso   1.000  C
  C200     1.0000 0.66016  0.35390  0.46428  Biso   1.000  C
  H185     1.0000 0.20380  0.14530  0.98190  Biso   1.000  H
  H186     1.0000 0.79620  0.14530  0.51810  Biso   1.000  H
  H187     1.0000 0.70380  0.64530  0.98190  Biso   1.000  H
  H188     1.0000 0.29620  0.64530  0.51810  Biso   1.000  H
  H189     1.0000 0.79620  0.85470  0.01810  Biso   1.000  H
  H190     1.0000 0.20380  0.85470  0.48190  Biso   1.000  H
  H191     1.0000 0.29620  0.35470  0.01810  Biso   1.000  H
  H192     1.0000 0.70380  0.35470  0.48190  Biso   1.000  H
  C201     1.0000 0.88851  0.24716  0.97001  Biso   1.000  C
  C202     1.0000 0.11149  0.24716  0.52999  Biso   1.000  C
  C203     1.0000 0.38851  0.74716  0.97001  Biso   1.000  C
  C204     1.0000 0.61149  0.74716  0.52999  Biso   1.000  C
  C205     1.0000 0.11149  0.75284  0.02999  Biso   1.000  C
  C206     1.0000 0.88851  0.75284  0.47001  Biso   1.000  C
  C207     1.0000 0.61149  0.25284  0.02999  Biso   1.000  C
  C208     1.0000 0.38851  0.25284  0.47001  Biso   1.000  C
  H193     1.0000 0.89590  0.29450  0.93920  Biso   1.000  H
  H194     1.0000 0.10410  0.29450  0.56080  Biso   1.000  H
  H195     1.0000 0.39590  0.79450  0.93920  Biso   1.000  H
  H196     1.0000 0.60410  0.79450  0.56080  Biso   1.000  H
  H197     1.0000 0.10410  0.70550  0.06080  Biso   1.000  H
  H198     1.0000 0.89590  0.70550  0.43920  Biso   1.000  H
  H199     1.0000 0.60410  0.20550  0.06080  Biso   1.000  H
  H200     1.0000 0.39590  0.20550  0.43920  Biso   1.000  H
  C209     1.0000 0.85963  0.26146  0.03183  Biso   1.000  C
  C210     1.0000 0.14037  0.26146  0.46817  Biso   1.000  C
  C211     1.0000 0.35963  0.76146  0.03183  Biso   1.000  C
  C212     1.0000 0.64037  0.76146  0.46817  Biso   1.000  C
  C213     1.0000 0.14037  0.73854  0.96817  Biso   1.000  C
  C214     1.0000 0.85963  0.73854  0.53183  Biso   1.000  C
  C215     1.0000 0.64037  0.23854  0.96817  Biso   1.000  C
  C216     1.0000 0.35963  0.23854  0.53183  Biso   1.000  C
  H201     1.0000 0.84760  0.31880  0.04340  Biso   1.000  H
  H202     1.0000 0.15240  0.31880  0.45660  Biso   1.000  H
  H203     1.0000 0.34760  0.81880  0.04340  Biso   1.000  H
  H204     1.0000 0.65240  0.81880  0.45660  Biso   1.000  H
  H205     1.0000 0.15240  0.68120  0.95660  Biso   1.000  H
  H206     1.0000 0.84760  0.68120  0.54340  Biso   1.000  H
  H207     1.0000 0.65240  0.18120  0.95660  Biso   1.000  H
  H208     1.0000 0.34760  0.18120  0.54340  Biso   1.000  H
  C217     1.0000 0.14020  0.14472  0.88991  Biso   1.000  C
  C218     1.0000 0.85980  0.14472  0.61009  Biso   1.000  C
  C219     1.0000 0.64020  0.64472  0.88991  Biso   1.000  C
  C220     1.0000 0.35980  0.64472  0.61009  Biso   1.000  C
  C221     1.0000 0.85980  0.85528  0.11009  Biso   1.000  C
  C222     1.0000 0.14020  0.85528  0.38991  Biso   1.000  C
  C223     1.0000 0.35980  0.35528  0.11009  Biso   1.000  C
  C224     1.0000 0.64020  0.35528  0.38991  Biso   1.000  C
  H209     1.0000 0.17030  0.14240  0.85670  Biso   1.000  H
  H210     1.0000 0.82970  0.14240  0.64330  Biso   1.000  H
  H211     1.0000 0.67030  0.64240  0.85670  Biso   1.000  H
  H212     1.0000 0.32970  0.64240  0.64330  Biso   1.000  H
  H213     1.0000 0.82970  0.85760  0.14330  Biso   1.000  H
  H214     1.0000 0.17030  0.85760  0.35670  Biso   1.000  H
  H215     1.0000 0.32970  0.35760  0.14330  Biso   1.000  H
  H216     1.0000 0.67030  0.35760  0.35670  Biso   1.000  H
  N1       1.0000 0.87644  0.51791  0.65756  Biso   1.000  N
  N2       1.0000 0.12356  0.51791  0.84244  Biso   1.000  N
  N3       1.0000 0.37644  0.01791  0.65756  Biso   1.000  N
  N4       1.0000 0.62356  0.01791  0.84244  Biso   1.000  N
  N5       1.0000 0.12356  0.48209  0.34244  Biso   1.000  N
  N6       1.0000 0.87644  0.48209  0.15756  Biso   1.000  N
  N7       1.0000 0.62356  0.98209  0.34244  Biso   1.000  N
  N8       1.0000 0.37644  0.98209  0.15756  Biso   1.000  N
  H217     1.0000 0.86550  0.55100  0.69260  Biso   1.000  H
  H218     1.0000 0.13450  0.55100  0.80740  Biso   1.000  H
  H219     1.0000 0.36550  0.05100  0.69260  Biso   1.000  H
  H220     1.0000 0.63450  0.05100  0.80740  Biso   1.000  H
  H221     1.0000 0.13450  0.44900  0.30740  Biso   1.000  H
  H222     1.0000 0.86550  0.44900  0.19260  Biso   1.000  H
  H223     1.0000 0.63450  0.94900  0.30740  Biso   1.000  H
  H224     1.0000 0.36550  0.94900  0.19260  Biso   1.000  H
  N9       1.0000 0.93546  0.48303  0.65830  Biso   1.000  N
  N10      1.0000 0.06454  0.48303  0.84170  Biso   1.000  N
  N11      1.0000 0.43546  0.98303  0.65830  Biso   1.000  N
  N12      1.0000 0.56454  0.98303  0.84170  Biso   1.000  N
  N13      1.0000 0.06454  0.51697  0.34170  Biso   1.000  N
  N14      1.0000 0.93546  0.51697  0.15830  Biso   1.000  N
  N15      1.0000 0.56454  0.01697  0.34170  Biso   1.000  N
  N16      1.0000 0.43546  0.01697  0.15830  Biso   1.000  N
  N17      1.0000 0.93111  0.49421  0.30991  Biso   1.000  N
  N18      1.0000 0.06889  0.49421  0.19009  Biso   1.000  N
  N19      1.0000 0.43111  0.99421  0.30991  Biso   1.000  N
  N20      1.0000 0.56889  0.99421  0.19009  Biso   1.000  N
  N21      1.0000 0.06889  0.50579  0.69009  Biso   1.000  N
  N22      1.0000 0.93111  0.50579  0.80991  Biso   1.000  N
  N23      1.0000 0.56889  0.00579  0.69009  Biso   1.000  N
  N24      1.0000 0.43111  0.00579  0.80991  Biso   1.000  N
  N25      1.0000 0.88268  0.55081  0.31437  Biso   1.000  N
  N26      1.0000 0.11732  0.55081  0.18563  Biso   1.000  N
  N27      1.0000 0.38268  0.05081  0.31437  Biso   1.000  N
  N28      1.0000 0.61732  0.05081  0.18563  Biso   1.000  N
  N29      1.0000 0.11732  0.44919  0.68563  Biso   1.000  N
  N30      1.0000 0.88268  0.44919  0.81437  Biso   1.000  N
  N31      1.0000 0.61732  0.94919  0.68563  Biso   1.000  N
  N32      1.0000 0.38268  0.94919  0.81437  Biso   1.000  N
  H225     1.0000 0.87520  0.59730  0.28670  Biso   1.000  H
  H226     1.0000 0.12480  0.59730  0.21330  Biso   1.000  H
  H227     1.0000 0.37520  0.09730  0.28670  Biso   1.000  H
  H228     1.0000 0.62480  0.09730  0.21330  Biso   1.000  H
  H229     1.0000 0.12480  0.40270  0.71330  Biso   1.000  H
  H230     1.0000 0.87520  0.40270  0.78670  Biso   1.000  H
  H231     1.0000 0.62480  0.90270  0.71330  Biso   1.000  H
  H232     1.0000 0.37520  0.90270  0.78670  Biso   1.000  H
  O1       1.0000 0.00000  0.33717  0.75000  Biso   1.000  O
  O2       1.0000 0.50000  0.83717  0.75000  Biso   1.000  O
  O3       1.0000 0.00000  0.66283  0.25000  Biso   1.000  O
  O4       1.0000 0.50000  0.16283  0.25000  Biso   1.000  O
  H233     1.0000 0.98100  0.30470  0.77360  Biso   1.000  H
  H234     1.0000 0.01900  0.30470  0.72640  Biso   1.000  H
  H235     1.0000 0.48100  0.80470  0.77360  Biso   1.000  H
  H236     1.0000 0.51900  0.80470  0.72640  Biso   1.000  H
  H237     1.0000 0.01900  0.69530  0.22640  Biso   1.000  H
  H238     1.0000 0.98100  0.69530  0.27360  Biso   1.000  H
  H239     1.0000 0.51900  0.19530  0.22640  Biso   1.000  H
  H240     1.0000 0.48100  0.19530  0.27360  Biso   1.000  H
  O5       1.0000 0.93330  0.21702  0.81896  Biso   1.000  O
  O6       1.0000 0.06670  0.21702  0.68104  Biso   1.000  O
  O7       1.0000 0.43330  0.71702  0.81896  Biso   1.000  O
  O8       1.0000 0.56670  0.71702  0.68104  Biso   1.000  O
  O9       1.0000 0.06670  0.78298  0.18104  Biso   1.000  O
  O10      1.0000 0.93330  0.78298  0.31896  Biso   1.000  O
  O11      1.0000 0.56670  0.28298  0.18104  Biso   1.000  O
  O12      1.0000 0.43330  0.28298  0.31896  Biso   1.000  O
  O13      1.0000 0.84524  0.31134  0.72590  Biso   1.000  O
  O14      1.0000 0.15476  0.31134  0.77410  Biso   1.000  O
  O15      1.0000 0.34524  0.81134  0.72590  Biso   1.000  O
  O16      1.0000 0.65476  0.81134  0.77410  Biso   1.000  O
  O17      1.0000 0.15476  0.68866  0.27410  Biso   1.000  O
  O18      1.0000 0.84524  0.68866  0.22590  Biso   1.000  O
  O19      1.0000 0.65476  0.18866  0.27410  Biso   1.000  O
  O20      1.0000 0.34524  0.18866  0.22590  Biso   1.000  O
  H241     1.0000 0.80410  0.29730  0.72070  Biso   1.000  H
  H242     1.0000 0.19590  0.29730  0.77930  Biso   1.000  H
  H243     1.0000 0.30410  0.79730  0.72070  Biso   1.000  H
  H244     1.0000 0.69590  0.79730  0.77930  Biso   1.000  H
  H245     1.0000 0.19590  0.70270  0.27930  Biso   1.000  H
  H246     1.0000 0.80410  0.70270  0.22070  Biso   1.000  H
  H247     1.0000 0.69590  0.20270  0.27930  Biso   1.000  H
  H248     1.0000 0.30410  0.20270  0.22070  Biso   1.000  H
  H249     1.0000 0.86870  0.26520  0.75050  Biso   1.000  H
  H250     1.0000 0.13130  0.26520  0.74950  Biso   1.000  H
  H251     1.0000 0.36870  0.76520  0.75050  Biso   1.000  H
  H252     1.0000 0.63130  0.76520  0.74950  Biso   1.000  H
  H253     1.0000 0.13130  0.73480  0.24950  Biso   1.000  H
  H254     1.0000 0.86870  0.73480  0.25050  Biso   1.000  H
  H255     1.0000 0.63130  0.23480  0.24950  Biso   1.000  H
  H256     1.0000 0.36870  0.23480  0.25050  Biso   1.000  H
  Cu1      1.0000 0.00000  0.48181  0.75000  Biso   1.000  Cu
  Cu2      1.0000 0.50000  0.98181  0.75000  Biso   1.000  Cu
  Cu3      1.0000 0.00000  0.51819  0.25000  Biso   1.000  Cu
  Cu4      1.0000 0.50000  0.01819  0.25000  Biso   1.000  Cu
  Se1      1.0000 0.84188  0.38220  0.46894  Biso   1.000  Se
  Se2      1.0000 0.15812  0.38220  0.03106  Biso   1.000  Se
  Se3      1.0000 0.34188  0.88220  0.46894  Biso   1.000  Se
  Se4      1.0000 0.65812  0.88220  0.03106  Biso   1.000  Se
  Se5      1.0000 0.15812  0.61780  0.53106  Biso   1.000  Se
  Se6      1.0000 0.84188  0.61780  0.96894  Biso   1.000  Se
  Se7      1.0000 0.65812  0.11780  0.53106  Biso   1.000  Se
  Se8      1.0000 0.34188  0.11780  0.96894  Biso   1.000  Se
  P1       1.0000 0.94959  0.14841  0.87644  Biso   1.000  P
  P2       1.0000 0.05041  0.14841  0.62356  Biso   1.000  P
  P3       1.0000 0.44959  0.64841  0.87644  Biso   1.000  P
  P4       1.0000 0.55041  0.64841  0.62356  Biso   1.000  P
  P5       1.0000 0.05041  0.85159  0.12356  Biso   1.000  P
  P6       1.0000 0.94959  0.85159  0.37644  Biso   1.000  P
  P7       1.0000 0.55041  0.35159  0.12356  Biso   1.000  P
  P8       1.0000 0.44959  0.35159  0.37644  Biso   1.000  P
  B1       1.0000 0.71450  0.17590  0.75026  Biso   1.000  B
  B2       1.0000 0.28550  0.17590  0.74974  Biso   1.000  B
  B3       1.0000 0.21450  0.67590  0.75026  Biso   1.000  B
  B4       1.0000 0.78550  0.67590  0.74974  Biso   1.000  B
  B5       1.0000 0.28550  0.82410  0.24974  Biso   1.000  B
  B6       1.0000 0.71450  0.82410  0.25026  Biso   1.000  B
  B7       1.0000 0.78550  0.32410  0.24974  Biso   1.000  B
  B8       1.0000 0.21450  0.32410  0.25026  Biso   1.000  B
  F1       1.0000 0.65217  0.17089  0.76495  Biso   1.000  F
  F2       1.0000 0.34783  0.17089  0.73505  Biso   1.000  F
  F3       1.0000 0.15217  0.67089  0.76495  Biso   1.000  F
  F4       1.0000 0.84783  0.67089  0.73505  Biso   1.000  F
  F5       1.0000 0.34783  0.82911  0.23505  Biso   1.000  F
  F6       1.0000 0.65217  0.82911  0.26495  Biso   1.000  F
  F7       1.0000 0.84783  0.32911  0.23505  Biso   1.000  F
  F8       1.0000 0.15217  0.32911  0.26495  Biso   1.000  F
  F9       1.0000 0.75223  0.21024  0.81081  Biso   1.000  F
  F10      1.0000 0.24777  0.21024  0.68919  Biso   1.000  F
  F11      1.0000 0.25223  0.71024  0.81081  Biso   1.000  F
  F12      1.0000 0.74777  0.71024  0.68919  Biso   1.000  F
  F13      1.0000 0.24777  0.78976  0.18919  Biso   1.000  F
  F14      1.0000 0.75223  0.78976  0.31081  Biso   1.000  F
  F15      1.0000 0.74777  0.28976  0.18919  Biso   1.000  F
  F16      1.0000 0.25223  0.28976  0.31081  Biso   1.000  F
  F17      1.0000 0.73540  0.09284  0.73760  Biso   1.000  F
  F18      1.0000 0.26460  0.09284  0.76240  Biso   1.000  F
  F19      1.0000 0.23540  0.59284  0.73760  Biso   1.000  F
  F20      1.0000 0.76460  0.59284  0.76240  Biso   1.000  F
  F21      1.0000 0.26460  0.90716  0.26240  Biso   1.000  F
  F22      1.0000 0.73540  0.90716  0.23760  Biso   1.000  F
  F23      1.0000 0.76460  0.40716  0.26240  Biso   1.000  F
  F24      1.0000 0.23540  0.40716  0.23760  Biso   1.000  F
  F25      1.0000 0.71809  0.22853  0.68996  Biso   1.000  F
  F26      1.0000 0.28191  0.22853  0.81004  Biso   1.000  F
  F27      1.0000 0.21809  0.72853  0.68996  Biso   1.000  F
  F28      1.0000 0.78191  0.72853  0.81004  Biso   1.000  F
  F29      1.0000 0.28191  0.77147  0.31004  Biso   1.000  F
  F30      1.0000 0.71809  0.77147  0.18996  Biso   1.000  F
  F31      1.0000 0.78191  0.27147  0.31004  Biso   1.000  F
  F32      1.0000 0.21809  0.27147  0.18996  Biso   1.000  F
