data_image0
_cell_length_a       13.553
_cell_length_b       9.1756
_cell_length_c       14.264
_cell_angle_alpha    90
_cell_angle_beta     90
_cell_angle_gamma    90

_symmetry_space_group_name_H-M    "P 1"
_symmetry_int_tables_number       1

loop_
  _symmetry_equiv_pos_as_xyz
  'x, y, z'

loop_
  _atom_site_label
  _atom_site_occupancy
  _atom_site_fract_x
  _atom_site_fract_y
  _atom_site_fract_z
  _atom_site_thermal_displace_type
  _atom_site_B_iso_or_equiv
  _atom_site_type_symbol
  Cu1      1.0000 0.50000  0.00000  0.50000  Biso   1.000  Cu
  Cu2      1.0000 0.00000  0.00000  0.00000  Biso   1.000  Cu
  Cu3      1.0000 0.00000  0.50000  0.50000  Biso   1.000  Cu
  Cu4      1.0000 0.50000  0.50000  0.00000  Biso   1.000  Cu
  N1       1.0000 0.59857  0.99681  0.60945  Biso   1.000  N
  N2       1.0000 0.90143  0.00319  0.10945  Biso   1.000  N
  N3       1.0000 0.09857  0.50319  0.39055  Biso   1.000  N
  N4       1.0000 0.40143  0.49681  0.89055  Biso   1.000  N
  N5       1.0000 0.40143  0.00319  0.39055  Biso   1.000  N
  N6       1.0000 0.09857  0.99681  0.89055  Biso   1.000  N
  N7       1.0000 0.90143  0.49681  0.60945  Biso   1.000  N
  N8       1.0000 0.59857  0.50319  0.10945  Biso   1.000  N
  N9       1.0000 0.56419  0.71166  0.84880  Biso   1.000  N
  N10      1.0000 0.93581  0.28834  0.34880  Biso   1.000  N
  N11      1.0000 0.06419  0.78834  0.15120  Biso   1.000  N
  N12      1.0000 0.43581  0.21166  0.65120  Biso   1.000  N
  N13      1.0000 0.43581  0.28834  0.15120  Biso   1.000  N
  N14      1.0000 0.06419  0.71166  0.65120  Biso   1.000  N
  N15      1.0000 0.93581  0.21166  0.84880  Biso   1.000  N
  N16      1.0000 0.56419  0.78834  0.34880  Biso   1.000  N
  C1       1.0000 0.65844  0.89225  0.75282  Biso   1.000  C
  C2       1.0000 0.84156  0.10775  0.25282  Biso   1.000  C
  C3       1.0000 0.15844  0.60775  0.24718  Biso   1.000  C
  C4       1.0000 0.34156  0.39225  0.74718  Biso   1.000  C
  C5       1.0000 0.34156  0.10775  0.24718  Biso   1.000  C
  C6       1.0000 0.15844  0.89225  0.74718  Biso   1.000  C
  C7       1.0000 0.84156  0.39225  0.75282  Biso   1.000  C
  C8       1.0000 0.65844  0.60775  0.25282  Biso   1.000  C
  C9       1.0000 0.64349  0.79258  0.83251  Biso   1.000  C
  C10      1.0000 0.85651  0.20742  0.33251  Biso   1.000  C
  C11      1.0000 0.14349  0.70742  0.16749  Biso   1.000  C
  C12      1.0000 0.35651  0.29258  0.66749  Biso   1.000  C
  C13      1.0000 0.35651  0.20742  0.16749  Biso   1.000  C
  C14      1.0000 0.14349  0.79258  0.66749  Biso   1.000  C
  C15      1.0000 0.85651  0.29258  0.83251  Biso   1.000  C
  C16      1.0000 0.64349  0.70742  0.33251  Biso   1.000  C
  N17      1.0000 0.58665  0.63933  0.92804  Biso   1.000  N
  N18      1.0000 0.91335  0.36067  0.42804  Biso   1.000  N
  N19      1.0000 0.08665  0.86067  0.07196  Biso   1.000  N
  N20      1.0000 0.41335  0.13933  0.57196  Biso   1.000  N
  N21      1.0000 0.41335  0.36067  0.07196  Biso   1.000  N
  N22      1.0000 0.08665  0.63933  0.57196  Biso   1.000  N
  N23      1.0000 0.91335  0.13933  0.92804  Biso   1.000  N
  N24      1.0000 0.58665  0.86067  0.42804  Biso   1.000  N
  N25      1.0000 0.71285  0.77240  0.89803  Biso   1.000  N
  N26      1.0000 0.78715  0.22760  0.39803  Biso   1.000  N
  N27      1.0000 0.21285  0.72760  0.10197  Biso   1.000  N
  N28      1.0000 0.28715  0.27240  0.60197  Biso   1.000  N
  N29      1.0000 0.28715  0.22760  0.10197  Biso   1.000  N
  N30      1.0000 0.21285  0.77240  0.60197  Biso   1.000  N
  N31      1.0000 0.78715  0.27240  0.89803  Biso   1.000  N
  N32      1.0000 0.71285  0.72760  0.39803  Biso   1.000  N
  C17      1.0000 0.58640  0.91125  0.68502  Biso   1.000  C
  C18      1.0000 0.91360  0.08875  0.18502  Biso   1.000  C
  C19      1.0000 0.08640  0.58875  0.31498  Biso   1.000  C
  C20      1.0000 0.41360  0.41125  0.81498  Biso   1.000  C
  C21      1.0000 0.41360  0.08875  0.31498  Biso   1.000  C
  C22      1.0000 0.08640  0.91125  0.81498  Biso   1.000  C
  C23      1.0000 0.91360  0.41125  0.68502  Biso   1.000  C
  C24      1.0000 0.58640  0.58875  0.18502  Biso   1.000  C
  H1       1.0000 0.52670  0.86240  0.69220  Biso   1.000  H
  H2       1.0000 0.97330  0.13760  0.19220  Biso   1.000  H
  H3       1.0000 0.02670  0.63760  0.30780  Biso   1.000  H
  H4       1.0000 0.47330  0.36240  0.80780  Biso   1.000  H
  H5       1.0000 0.47330  0.13760  0.30780  Biso   1.000  H
  H6       1.0000 0.02670  0.86240  0.80780  Biso   1.000  H
  H7       1.0000 0.97330  0.36240  0.69220  Biso   1.000  H
  H8       1.0000 0.52670  0.63760  0.19220  Biso   1.000  H
  C25      1.0000 0.68442  0.06900  0.60139  Biso   1.000  C
  C26      1.0000 0.81558  0.93100  0.10139  Biso   1.000  C
  C27      1.0000 0.18442  0.43100  0.39861  Biso   1.000  C
  C28      1.0000 0.31558  0.56900  0.89861  Biso   1.000  C
  C29      1.0000 0.31558  0.93100  0.39861  Biso   1.000  C
  C30      1.0000 0.18442  0.06900  0.89861  Biso   1.000  C
  C31      1.0000 0.81558  0.56900  0.60139  Biso   1.000  C
  C32      1.0000 0.68442  0.43100  0.10139  Biso   1.000  C
  H9       1.0000 0.69350  0.12990  0.55000  Biso   1.000  H
  H10      1.0000 0.80650  0.87010  0.05000  Biso   1.000  H
  H11      1.0000 0.19350  0.37010  0.45000  Biso   1.000  H
  H12      1.0000 0.30650  0.62990  0.95000  Biso   1.000  H
  H13      1.0000 0.30650  0.87010  0.45000  Biso   1.000  H
  H14      1.0000 0.19350  0.12990  0.95000  Biso   1.000  H
  H15      1.0000 0.80650  0.62990  0.55000  Biso   1.000  H
  H16      1.0000 0.69350  0.37010  0.05000  Biso   1.000  H
  C33      1.0000 0.75937  0.05660  0.66588  Biso   1.000  C
  C34      1.0000 0.74063  0.94340  0.16588  Biso   1.000  C
  C35      1.0000 0.25937  0.44340  0.33412  Biso   1.000  C
  C36      1.0000 0.24063  0.55660  0.83412  Biso   1.000  C
  C37      1.0000 0.24063  0.94340  0.33412  Biso   1.000  C
  C38      1.0000 0.25937  0.05660  0.83412  Biso   1.000  C
  C39      1.0000 0.74063  0.55660  0.66588  Biso   1.000  C
  C40      1.0000 0.75937  0.44340  0.16588  Biso   1.000  C
  H17      1.0000 0.81780  0.10810  0.65790  Biso   1.000  H
  H18      1.0000 0.68220  0.89190  0.15790  Biso   1.000  H
  H19      1.0000 0.31780  0.39190  0.34210  Biso   1.000  H
  H20      1.0000 0.18220  0.60810  0.84210  Biso   1.000  H
  H21      1.0000 0.18220  0.89190  0.34210  Biso   1.000  H
  H22      1.0000 0.31780  0.10810  0.84210  Biso   1.000  H
  H23      1.0000 0.68220  0.60810  0.65790  Biso   1.000  H
  H24      1.0000 0.81780  0.39190  0.15790  Biso   1.000  H
  N33      1.0000 0.67567  0.67505  0.95772  Biso   1.000  N
  N34      1.0000 0.82433  0.32495  0.45772  Biso   1.000  N
  N35      1.0000 0.17567  0.82495  0.04228  Biso   1.000  N
  N36      1.0000 0.32433  0.17505  0.54228  Biso   1.000  N
  N37      1.0000 0.32433  0.32495  0.04228  Biso   1.000  N
  N38      1.0000 0.17567  0.67505  0.54228  Biso   1.000  N
  N39      1.0000 0.82433  0.17505  0.95772  Biso   1.000  N
  N40      1.0000 0.67567  0.82495  0.45772  Biso   1.000  N
  C41      1.0000 0.74698  0.96690  0.74253  Biso   1.000  C
  C42      1.0000 0.75302  0.03310  0.24253  Biso   1.000  C
  C43      1.0000 0.24698  0.53310  0.25747  Biso   1.000  C
  C44      1.0000 0.25302  0.46690  0.75747  Biso   1.000  C
  C45      1.0000 0.25302  0.03310  0.25747  Biso   1.000  C
  C46      1.0000 0.24698  0.96690  0.75747  Biso   1.000  C
  C47      1.0000 0.75302  0.46690  0.74253  Biso   1.000  C
  C48      1.0000 0.74698  0.53310  0.24253  Biso   1.000  C
  H25      1.0000 0.79700  0.95660  0.78660  Biso   1.000  H
  H26      1.0000 0.70300  0.04340  0.28660  Biso   1.000  H
  H27      1.0000 0.29700  0.54340  0.21340  Biso   1.000  H
  H28      1.0000 0.20300  0.45660  0.71340  Biso   1.000  H
  H29      1.0000 0.20300  0.04340  0.21340  Biso   1.000  H
  H30      1.0000 0.29700  0.95660  0.71340  Biso   1.000  H
  H31      1.0000 0.70300  0.45660  0.78660  Biso   1.000  H
  H32      1.0000 0.79700  0.54340  0.28660  Biso   1.000  H
  O1       1.0000 0.58452  0.21181  0.42449  Biso   1.000  O
  O2       1.0000 0.91548  0.78819  0.92449  Biso   1.000  O
  O3       1.0000 0.08452  0.28819  0.57551  Biso   1.000  O
  O4       1.0000 0.41548  0.71181  0.07551  Biso   1.000  O
  O5       1.0000 0.41548  0.78819  0.57551  Biso   1.000  O
  O6       1.0000 0.08452  0.21181  0.07551  Biso   1.000  O
  O7       1.0000 0.91548  0.71181  0.42449  Biso   1.000  O
  O8       1.0000 0.58452  0.28819  0.92449  Biso   1.000  O
  H33      1.0000 0.64260  0.20840  0.40850  Biso   1.000  H
  H34      1.0000 0.85740  0.79160  0.90850  Biso   1.000  H
  H35      1.0000 0.14260  0.29160  0.59150  Biso   1.000  H
  H36      1.0000 0.35740  0.70840  0.09150  Biso   1.000  H
  H37      1.0000 0.35740  0.79160  0.59150  Biso   1.000  H
  H38      1.0000 0.14260  0.20840  0.09150  Biso   1.000  H
  H39      1.0000 0.85740  0.70840  0.40850  Biso   1.000  H
  H40      1.0000 0.64260  0.29160  0.90850  Biso   1.000  H
  C49      1.0000 0.55800  0.35710  0.44310  Biso   1.000  C
  C50      1.0000 0.94200  0.64290  0.94310  Biso   1.000  C
  C51      1.0000 0.05800  0.14290  0.55690  Biso   1.000  C
  C52      1.0000 0.44200  0.85710  0.05690  Biso   1.000  C
  C53      1.0000 0.44200  0.64290  0.55690  Biso   1.000  C
  C54      1.0000 0.05800  0.35710  0.05690  Biso   1.000  C
  C55      1.0000 0.94200  0.85710  0.44310  Biso   1.000  C
  C56      1.0000 0.55800  0.14290  0.94310  Biso   1.000  C
  H41      1.0000 0.48740  0.36580  0.44300  Biso   1.000  H
  H42      1.0000 0.01260  0.63420  0.94300  Biso   1.000  H
  H43      1.0000 0.98740  0.13420  0.55700  Biso   1.000  H
  H44      1.0000 0.51260  0.86580  0.05700  Biso   1.000  H
  H45      1.0000 0.51260  0.63420  0.55700  Biso   1.000  H
  H46      1.0000 0.98740  0.36580  0.05700  Biso   1.000  H
  H47      1.0000 0.01260  0.86580  0.44300  Biso   1.000  H
  H48      1.0000 0.48740  0.13420  0.94300  Biso   1.000  H
  H49      1.0000 0.58530  0.41940  0.39560  Biso   1.000  H
  H50      1.0000 0.91470  0.58060  0.89560  Biso   1.000  H
  H51      1.0000 0.08530  0.08060  0.60440  Biso   1.000  H
  H52      1.0000 0.41470  0.91940  0.10440  Biso   1.000  H
  H53      1.0000 0.41470  0.58060  0.60440  Biso   1.000  H
  H54      1.0000 0.08530  0.41940  0.10440  Biso   1.000  H
  H55      1.0000 0.91470  0.91940  0.39560  Biso   1.000  H
  H56      1.0000 0.58530  0.08060  0.89560  Biso   1.000  H
  H57      1.0000 0.58320  0.38530  0.50330  Biso   1.000  H
  H58      1.0000 0.91680  0.61470  0.00330  Biso   1.000  H
  H59      1.0000 0.08320  0.11470  0.49670  Biso   1.000  H
  H60      1.0000 0.41680  0.88530  0.99670  Biso   1.000  H
  H61      1.0000 0.41680  0.61470  0.49670  Biso   1.000  H
  H62      1.0000 0.08320  0.38530  0.99670  Biso   1.000  H
  H63      1.0000 0.91680  0.88530  0.50330  Biso   1.000  H
  H64      1.0000 0.58320  0.11470  0.00330  Biso   1.000  H
