data_image0
_cell_length_a       15.512
_cell_length_b       14.761
_cell_length_c       10.47
_cell_angle_alpha    90
_cell_angle_beta     92
_cell_angle_gamma    90

_symmetry_space_group_name_H-M    "P 1"
_symmetry_int_tables_number       1

loop_
  _symmetry_equiv_pos_as_xyz
  'x, y, z'

loop_
  _atom_site_label
  _atom_site_occupancy
  _atom_site_fract_x
  _atom_site_fract_y
  _atom_site_fract_z
  _atom_site_thermal_displace_type
  _atom_site_B_iso_or_equiv
  _atom_site_type_symbol
  Cu1      1.0000 0.23318  0.97904  0.20082  Biso   1.000  Cu
  Cu2      1.0000 0.76682  0.47904  0.29918  Biso   1.000  Cu
  Cu3      1.0000 0.76682  0.02096  0.79918  Biso   1.000  Cu
  Cu4      1.0000 0.23318  0.52096  0.70082  Biso   1.000  Cu
  V1       1.0000 0.08531  0.05781  0.42475  Biso   1.000  V
  V2       1.0000 0.91469  0.55781  0.07525  Biso   1.000  V
  V3       1.0000 0.91469  0.94219  0.57525  Biso   1.000  V
  V4       1.0000 0.08531  0.44219  0.92475  Biso   1.000  V
  V5       1.0000 0.31303  0.19857  0.31446  Biso   1.000  V
  V6       1.0000 0.68697  0.69857  0.18554  Biso   1.000  V
  V7       1.0000 0.68697  0.80143  0.68554  Biso   1.000  V
  V8       1.0000 0.31303  0.30143  0.81446  Biso   1.000  V
  V9       1.0000 0.25041  0.35680  0.10425  Biso   1.000  V
  V10      1.0000 0.74959  0.85680  0.39575  Biso   1.000  V
  V11      1.0000 0.74959  0.64320  0.89575  Biso   1.000  V
  V12      1.0000 0.25041  0.14320  0.60425  Biso   1.000  V
  O1       1.0000 0.14691  0.98560  0.34840  Biso   1.000  O
  O2       1.0000 0.85309  0.48560  0.15160  Biso   1.000  O
  O3       1.0000 0.85309  0.01440  0.65160  Biso   1.000  O
  O4       1.0000 0.14691  0.51440  0.84840  Biso   1.000  O
  O5       1.0000 0.00000  0.00000  0.50000  Biso   1.000  O
  O6       1.0000 0.00000  0.50000  0.00000  Biso   1.000  O
  O7       1.0000 0.04662  0.13047  0.32360  Biso   1.000  O
  O8       1.0000 0.95338  0.63047  0.17640  Biso   1.000  O
  O9       1.0000 0.95338  0.86953  0.67640  Biso   1.000  O
  O10      1.0000 0.04662  0.36953  0.82360  Biso   1.000  O
  O11      1.0000 0.27773  0.10202  0.25800  Biso   1.000  O
  O12      1.0000 0.72227  0.60202  0.24200  Biso   1.000  O
  O13      1.0000 0.72227  0.89798  0.74200  Biso   1.000  O
  O14      1.0000 0.27773  0.39798  0.75800  Biso   1.000  O
  O15      1.0000 0.41332  0.21072  0.28360  Biso   1.000  O
  O16      1.0000 0.58668  0.71072  0.21640  Biso   1.000  O
  O17      1.0000 0.58668  0.78928  0.71640  Biso   1.000  O
  O18      1.0000 0.41332  0.28928  0.78360  Biso   1.000  O
  O19      1.0000 0.25003  0.28957  0.24140  Biso   1.000  O
  O20      1.0000 0.74997  0.78957  0.25860  Biso   1.000  O
  O21      1.0000 0.74997  0.71043  0.75860  Biso   1.000  O
  O22      1.0000 0.25003  0.21043  0.74140  Biso   1.000  O
  O23      1.0000 0.30503  0.20006  0.48600  Biso   1.000  O
  O24      1.0000 0.69497  0.70006  0.01400  Biso   1.000  O
  O25      1.0000 0.69497  0.79994  0.51400  Biso   1.000  O
  O26      1.0000 0.30503  0.29994  0.98600  Biso   1.000  O
  O27      1.0000 0.14570  0.12151  0.54700  Biso   1.000  O
  O28      1.0000 0.85430  0.62151  0.95300  Biso   1.000  O
  O29      1.0000 0.85430  0.87849  0.45300  Biso   1.000  O
  O30      1.0000 0.14570  0.37849  0.04700  Biso   1.000  O
  O31      1.0000 0.29780  0.44903  0.13720  Biso   1.000  O
  O32      1.0000 0.70220  0.94903  0.36280  Biso   1.000  O
  O33      1.0000 0.70220  0.55097  0.86280  Biso   1.000  O
  O34      1.0000 0.29780  0.05097  0.63720  Biso   1.000  O
  N1       1.0000 0.17768  0.86159  0.12490  Biso   1.000  N
  N2       1.0000 0.82232  0.36159  0.37510  Biso   1.000  N
  N3       1.0000 0.82232  0.13841  0.87510  Biso   1.000  N
  N4       1.0000 0.17768  0.63841  0.62490  Biso   1.000  N
  N5       1.0000 0.15122  0.03192  0.06160  Biso   1.000  N
  N6       1.0000 0.84878  0.53192  0.43840  Biso   1.000  N
  N7       1.0000 0.84878  0.96808  0.93840  Biso   1.000  N
  N8       1.0000 0.15122  0.46808  0.56160  Biso   1.000  N
  N9       1.0000 0.32645  0.91624  0.31590  Biso   1.000  N
  N10      1.0000 0.67355  0.41624  0.18410  Biso   1.000  N
  N11      1.0000 0.67355  0.08376  0.68410  Biso   1.000  N
  N12      1.0000 0.32645  0.58376  0.81590  Biso   1.000  N
  N13      1.0000 0.33465  0.96215  0.07180  Biso   1.000  N
  N14      1.0000 0.66535  0.46215  0.42820  Biso   1.000  N
  N15      1.0000 0.66535  0.03785  0.92820  Biso   1.000  N
  N16      1.0000 0.33465  0.53785  0.57180  Biso   1.000  N
  C1       1.0000 0.18890  0.77710  0.16830  Biso   1.000  C
  C2       1.0000 0.81110  0.27710  0.33170  Biso   1.000  C
  C3       1.0000 0.81110  0.22290  0.83170  Biso   1.000  C
  C4       1.0000 0.18890  0.72290  0.66830  Biso   1.000  C
  C5       1.0000 0.15330  0.70260  0.10500  Biso   1.000  C
  C6       1.0000 0.84670  0.20260  0.39500  Biso   1.000  C
  C7       1.0000 0.84670  0.29740  0.89500  Biso   1.000  C
  C8       1.0000 0.15330  0.79740  0.60500  Biso   1.000  C
  C9       1.0000 0.10520  0.71570  0.99490  Biso   1.000  C
  C10      1.0000 0.89480  0.21570  0.50510  Biso   1.000  C
  C11      1.0000 0.89480  0.28430  0.00510  Biso   1.000  C
  C12      1.0000 0.10520  0.78430  0.49490  Biso   1.000  C
  C13      1.0000 0.09240  0.80260  0.94960  Biso   1.000  C
  C14      1.0000 0.90760  0.30260  0.55040  Biso   1.000  C
  C15      1.0000 0.90760  0.19740  0.05040  Biso   1.000  C
  C16      1.0000 0.09240  0.69740  0.44960  Biso   1.000  C
  C17      1.0000 0.12893  0.87492  0.01710  Biso   1.000  C
  C18      1.0000 0.87107  0.37492  0.48290  Biso   1.000  C
  C19      1.0000 0.87107  0.12508  0.98290  Biso   1.000  C
  C20      1.0000 0.12893  0.62508  0.51710  Biso   1.000  C
  C21      1.0000 0.11711  0.97065  0.97860  Biso   1.000  C
  C22      1.0000 0.88289  0.47065  0.52140  Biso   1.000  C
  C23      1.0000 0.88289  0.02935  0.02140  Biso   1.000  C
  C24      1.0000 0.11711  0.52935  0.47860  Biso   1.000  C
  C25      1.0000 0.07410  0.99740  0.86710  Biso   1.000  C
  C26      1.0000 0.92590  0.49740  0.63290  Biso   1.000  C
  C27      1.0000 0.92590  0.00260  0.13290  Biso   1.000  C
  C28      1.0000 0.07410  0.50260  0.36710  Biso   1.000  C
  C29      1.0000 0.06540  0.08870  0.84020  Biso   1.000  C
  C30      1.0000 0.93460  0.58870  0.65980  Biso   1.000  C
  C31      1.0000 0.93460  0.91130  0.15980  Biso   1.000  C
  C32      1.0000 0.06540  0.41130  0.34020  Biso   1.000  C
  C33      1.0000 0.09850  0.15080  0.92560  Biso   1.000  C
  C34      1.0000 0.90150  0.65080  0.57440  Biso   1.000  C
  C35      1.0000 0.90150  0.84920  0.07440  Biso   1.000  C
  C36      1.0000 0.09850  0.34920  0.42560  Biso   1.000  C
  C37      1.0000 0.14073  0.12010  0.03550  Biso   1.000  C
  C38      1.0000 0.85927  0.62010  0.46450  Biso   1.000  C
  C39      1.0000 0.85927  0.87990  0.96450  Biso   1.000  C
  C40      1.0000 0.14073  0.37990  0.53550  Biso   1.000  C
  C41      1.0000 0.32150  0.90330  0.44090  Biso   1.000  C
  C42      1.0000 0.67850  0.40330  0.05910  Biso   1.000  C
  C43      1.0000 0.67850  0.09670  0.55910  Biso   1.000  C
  C44      1.0000 0.32150  0.59670  0.94090  Biso   1.000  C
  C45      1.0000 0.39030  0.87100  0.51480  Biso   1.000  C
  C46      1.0000 0.60970  0.37100  0.98520  Biso   1.000  C
  C47      1.0000 0.60970  0.12900  0.48520  Biso   1.000  C
  C48      1.0000 0.39030  0.62900  0.01480  Biso   1.000  C
  C49      1.0000 0.46600  0.85370  0.45840  Biso   1.000  C
  C50      1.0000 0.53400  0.35370  0.04160  Biso   1.000  C
  C51      1.0000 0.53400  0.14630  0.54160  Biso   1.000  C
  C52      1.0000 0.46600  0.64630  0.95840  Biso   1.000  C
  C53      1.0000 0.47260  0.86680  0.32930  Biso   1.000  C
  C54      1.0000 0.52740  0.36680  0.17070  Biso   1.000  C
  C55      1.0000 0.52740  0.13320  0.67070  Biso   1.000  C
  C56      1.0000 0.47260  0.63320  0.82930  Biso   1.000  C
  C57      1.0000 0.40065  0.89710  0.25940  Biso   1.000  C
  C58      1.0000 0.59935  0.39710  0.24060  Biso   1.000  C
  C59      1.0000 0.59935  0.10290  0.74060  Biso   1.000  C
  C60      1.0000 0.40065  0.60290  0.75940  Biso   1.000  C
  C61      1.0000 0.40090  0.91280  0.12010  Biso   1.000  C
  C62      1.0000 0.59910  0.41280  0.37990  Biso   1.000  C
  C63      1.0000 0.59910  0.08720  0.87990  Biso   1.000  C
  C64      1.0000 0.40090  0.58720  0.62010  Biso   1.000  C
  C65      1.0000 0.46430  0.87910  0.04280  Biso   1.000  C
  C66      1.0000 0.53570  0.37910  0.45720  Biso   1.000  C
  C67      1.0000 0.53570  0.12090  0.95720  Biso   1.000  C
  C68      1.0000 0.46430  0.62090  0.54280  Biso   1.000  C
  C69      1.0000 0.46170  0.89920  0.91490  Biso   1.000  C
  C70      1.0000 0.53830  0.39920  0.58510  Biso   1.000  C
  C71      1.0000 0.53830  0.10080  0.08510  Biso   1.000  C
  C72      1.0000 0.46170  0.60080  0.41490  Biso   1.000  C
  C73      1.0000 0.39640  0.95260  0.86670  Biso   1.000  C
  C74      1.0000 0.60360  0.45260  0.63330  Biso   1.000  C
  C75      1.0000 0.60360  0.04740  0.13330  Biso   1.000  C
  C76      1.0000 0.39640  0.54740  0.36670  Biso   1.000  C
  C77      1.0000 0.33480  0.98220  0.94780  Biso   1.000  C
  C78      1.0000 0.66520  0.48220  0.55220  Biso   1.000  C
  C79      1.0000 0.66520  0.01780  0.05220  Biso   1.000  C
  C80      1.0000 0.33480  0.51780  0.44780  Biso   1.000  C
  H1       1.0000 0.29900  0.01300  0.92200  Biso   1.000  H
  H2       1.0000 0.70100  0.51300  0.57800  Biso   1.000  H
  H3       1.0000 0.70100  0.98700  0.07800  Biso   1.000  H
  H4       1.0000 0.29900  0.48700  0.42200  Biso   1.000  H
  H5       1.0000 0.38700  0.96900  0.77700  Biso   1.000  H
  H6       1.0000 0.61300  0.46900  0.72300  Biso   1.000  H
  H7       1.0000 0.61300  0.03100  0.22300  Biso   1.000  H
  H8       1.0000 0.38700  0.53100  0.27700  Biso   1.000  H
  H9       1.0000 0.50800  0.88000  0.87100  Biso   1.000  H
  H10      1.0000 0.49200  0.38000  0.62900  Biso   1.000  H
  H11      1.0000 0.49200  0.12000  0.12900  Biso   1.000  H
  H12      1.0000 0.50800  0.62000  0.37100  Biso   1.000  H
  H13      1.0000 0.49800  0.84600  0.07800  Biso   1.000  H
  H14      1.0000 0.50200  0.34600  0.42200  Biso   1.000  H
  H15      1.0000 0.50200  0.15400  0.92200  Biso   1.000  H
  H16      1.0000 0.49800  0.65400  0.57800  Biso   1.000  H
  H17      1.0000 0.52200  0.85600  0.29200  Biso   1.000  H
  H18      1.0000 0.47800  0.35600  0.20800  Biso   1.000  H
  H19      1.0000 0.47800  0.14400  0.70800  Biso   1.000  H
  H20      1.0000 0.52200  0.64400  0.79200  Biso   1.000  H
  H21      1.0000 0.51000  0.83500  0.49800  Biso   1.000  H
  H22      1.0000 0.49000  0.33500  0.00200  Biso   1.000  H
  H23      1.0000 0.49000  0.16500  0.50200  Biso   1.000  H
  H24      1.0000 0.51000  0.66500  0.99800  Biso   1.000  H
  H25      1.0000 0.38400  0.86700  0.59800  Biso   1.000  H
  H26      1.0000 0.61600  0.36700  0.90200  Biso   1.000  H
  H27      1.0000 0.61600  0.13300  0.40200  Biso   1.000  H
  H28      1.0000 0.38400  0.63300  0.09800  Biso   1.000  H
  H29      1.0000 0.27200  0.91600  0.47400  Biso   1.000  H
  H30      1.0000 0.72800  0.41600  0.02600  Biso   1.000  H
  H31      1.0000 0.72800  0.08400  0.52600  Biso   1.000  H
  H32      1.0000 0.27200  0.58400  0.97400  Biso   1.000  H
  H33      1.0000 0.16280  0.15900  0.09400  Biso   1.000  H
  H34      1.0000 0.83720  0.65900  0.40600  Biso   1.000  H
  H35      1.0000 0.83720  0.84100  0.90600  Biso   1.000  H
  H36      1.0000 0.16280  0.34100  0.59400  Biso   1.000  H
  H37      1.0000 0.09100  0.20700  0.91200  Biso   1.000  H
  H38      1.0000 0.90900  0.70700  0.58800  Biso   1.000  H
  H39      1.0000 0.90900  0.79300  0.08800  Biso   1.000  H
  H40      1.0000 0.09100  0.29300  0.41200  Biso   1.000  H
  H41      1.0000 0.03400  0.11000  0.75500  Biso   1.000  H
  H42      1.0000 0.96600  0.61000  0.74500  Biso   1.000  H
  H43      1.0000 0.96600  0.89000  0.24500  Biso   1.000  H
  H44      1.0000 0.03400  0.39000  0.25500  Biso   1.000  H
  H45      1.0000 0.05600  0.95600  0.82300  Biso   1.000  H
  H46      1.0000 0.94400  0.45600  0.67700  Biso   1.000  H
  H47      1.0000 0.94400  0.04400  0.17700  Biso   1.000  H
  H48      1.0000 0.05600  0.54400  0.32300  Biso   1.000  H
  H49      1.0000 0.06500  0.81300  0.87200  Biso   1.000  H
  H50      1.0000 0.93500  0.31300  0.62800  Biso   1.000  H
  H51      1.0000 0.93500  0.18700  0.12800  Biso   1.000  H
  H52      1.0000 0.06500  0.68700  0.37200  Biso   1.000  H
  H53      1.0000 0.07700  0.65800  0.95100  Biso   1.000  H
  H54      1.0000 0.92300  0.15800  0.54900  Biso   1.000  H
  H55      1.0000 0.92300  0.34200  0.04900  Biso   1.000  H
  H56      1.0000 0.07700  0.84200  0.45100  Biso   1.000  H
  H57      1.0000 0.16400  0.65100  0.12900  Biso   1.000  H
  H58      1.0000 0.83600  0.15100  0.37100  Biso   1.000  H
  H59      1.0000 0.83600  0.34900  0.87100  Biso   1.000  H
  H60      1.0000 0.16400  0.84900  0.62900  Biso   1.000  H
  H61      1.0000 0.22300  0.77200  0.24700  Biso   1.000  H
  H62      1.0000 0.77700  0.27200  0.25300  Biso   1.000  H
  H63      1.0000 0.77700  0.22800  0.75300  Biso   1.000  H
  H64      1.0000 0.22300  0.72800  0.74700  Biso   1.000  H
