data_image0
_cell_length_a       10.26
_cell_length_b       16.622
_cell_length_c       11.609
_cell_angle_alpha    90
_cell_angle_beta     90
_cell_angle_gamma    90

_symmetry_space_group_name_H-M    "P 1"
_symmetry_int_tables_number       1

loop_
  _symmetry_equiv_pos_as_xyz
  'x, y, z'

loop_
  _atom_site_label
  _atom_site_occupancy
  _atom_site_fract_x
  _atom_site_fract_y
  _atom_site_fract_z
  _atom_site_thermal_displace_type
  _atom_site_B_iso_or_equiv
  _atom_site_type_symbol
  Cu1      1.0000 0.00000  0.80830  0.25000  Biso   1.000  Cu
  Cu2      1.0000 0.00000  0.19170  0.75000  Biso   1.000  Cu
  Cu3      1.0000 0.50000  0.30830  0.25000  Biso   1.000  Cu
  Cu4      1.0000 0.50000  0.69170  0.75000  Biso   1.000  Cu
  Mg1      1.0000 0.50000  0.89500  0.25000  Biso   1.000  Mg
  Mg2      1.0000 0.50000  0.10500  0.75000  Biso   1.000  Mg
  Mg3      1.0000 0.00000  0.39500  0.25000  Biso   1.000  Mg
  Mg4      1.0000 0.00000  0.60500  0.75000  Biso   1.000  Mg
  N1       1.0000 0.86320  0.78900  0.13300  Biso   1.000  N
  N2       1.0000 0.13680  0.21100  0.63300  Biso   1.000  N
  N3       1.0000 0.86320  0.21100  0.86700  Biso   1.000  N
  N4       1.0000 0.13680  0.78900  0.36700  Biso   1.000  N
  N5       1.0000 0.36320  0.28900  0.13300  Biso   1.000  N
  N6       1.0000 0.63680  0.71100  0.63300  Biso   1.000  N
  N7       1.0000 0.36320  0.71100  0.86700  Biso   1.000  N
  N8       1.0000 0.63680  0.28900  0.36700  Biso   1.000  N
  O1       1.0000 0.11880  0.80550  0.11900  Biso   1.000  O
  O2       1.0000 0.88120  0.19450  0.61900  Biso   1.000  O
  O3       1.0000 0.11880  0.19450  0.88100  Biso   1.000  O
  O4       1.0000 0.88120  0.80550  0.38100  Biso   1.000  O
  O5       1.0000 0.61880  0.30550  0.11900  Biso   1.000  O
  O6       1.0000 0.38120  0.69450  0.61900  Biso   1.000  O
  O7       1.0000 0.61880  0.69450  0.88100  Biso   1.000  O
  O8       1.0000 0.38120  0.30550  0.38100  Biso   1.000  O
  O9       1.0000 0.12410  0.80900  0.92780  Biso   1.000  O
  O10      1.0000 0.87590  0.19100  0.42780  Biso   1.000  O
  O11      1.0000 0.12410  0.19100  0.07220  Biso   1.000  O
  O12      1.0000 0.87590  0.80900  0.57220  Biso   1.000  O
  O13      1.0000 0.62410  0.30900  0.92780  Biso   1.000  O
  O14      1.0000 0.37590  0.69100  0.42780  Biso   1.000  O
  O15      1.0000 0.62410  0.69100  0.07220  Biso   1.000  O
  O16      1.0000 0.37590  0.30900  0.57220  Biso   1.000  O
  O17      1.0000 0.62870  0.89150  0.11120  Biso   1.000  O
  O18      1.0000 0.37130  0.10850  0.61120  Biso   1.000  O
  O19      1.0000 0.62870  0.10850  0.88880  Biso   1.000  O
  O20      1.0000 0.37130  0.89150  0.38880  Biso   1.000  O
  O21      1.0000 0.12870  0.39150  0.11120  Biso   1.000  O
  O22      1.0000 0.87130  0.60850  0.61120  Biso   1.000  O
  O23      1.0000 0.12870  0.60850  0.88880  Biso   1.000  O
  O24      1.0000 0.87130  0.39150  0.38880  Biso   1.000  O
  O25      1.0000 0.50410  0.89200  0.95370  Biso   1.000  O
  O26      1.0000 0.49590  0.10800  0.45370  Biso   1.000  O
  O27      1.0000 0.50410  0.10800  0.04630  Biso   1.000  O
  O28      1.0000 0.49590  0.89200  0.54630  Biso   1.000  O
  O29      1.0000 0.00410  0.39200  0.95370  Biso   1.000  O
  O30      1.0000 0.99590  0.60800  0.45370  Biso   1.000  O
  O31      1.0000 0.00410  0.60800  0.04630  Biso   1.000  O
  O32      1.0000 0.99590  0.39200  0.54630  Biso   1.000  O
  O33      1.0000 0.00000  0.94320  0.25000  Biso   1.000  O
  O34      1.0000 0.00000  0.05680  0.75000  Biso   1.000  O
  O35      1.0000 0.50000  0.44320  0.25000  Biso   1.000  O
  O36      1.0000 0.50000  0.55680  0.75000  Biso   1.000  O
  O37      1.0000 0.50000  0.76970  0.25000  Biso   1.000  O
  O38      1.0000 0.50000  0.23030  0.75000  Biso   1.000  O
  O39      1.0000 0.00000  0.26970  0.25000  Biso   1.000  O
  O40      1.0000 0.00000  0.73030  0.75000  Biso   1.000  O
  O41      1.0000 0.50000  0.01930  0.25000  Biso   1.000  O
  O42      1.0000 0.50000  0.98070  0.75000  Biso   1.000  O
  O43      1.0000 0.00000  0.51930  0.25000  Biso   1.000  O
  O44      1.0000 0.00000  0.48070  0.75000  Biso   1.000  O
  O45      1.0000 0.65310  0.89790  0.36910  Biso   1.000  O
  O46      1.0000 0.34690  0.10210  0.86910  Biso   1.000  O
  O47      1.0000 0.65310  0.10210  0.63090  Biso   1.000  O
  O48      1.0000 0.34690  0.89790  0.13090  Biso   1.000  O
  O49      1.0000 0.15310  0.39790  0.36910  Biso   1.000  O
  O50      1.0000 0.84690  0.60210  0.86910  Biso   1.000  O
  O51      1.0000 0.15310  0.60210  0.63090  Biso   1.000  O
  O52      1.0000 0.84690  0.39790  0.13090  Biso   1.000  O
  O53      1.0000 0.18490  0.03620  0.15270  Biso   1.000  O
  O54      1.0000 0.81510  0.96380  0.65270  Biso   1.000  O
  O55      1.0000 0.18490  0.96380  0.84730  Biso   1.000  O
  O56      1.0000 0.81510  0.03620  0.34730  Biso   1.000  O
  O57      1.0000 0.68490  0.53620  0.15270  Biso   1.000  O
  O58      1.0000 0.31510  0.46380  0.65270  Biso   1.000  O
  O59      1.0000 0.68490  0.46380  0.84730  Biso   1.000  O
  O60      1.0000 0.31510  0.53620  0.34730  Biso   1.000  O
  C1       1.0000 0.06340  0.80700  0.01990  Biso   1.000  C
  C2       1.0000 0.93660  0.19300  0.51990  Biso   1.000  C
  C3       1.0000 0.06340  0.19300  0.98010  Biso   1.000  C
  C4       1.0000 0.93660  0.80700  0.48010  Biso   1.000  C
  C5       1.0000 0.56340  0.30700  0.01990  Biso   1.000  C
  C6       1.0000 0.43660  0.69300  0.51990  Biso   1.000  C
  C7       1.0000 0.56340  0.69300  0.98010  Biso   1.000  C
  C8       1.0000 0.43660  0.30700  0.48010  Biso   1.000  C
  C9       1.0000 0.91460  0.80870  0.01790  Biso   1.000  C
  C10      1.0000 0.08540  0.19130  0.51790  Biso   1.000  C
  C11      1.0000 0.91460  0.19130  0.98210  Biso   1.000  C
  C12      1.0000 0.08540  0.80870  0.48210  Biso   1.000  C
  C13      1.0000 0.41460  0.30870  0.01790  Biso   1.000  C
  C14      1.0000 0.58540  0.69130  0.51790  Biso   1.000  C
  C15      1.0000 0.41460  0.69130  0.98210  Biso   1.000  C
  C16      1.0000 0.58540  0.30870  0.48210  Biso   1.000  C
  C17      1.0000 0.86800  0.89120  0.97630  Biso   1.000  C
  C18      1.0000 0.13200  0.10880  0.47630  Biso   1.000  C
  C19      1.0000 0.86800  0.10880  0.02370  Biso   1.000  C
  C20      1.0000 0.13200  0.89120  0.52370  Biso   1.000  C
  C21      1.0000 0.36800  0.39120  0.97630  Biso   1.000  C
  C22      1.0000 0.63200  0.60880  0.47630  Biso   1.000  C
  C23      1.0000 0.36800  0.60880  0.02370  Biso   1.000  C
  C24      1.0000 0.63200  0.39120  0.52370  Biso   1.000  C
  C25      1.0000 0.73130  0.89370  0.92470  Biso   1.000  C
  C26      1.0000 0.26870  0.10630  0.42470  Biso   1.000  C
  C27      1.0000 0.73130  0.10630  0.07530  Biso   1.000  C
  C28      1.0000 0.26870  0.89370  0.57530  Biso   1.000  C
  C29      1.0000 0.23130  0.39370  0.92470  Biso   1.000  C
  C30      1.0000 0.76870  0.60630  0.42470  Biso   1.000  C
  C31      1.0000 0.23130  0.60630  0.07530  Biso   1.000  C
  C32      1.0000 0.76870  0.39370  0.57530  Biso   1.000  C
  C33      1.0000 0.61430  0.89210  0.00320  Biso   1.000  C
  C34      1.0000 0.38570  0.10790  0.50320  Biso   1.000  C
  C35      1.0000 0.61430  0.10790  0.99680  Biso   1.000  C
  C36      1.0000 0.38570  0.89210  0.49680  Biso   1.000  C
  C37      1.0000 0.11430  0.39210  0.00320  Biso   1.000  C
  C38      1.0000 0.88570  0.60790  0.50320  Biso   1.000  C
  C39      1.0000 0.11430  0.60790  0.99680  Biso   1.000  C
  C40      1.0000 0.88570  0.39210  0.49680  Biso   1.000  C
  H1       1.0000 0.81280  0.81650  0.14280  Biso   1.000  H
  H2       1.0000 0.18720  0.18350  0.64280  Biso   1.000  H
  H3       1.0000 0.81280  0.18350  0.85720  Biso   1.000  H
  H4       1.0000 0.18720  0.81650  0.35720  Biso   1.000  H
  H5       1.0000 0.31280  0.31650  0.14280  Biso   1.000  H
  H6       1.0000 0.68720  0.68350  0.64280  Biso   1.000  H
  H7       1.0000 0.31280  0.68350  0.85720  Biso   1.000  H
  H8       1.0000 0.68720  0.31650  0.35720  Biso   1.000  H
  H9       1.0000 0.84740  0.74250  0.12200  Biso   1.000  H
  H10      1.0000 0.15260  0.25750  0.62200  Biso   1.000  H
  H11      1.0000 0.84740  0.25750  0.87800  Biso   1.000  H
  H12      1.0000 0.15260  0.74250  0.37800  Biso   1.000  H
  H13      1.0000 0.34740  0.24250  0.12200  Biso   1.000  H
  H14      1.0000 0.65260  0.75750  0.62200  Biso   1.000  H
  H15      1.0000 0.34740  0.75750  0.87800  Biso   1.000  H
  H16      1.0000 0.65260  0.24250  0.37800  Biso   1.000  H
  H17      1.0000 0.89120  0.77440  0.96440  Biso   1.000  H
  H18      1.0000 0.10880  0.22560  0.46440  Biso   1.000  H
  H19      1.0000 0.89120  0.22560  0.03560  Biso   1.000  H
  H20      1.0000 0.10880  0.77440  0.53560  Biso   1.000  H
  H21      1.0000 0.39120  0.27440  0.96440  Biso   1.000  H
  H22      1.0000 0.60880  0.72560  0.46440  Biso   1.000  H
  H23      1.0000 0.39120  0.72560  0.03560  Biso   1.000  H
  H24      1.0000 0.60880  0.27440  0.53560  Biso   1.000  H
  H25      1.0000 0.87430  0.92710  0.03650  Biso   1.000  H
  H26      1.0000 0.12570  0.07290  0.53650  Biso   1.000  H
  H27      1.0000 0.87430  0.07290  0.96350  Biso   1.000  H
  H28      1.0000 0.12570  0.92710  0.46350  Biso   1.000  H
  H29      1.0000 0.37430  0.42710  0.03650  Biso   1.000  H
  H30      1.0000 0.62570  0.57290  0.53650  Biso   1.000  H
  H31      1.0000 0.37430  0.57290  0.96350  Biso   1.000  H
  H32      1.0000 0.62570  0.42710  0.46350  Biso   1.000  H
  H33      1.0000 0.93250  0.90820  0.91420  Biso   1.000  H
  H34      1.0000 0.06750  0.09180  0.41420  Biso   1.000  H
  H35      1.0000 0.93250  0.09180  0.08580  Biso   1.000  H
  H36      1.0000 0.06750  0.90820  0.58580  Biso   1.000  H
  H37      1.0000 0.43250  0.40820  0.91420  Biso   1.000  H
  H38      1.0000 0.56750  0.59180  0.41420  Biso   1.000  H
  H39      1.0000 0.43250  0.59180  0.08580  Biso   1.000  H
  H40      1.0000 0.56750  0.40820  0.58580  Biso   1.000  H
  H41      1.0000 0.71020  0.85380  0.87890  Biso   1.000  H
  H42      1.0000 0.28980  0.14620  0.37890  Biso   1.000  H
  H43      1.0000 0.71020  0.14620  0.12110  Biso   1.000  H
  H44      1.0000 0.28980  0.85380  0.62110  Biso   1.000  H
  H45      1.0000 0.21020  0.35380  0.87890  Biso   1.000  H
  H46      1.0000 0.78980  0.64620  0.37890  Biso   1.000  H
  H47      1.0000 0.21020  0.64620  0.12110  Biso   1.000  H
  H48      1.0000 0.78980  0.35380  0.62110  Biso   1.000  H
  H49      1.0000 0.71730  0.94860  0.88420  Biso   1.000  H
  H50      1.0000 0.28270  0.05140  0.38420  Biso   1.000  H
  H51      1.0000 0.71730  0.05140  0.11580  Biso   1.000  H
  H52      1.0000 0.28270  0.94860  0.61580  Biso   1.000  H
  H53      1.0000 0.21730  0.44860  0.88420  Biso   1.000  H
  H54      1.0000 0.78270  0.55140  0.38420  Biso   1.000  H
  H55      1.0000 0.21730  0.55140  0.11580  Biso   1.000  H
  H56      1.0000 0.78270  0.44860  0.61580  Biso   1.000  H
  H57      1.0000 0.94770  0.96270  0.28620  Biso   1.000  H
  H58      1.0000 0.05230  0.03730  0.78620  Biso   1.000  H
  H59      1.0000 0.94770  0.03730  0.71380  Biso   1.000  H
  H60      1.0000 0.05230  0.96270  0.21380  Biso   1.000  H
  H61      1.0000 0.44770  0.46270  0.28620  Biso   1.000  H
  H62      1.0000 0.55230  0.53730  0.78620  Biso   1.000  H
  H63      1.0000 0.44770  0.53730  0.71380  Biso   1.000  H
  H64      1.0000 0.55230  0.46270  0.21380  Biso   1.000  H
  H65      1.0000 0.54830  0.74270  0.20710  Biso   1.000  H
  H66      1.0000 0.45170  0.25730  0.70710  Biso   1.000  H
  H67      1.0000 0.54830  0.25730  0.79290  Biso   1.000  H
  H68      1.0000 0.45170  0.74270  0.29290  Biso   1.000  H
  H69      1.0000 0.04830  0.24270  0.20710  Biso   1.000  H
  H70      1.0000 0.95170  0.75730  0.70710  Biso   1.000  H
  H71      1.0000 0.04830  0.75730  0.79290  Biso   1.000  H
  H72      1.0000 0.95170  0.24270  0.29290  Biso   1.000  H
  H73      1.0000 0.49940  0.04270  0.30060  Biso   1.000  H
  H74      1.0000 0.50060  0.95730  0.80060  Biso   1.000  H
  H75      1.0000 0.49940  0.95730  0.69940  Biso   1.000  H
  H76      1.0000 0.50060  0.04270  0.19940  Biso   1.000  H
  H77      1.0000 0.99940  0.54270  0.30060  Biso   1.000  H
  H78      1.0000 0.00060  0.45730  0.80060  Biso   1.000  H
  H79      1.0000 0.99940  0.45730  0.69940  Biso   1.000  H
  H80      1.0000 0.00060  0.54270  0.19940  Biso   1.000  H
  H81      1.0000 0.59870  0.88890  0.45200  Biso   1.000  H
  H82      1.0000 0.40130  0.11110  0.95200  Biso   1.000  H
  H83      1.0000 0.59870  0.11110  0.54800  Biso   1.000  H
  H84      1.0000 0.40130  0.88890  0.04800  Biso   1.000  H
  H85      1.0000 0.09870  0.38890  0.45200  Biso   1.000  H
  H86      1.0000 0.90130  0.61110  0.95200  Biso   1.000  H
  H87      1.0000 0.09870  0.61110  0.54800  Biso   1.000  H
  H88      1.0000 0.90130  0.38890  0.04800  Biso   1.000  H
  H89      1.0000 0.71320  0.86600  0.37100  Biso   1.000  H
  H90      1.0000 0.28680  0.13400  0.87100  Biso   1.000  H
  H91      1.0000 0.71320  0.13400  0.62900  Biso   1.000  H
  H92      1.0000 0.28680  0.86600  0.12900  Biso   1.000  H
  H93      1.0000 0.21320  0.36600  0.37100  Biso   1.000  H
  H94      1.0000 0.78680  0.63400  0.87100  Biso   1.000  H
  H95      1.0000 0.21320  0.63400  0.62900  Biso   1.000  H
  H96      1.0000 0.78680  0.36600  0.12900  Biso   1.000  H
