data_image0
_cell_length_a       18.3757
_cell_length_b       18.3757
_cell_length_c       22.137
_cell_angle_alpha    90
_cell_angle_beta     90
_cell_angle_gamma    90

_symmetry_space_group_name_H-M    "P 1"
_symmetry_int_tables_number       1

loop_
  _symmetry_equiv_pos_as_xyz
  'x, y, z'

loop_
  _atom_site_label
  _atom_site_occupancy
  _atom_site_fract_x
  _atom_site_fract_y
  _atom_site_fract_z
  _atom_site_thermal_displace_type
  _atom_site_B_iso_or_equiv
  _atom_site_type_symbol
  Cu1      1.0000 0.16515  0.24964  0.00156  Biso   1.000  Cu
  Cu2      1.0000 0.83485  0.24964  0.50156  Biso   1.000  Cu
  Cu3      1.0000 0.24964  0.33485  0.25156  Biso   1.000  Cu
  Cu4      1.0000 0.24964  0.66515  0.25156  Biso   1.000  Cu
  Cu5      1.0000 0.83485  0.75036  0.00156  Biso   1.000  Cu
  Cu6      1.0000 0.16515  0.75036  0.50156  Biso   1.000  Cu
  Cu7      1.0000 0.75036  0.66515  0.25156  Biso   1.000  Cu
  Cu8      1.0000 0.75036  0.33485  0.25156  Biso   1.000  Cu
  Cu9      1.0000 0.66515  0.74964  0.50156  Biso   1.000  Cu
  Cu10     1.0000 0.33485  0.74964  0.00156  Biso   1.000  Cu
  Cu11     1.0000 0.74964  0.83485  0.25156  Biso   1.000  Cu
  Cu12     1.0000 0.74964  0.16515  0.25156  Biso   1.000  Cu
  Cu13     1.0000 0.33485  0.25036  0.50156  Biso   1.000  Cu
  Cu14     1.0000 0.66515  0.25036  0.00156  Biso   1.000  Cu
  Cu15     1.0000 0.25036  0.16515  0.25156  Biso   1.000  Cu
  Cu16     1.0000 0.25036  0.83485  0.25156  Biso   1.000  Cu
  O1       1.0000 0.16737  0.35086  0.02827  Biso   1.000  O
  O2       1.0000 0.83263  0.35086  0.52827  Biso   1.000  O
  O3       1.0000 0.35086  0.33263  0.27827  Biso   1.000  O
  O4       1.0000 0.35086  0.66737  0.27827  Biso   1.000  O
  O5       1.0000 0.83263  0.64914  0.02827  Biso   1.000  O
  O6       1.0000 0.16737  0.64914  0.52827  Biso   1.000  O
  O7       1.0000 0.64914  0.66737  0.27827  Biso   1.000  O
  O8       1.0000 0.64914  0.33263  0.27827  Biso   1.000  O
  O9       1.0000 0.66737  0.85086  0.52827  Biso   1.000  O
  O10      1.0000 0.33263  0.85086  0.02827  Biso   1.000  O
  O11      1.0000 0.85086  0.83263  0.27827  Biso   1.000  O
  O12      1.0000 0.85086  0.16737  0.27827  Biso   1.000  O
  O13      1.0000 0.33263  0.14914  0.52827  Biso   1.000  O
  O14      1.0000 0.66737  0.14914  0.02827  Biso   1.000  O
  O15      1.0000 0.14914  0.16737  0.27827  Biso   1.000  O
  O16      1.0000 0.14914  0.83263  0.27827  Biso   1.000  O
  O17      1.0000 0.07080  0.28536  0.93658  Biso   1.000  O
  O18      1.0000 0.92920  0.28536  0.43658  Biso   1.000  O
  O19      1.0000 0.28536  0.42920  0.18658  Biso   1.000  O
  O20      1.0000 0.28536  0.57080  0.18658  Biso   1.000  O
  O21      1.0000 0.92920  0.71464  0.93658  Biso   1.000  O
  O22      1.0000 0.07080  0.71464  0.43658  Biso   1.000  O
  O23      1.0000 0.71464  0.57080  0.18658  Biso   1.000  O
  O24      1.0000 0.71464  0.42920  0.18658  Biso   1.000  O
  O25      1.0000 0.57080  0.78536  0.43658  Biso   1.000  O
  O26      1.0000 0.42920  0.78536  0.93658  Biso   1.000  O
  O27      1.0000 0.78536  0.92920  0.18658  Biso   1.000  O
  O28      1.0000 0.78536  0.07080  0.18658  Biso   1.000  O
  O29      1.0000 0.42920  0.21464  0.43658  Biso   1.000  O
  O30      1.0000 0.57080  0.21464  0.93658  Biso   1.000  O
  O31      1.0000 0.21464  0.07080  0.18658  Biso   1.000  O
  O32      1.0000 0.21464  0.92920  0.18658  Biso   1.000  O
  O33      1.0000 0.08203  0.22797  0.05622  Biso   1.000  O
  O34      1.0000 0.91797  0.22797  0.55622  Biso   1.000  O
  O35      1.0000 0.22797  0.41797  0.30622  Biso   1.000  O
  O36      1.0000 0.22797  0.58203  0.30622  Biso   1.000  O
  O37      1.0000 0.91797  0.77203  0.05622  Biso   1.000  O
  O38      1.0000 0.08203  0.77203  0.55622  Biso   1.000  O
  O39      1.0000 0.77203  0.58203  0.30622  Biso   1.000  O
  O40      1.0000 0.77203  0.41797  0.30622  Biso   1.000  O
  O41      1.0000 0.58203  0.72797  0.55622  Biso   1.000  O
  O42      1.0000 0.41797  0.72797  0.05622  Biso   1.000  O
  O43      1.0000 0.72797  0.91797  0.30622  Biso   1.000  O
  O44      1.0000 0.72797  0.08203  0.30622  Biso   1.000  O
  O45      1.0000 0.41797  0.27203  0.55622  Biso   1.000  O
  O46      1.0000 0.58203  0.27203  0.05622  Biso   1.000  O
  O47      1.0000 0.27203  0.08203  0.30622  Biso   1.000  O
  O48      1.0000 0.27203  0.91797  0.30622  Biso   1.000  O
  O49      1.0000 0.16951  0.14794  0.97677  Biso   1.000  O
  O50      1.0000 0.83049  0.14794  0.47677  Biso   1.000  O
  O51      1.0000 0.14794  0.33049  0.22677  Biso   1.000  O
  O52      1.0000 0.14794  0.66951  0.22677  Biso   1.000  O
  O53      1.0000 0.83049  0.85206  0.97677  Biso   1.000  O
  O54      1.0000 0.16951  0.85206  0.47677  Biso   1.000  O
  O55      1.0000 0.85206  0.66951  0.22677  Biso   1.000  O
  O56      1.0000 0.85206  0.33049  0.22677  Biso   1.000  O
  O57      1.0000 0.66951  0.64794  0.47677  Biso   1.000  O
  O58      1.0000 0.33049  0.64794  0.97677  Biso   1.000  O
  O59      1.0000 0.64794  0.83049  0.22677  Biso   1.000  O
  O60      1.0000 0.64794  0.16951  0.22677  Biso   1.000  O
  O61      1.0000 0.33049  0.35206  0.47677  Biso   1.000  O
  O62      1.0000 0.66951  0.35206  0.97677  Biso   1.000  O
  O63      1.0000 0.35206  0.16951  0.22677  Biso   1.000  O
  O64      1.0000 0.35206  0.83049  0.22677  Biso   1.000  O
  N1       1.0000 0.23840  0.27075  0.93520  Biso   1.000  N
  N2       1.0000 0.76160  0.27075  0.43520  Biso   1.000  N
  N3       1.0000 0.27075  0.26160  0.18520  Biso   1.000  N
  N4       1.0000 0.27075  0.73840  0.18520  Biso   1.000  N
  N5       1.0000 0.76160  0.72925  0.93520  Biso   1.000  N
  N6       1.0000 0.23840  0.72925  0.43520  Biso   1.000  N
  N7       1.0000 0.72925  0.73840  0.18520  Biso   1.000  N
  N8       1.0000 0.72925  0.26160  0.18520  Biso   1.000  N
  N9       1.0000 0.73840  0.77075  0.43520  Biso   1.000  N
  N10      1.0000 0.26160  0.77075  0.93520  Biso   1.000  N
  N11      1.0000 0.77075  0.76160  0.18520  Biso   1.000  N
  N12      1.0000 0.77075  0.23840  0.18520  Biso   1.000  N
  N13      1.0000 0.26160  0.22925  0.43520  Biso   1.000  N
  N14      1.0000 0.73840  0.22925  0.93520  Biso   1.000  N
  N15      1.0000 0.22925  0.23840  0.18520  Biso   1.000  N
  N16      1.0000 0.22925  0.76160  0.18520  Biso   1.000  N
  N17      1.0000 0.27120  0.24742  0.83319  Biso   1.000  N
  N18      1.0000 0.72880  0.24742  0.33319  Biso   1.000  N
  N19      1.0000 0.24742  0.22880  0.08319  Biso   1.000  N
  N20      1.0000 0.24742  0.77120  0.08319  Biso   1.000  N
  N21      1.0000 0.72880  0.75258  0.83319  Biso   1.000  N
  N22      1.0000 0.27120  0.75258  0.33319  Biso   1.000  N
  N23      1.0000 0.75258  0.77120  0.08319  Biso   1.000  N
  N24      1.0000 0.75258  0.22880  0.08319  Biso   1.000  N
  N25      1.0000 0.77120  0.74742  0.33319  Biso   1.000  N
  N26      1.0000 0.22880  0.74742  0.83319  Biso   1.000  N
  N27      1.0000 0.74742  0.72880  0.08319  Biso   1.000  N
  N28      1.0000 0.74742  0.27120  0.08319  Biso   1.000  N
  N29      1.0000 0.22880  0.25258  0.33319  Biso   1.000  N
  N30      1.0000 0.77120  0.25258  0.83319  Biso   1.000  N
  N31      1.0000 0.25258  0.27120  0.08319  Biso   1.000  N
  N32      1.0000 0.25258  0.72880  0.08319  Biso   1.000  N
  C1       1.0000 0.11750  0.39890  0.02275  Biso   1.000  C
  C2       1.0000 0.88250  0.39890  0.52275  Biso   1.000  C
  C3       1.0000 0.39890  0.38250  0.27275  Biso   1.000  C
  C4       1.0000 0.39890  0.61750  0.27275  Biso   1.000  C
  C5       1.0000 0.88250  0.60110  0.02275  Biso   1.000  C
  C6       1.0000 0.11750  0.60110  0.52275  Biso   1.000  C
  C7       1.0000 0.60110  0.61750  0.27275  Biso   1.000  C
  C8       1.0000 0.60110  0.38250  0.27275  Biso   1.000  C
  C9       1.0000 0.61750  0.89890  0.52275  Biso   1.000  C
  C10      1.0000 0.38250  0.89890  0.02275  Biso   1.000  C
  C11      1.0000 0.89890  0.88250  0.27275  Biso   1.000  C
  C12      1.0000 0.89890  0.11750  0.27275  Biso   1.000  C
  C13      1.0000 0.38250  0.10110  0.52275  Biso   1.000  C
  C14      1.0000 0.61750  0.10110  0.02275  Biso   1.000  C
  C15      1.0000 0.10110  0.11750  0.27275  Biso   1.000  C
  C16      1.0000 0.10110  0.88250  0.27275  Biso   1.000  C
  C17      1.0000 0.05500  0.39830  0.98870  Biso   1.000  C
  C18      1.0000 0.94500  0.39830  0.48870  Biso   1.000  C
  C19      1.0000 0.39830  0.44500  0.23870  Biso   1.000  C
  C20      1.0000 0.39830  0.55500  0.23870  Biso   1.000  C
  C21      1.0000 0.94500  0.60170  0.98870  Biso   1.000  C
  C22      1.0000 0.05500  0.60170  0.48870  Biso   1.000  C
  C23      1.0000 0.60170  0.55500  0.23870  Biso   1.000  C
  C24      1.0000 0.60170  0.44500  0.23870  Biso   1.000  C
  C25      1.0000 0.55500  0.89830  0.48870  Biso   1.000  C
  C26      1.0000 0.44500  0.89830  0.98870  Biso   1.000  C
  C27      1.0000 0.89830  0.94500  0.23870  Biso   1.000  C
  C28      1.0000 0.89830  0.05500  0.23870  Biso   1.000  C
  C29      1.0000 0.44500  0.10170  0.48870  Biso   1.000  C
  C30      1.0000 0.55500  0.10170  0.98870  Biso   1.000  C
  C31      1.0000 0.10170  0.05500  0.23870  Biso   1.000  C
  C32      1.0000 0.10170  0.94500  0.23870  Biso   1.000  C
  C33      1.0000 0.03700  0.34190  0.94800  Biso   1.000  C
  C34      1.0000 0.96300  0.34190  0.44800  Biso   1.000  C
  C35      1.0000 0.34190  0.46300  0.19800  Biso   1.000  C
  C36      1.0000 0.34190  0.53700  0.19800  Biso   1.000  C
  C37      1.0000 0.96300  0.65810  0.94800  Biso   1.000  C
  C38      1.0000 0.03700  0.65810  0.44800  Biso   1.000  C
  C39      1.0000 0.65810  0.53700  0.19800  Biso   1.000  C
  C40      1.0000 0.65810  0.46300  0.19800  Biso   1.000  C
  C41      1.0000 0.53700  0.84190  0.44800  Biso   1.000  C
  C42      1.0000 0.46300  0.84190  0.94800  Biso   1.000  C
  C43      1.0000 0.84190  0.96300  0.19800  Biso   1.000  C
  C44      1.0000 0.84190  0.03700  0.19800  Biso   1.000  C
  C45      1.0000 0.46300  0.15810  0.44800  Biso   1.000  C
  C46      1.0000 0.53700  0.15810  0.94800  Biso   1.000  C
  C47      1.0000 0.15810  0.03700  0.19800  Biso   1.000  C
  C48      1.0000 0.15810  0.96300  0.19800  Biso   1.000  C
  C49      1.0000 0.13470  0.46730  0.05930  Biso   1.000  C
  C50      1.0000 0.86530  0.46730  0.55930  Biso   1.000  C
  C51      1.0000 0.46730  0.36530  0.30930  Biso   1.000  C
  C52      1.0000 0.46730  0.63470  0.30930  Biso   1.000  C
  C53      1.0000 0.86530  0.53270  0.05930  Biso   1.000  C
  C54      1.0000 0.13470  0.53270  0.55930  Biso   1.000  C
  C55      1.0000 0.53270  0.63470  0.30930  Biso   1.000  C
  C56      1.0000 0.53270  0.36530  0.30930  Biso   1.000  C
  C57      1.0000 0.63470  0.96730  0.55930  Biso   1.000  C
  C58      1.0000 0.36530  0.96730  0.05930  Biso   1.000  C
  C59      1.0000 0.96730  0.86530  0.30930  Biso   1.000  C
  C60      1.0000 0.96730  0.13470  0.30930  Biso   1.000  C
  C61      1.0000 0.36530  0.03270  0.55930  Biso   1.000  C
  C62      1.0000 0.63470  0.03270  0.05930  Biso   1.000  C
  C63      1.0000 0.03270  0.13470  0.30930  Biso   1.000  C
  C64      1.0000 0.03270  0.86530  0.30930  Biso   1.000  C
  C65      1.0000 0.96360  0.35150  0.91510  Biso   1.000  C
  C66      1.0000 0.03640  0.35150  0.41510  Biso   1.000  C
  C67      1.0000 0.35150  0.53640  0.16510  Biso   1.000  C
  C68      1.0000 0.35150  0.46360  0.16510  Biso   1.000  C
  C69      1.0000 0.03640  0.64850  0.91510  Biso   1.000  C
  C70      1.0000 0.96360  0.64850  0.41510  Biso   1.000  C
  C71      1.0000 0.64850  0.46360  0.16510  Biso   1.000  C
  C72      1.0000 0.64850  0.53640  0.16510  Biso   1.000  C
  C73      1.0000 0.46360  0.85150  0.41510  Biso   1.000  C
  C74      1.0000 0.53640  0.85150  0.91510  Biso   1.000  C
  C75      1.0000 0.85150  0.03640  0.16510  Biso   1.000  C
  C76      1.0000 0.85150  0.96360  0.16510  Biso   1.000  C
  C77      1.0000 0.53640  0.14850  0.41510  Biso   1.000  C
  C78      1.0000 0.46360  0.14850  0.91510  Biso   1.000  C
  C79      1.0000 0.14850  0.96360  0.16510  Biso   1.000  C
  C80      1.0000 0.14850  0.03640  0.16510  Biso   1.000  C
  C81      1.0000 0.04180  0.17330  0.05000  Biso   1.000  C
  C82      1.0000 0.95820  0.17330  0.55000  Biso   1.000  C
  C83      1.0000 0.17330  0.45820  0.30000  Biso   1.000  C
  C84      1.0000 0.17330  0.54180  0.30000  Biso   1.000  C
  C85      1.0000 0.95820  0.82670  0.05000  Biso   1.000  C
  C86      1.0000 0.04180  0.82670  0.55000  Biso   1.000  C
  C87      1.0000 0.82670  0.54180  0.30000  Biso   1.000  C
  C88      1.0000 0.82670  0.45820  0.30000  Biso   1.000  C
  C89      1.0000 0.54180  0.67330  0.55000  Biso   1.000  C
  C90      1.0000 0.45820  0.67330  0.05000  Biso   1.000  C
  C91      1.0000 0.67330  0.95820  0.30000  Biso   1.000  C
  C92      1.0000 0.67330  0.04180  0.30000  Biso   1.000  C
  C93      1.0000 0.45820  0.32670  0.55000  Biso   1.000  C
  C94      1.0000 0.54180  0.32670  0.05000  Biso   1.000  C
  C95      1.0000 0.32670  0.04180  0.30000  Biso   1.000  C
  C96      1.0000 0.32670  0.95820  0.30000  Biso   1.000  C
  C97      1.0000 0.05470  0.11100  0.01560  Biso   1.000  C
  C98      1.0000 0.94530  0.11100  0.51560  Biso   1.000  C
  C99      1.0000 0.11100  0.44530  0.26560  Biso   1.000  C
  C100     1.0000 0.11100  0.55470  0.26560  Biso   1.000  C
  C101     1.0000 0.94530  0.88900  0.01560  Biso   1.000  C
  C102     1.0000 0.05470  0.88900  0.51560  Biso   1.000  C
  C103     1.0000 0.88900  0.55470  0.26560  Biso   1.000  C
  C104     1.0000 0.88900  0.44530  0.26560  Biso   1.000  C
  C105     1.0000 0.55470  0.61100  0.51560  Biso   1.000  C
  C106     1.0000 0.44530  0.61100  0.01560  Biso   1.000  C
  C107     1.0000 0.61100  0.94530  0.26560  Biso   1.000  C
  C108     1.0000 0.61100  0.05470  0.26560  Biso   1.000  C
  C109     1.0000 0.44530  0.38900  0.51560  Biso   1.000  C
  C110     1.0000 0.55470  0.38900  0.01560  Biso   1.000  C
  C111     1.0000 0.38900  0.05470  0.26560  Biso   1.000  C
  C112     1.0000 0.38900  0.94530  0.26560  Biso   1.000  C
  C113     1.0000 0.11840  0.10310  0.98286  Biso   1.000  C
  C114     1.0000 0.88160  0.10310  0.48286  Biso   1.000  C
  C115     1.0000 0.10310  0.38160  0.23286  Biso   1.000  C
  C116     1.0000 0.10310  0.61840  0.23286  Biso   1.000  C
  C117     1.0000 0.88160  0.89690  0.98286  Biso   1.000  C
  C118     1.0000 0.11840  0.89690  0.48286  Biso   1.000  C
  C119     1.0000 0.89690  0.61840  0.23286  Biso   1.000  C
  C120     1.0000 0.89690  0.38160  0.23286  Biso   1.000  C
  C121     1.0000 0.61840  0.60310  0.48286  Biso   1.000  C
  C122     1.0000 0.38160  0.60310  0.98286  Biso   1.000  C
  C123     1.0000 0.60310  0.88160  0.23286  Biso   1.000  C
  C124     1.0000 0.60310  0.11840  0.23286  Biso   1.000  C
  C125     1.0000 0.38160  0.39690  0.48286  Biso   1.000  C
  C126     1.0000 0.61840  0.39690  0.98286  Biso   1.000  C
  C127     1.0000 0.39690  0.11840  0.23286  Biso   1.000  C
  C128     1.0000 0.39690  0.88160  0.23286  Biso   1.000  C
  C129     1.0000 0.97080  0.17740  0.08600  Biso   1.000  C
  C130     1.0000 0.02920  0.17740  0.58600  Biso   1.000  C
  C131     1.0000 0.17740  0.52920  0.33600  Biso   1.000  C
  C132     1.0000 0.17740  0.47080  0.33600  Biso   1.000  C
  C133     1.0000 0.02920  0.82260  0.08600  Biso   1.000  C
  C134     1.0000 0.97080  0.82260  0.58600  Biso   1.000  C
  C135     1.0000 0.82260  0.47080  0.33600  Biso   1.000  C
  C136     1.0000 0.82260  0.52920  0.33600  Biso   1.000  C
  C137     1.0000 0.47080  0.67740  0.58600  Biso   1.000  C
  C138     1.0000 0.52920  0.67740  0.08600  Biso   1.000  C
  C139     1.0000 0.67740  0.02920  0.33600  Biso   1.000  C
  C140     1.0000 0.67740  0.97080  0.33600  Biso   1.000  C
  C141     1.0000 0.52920  0.32260  0.58600  Biso   1.000  C
  C142     1.0000 0.47080  0.32260  0.08600  Biso   1.000  C
  C143     1.0000 0.32260  0.97080  0.33600  Biso   1.000  C
  C144     1.0000 0.32260  0.02920  0.33600  Biso   1.000  C
  C145     1.0000 0.13270  0.03000  0.95080  Biso   1.000  C
  C146     1.0000 0.86730  0.03000  0.45080  Biso   1.000  C
  C147     1.0000 0.03000  0.36730  0.20080  Biso   1.000  C
  C148     1.0000 0.03000  0.63270  0.20080  Biso   1.000  C
  C149     1.0000 0.86730  0.97000  0.95080  Biso   1.000  C
  C150     1.0000 0.13270  0.97000  0.45080  Biso   1.000  C
  C151     1.0000 0.97000  0.63270  0.20080  Biso   1.000  C
  C152     1.0000 0.97000  0.36730  0.20080  Biso   1.000  C
  C153     1.0000 0.63270  0.53000  0.45080  Biso   1.000  C
  C154     1.0000 0.36730  0.53000  0.95080  Biso   1.000  C
  C155     1.0000 0.53000  0.86730  0.20080  Biso   1.000  C
  C156     1.0000 0.53000  0.13270  0.20080  Biso   1.000  C
  C157     1.0000 0.36730  0.47000  0.45080  Biso   1.000  C
  C158     1.0000 0.63270  0.47000  0.95080  Biso   1.000  C
  C159     1.0000 0.47000  0.13270  0.20080  Biso   1.000  C
  C160     1.0000 0.47000  0.86730  0.20080  Biso   1.000  C
  C161     1.0000 0.22890  0.23900  0.88130  Biso   1.000  C
  C162     1.0000 0.77110  0.23900  0.38130  Biso   1.000  C
  C163     1.0000 0.23900  0.27110  0.13130  Biso   1.000  C
  C164     1.0000 0.23900  0.72890  0.13130  Biso   1.000  C
  C165     1.0000 0.77110  0.76100  0.88130  Biso   1.000  C
  C166     1.0000 0.22890  0.76100  0.38130  Biso   1.000  C
  C167     1.0000 0.76100  0.72890  0.13130  Biso   1.000  C
  C168     1.0000 0.76100  0.27110  0.13130  Biso   1.000  C
  C169     1.0000 0.72890  0.73900  0.38130  Biso   1.000  C
  C170     1.0000 0.27110  0.73900  0.88130  Biso   1.000  C
  C171     1.0000 0.73900  0.77110  0.13130  Biso   1.000  C
  C172     1.0000 0.73900  0.22890  0.13130  Biso   1.000  C
  C173     1.0000 0.27110  0.26100  0.38130  Biso   1.000  C
  C174     1.0000 0.72890  0.26100  0.88130  Biso   1.000  C
  C175     1.0000 0.26100  0.22890  0.13130  Biso   1.000  C
  C176     1.0000 0.26100  0.77110  0.13130  Biso   1.000  C
  C177     1.0000 0.32820  0.29370  0.83920  Biso   1.000  C
  C178     1.0000 0.67180  0.29370  0.33920  Biso   1.000  C
  C179     1.0000 0.29370  0.17180  0.08920  Biso   1.000  C
  C180     1.0000 0.29370  0.82820  0.08920  Biso   1.000  C
  C181     1.0000 0.67180  0.70630  0.83920  Biso   1.000  C
  C182     1.0000 0.32820  0.70630  0.33920  Biso   1.000  C
  C183     1.0000 0.70630  0.82820  0.08920  Biso   1.000  C
  C184     1.0000 0.70630  0.17180  0.08920  Biso   1.000  C
  C185     1.0000 0.82820  0.79370  0.33920  Biso   1.000  C
  C186     1.0000 0.17180  0.79370  0.83920  Biso   1.000  C
  C187     1.0000 0.79370  0.67180  0.08920  Biso   1.000  C
  C188     1.0000 0.79370  0.32820  0.08920  Biso   1.000  C
  C189     1.0000 0.17180  0.20630  0.33920  Biso   1.000  C
  C190     1.0000 0.82820  0.20630  0.83920  Biso   1.000  C
  C191     1.0000 0.20630  0.32820  0.08920  Biso   1.000  C
  C192     1.0000 0.20630  0.67180  0.08920  Biso   1.000  C
  C193     1.0000 0.34170  0.32910  0.89270  Biso   1.000  C
  C194     1.0000 0.65830  0.32910  0.39270  Biso   1.000  C
  C195     1.0000 0.32910  0.15830  0.14270  Biso   1.000  C
  C196     1.0000 0.32910  0.84170  0.14270  Biso   1.000  C
  C197     1.0000 0.65830  0.67090  0.89270  Biso   1.000  C
  C198     1.0000 0.34170  0.67090  0.39270  Biso   1.000  C
  C199     1.0000 0.67090  0.84170  0.14270  Biso   1.000  C
  C200     1.0000 0.67090  0.15830  0.14270  Biso   1.000  C
  C201     1.0000 0.84170  0.82910  0.39270  Biso   1.000  C
  C202     1.0000 0.15830  0.82910  0.89270  Biso   1.000  C
  C203     1.0000 0.82910  0.65830  0.14270  Biso   1.000  C
  C204     1.0000 0.82910  0.34170  0.14270  Biso   1.000  C
  C205     1.0000 0.15830  0.17090  0.39270  Biso   1.000  C
  C206     1.0000 0.84170  0.17090  0.89270  Biso   1.000  C
  C207     1.0000 0.17090  0.34170  0.14270  Biso   1.000  C
  C208     1.0000 0.17090  0.65830  0.14270  Biso   1.000  C
  C209     1.0000 0.29460  0.31680  0.94060  Biso   1.000  C
  C210     1.0000 0.70540  0.31680  0.44060  Biso   1.000  C
  C211     1.0000 0.31680  0.20540  0.19060  Biso   1.000  C
  C212     1.0000 0.31680  0.79460  0.19060  Biso   1.000  C
  C213     1.0000 0.70540  0.68320  0.94060  Biso   1.000  C
  C214     1.0000 0.29460  0.68320  0.44060  Biso   1.000  C
  C215     1.0000 0.68320  0.79460  0.19060  Biso   1.000  C
  C216     1.0000 0.68320  0.20540  0.19060  Biso   1.000  C
  C217     1.0000 0.79460  0.81680  0.44060  Biso   1.000  C
  C218     1.0000 0.20540  0.81680  0.94060  Biso   1.000  C
  C219     1.0000 0.81680  0.70540  0.19060  Biso   1.000  C
  C220     1.0000 0.81680  0.29460  0.19060  Biso   1.000  C
  C221     1.0000 0.20540  0.18320  0.44060  Biso   1.000  C
  C222     1.0000 0.79460  0.18320  0.94060  Biso   1.000  C
  C223     1.0000 0.18320  0.29460  0.19060  Biso   1.000  C
  C224     1.0000 0.18320  0.70540  0.19060  Biso   1.000  C
  F1       1.0000 0.18950  0.50310  0.03502  Biso   1.000  F
  F2       1.0000 0.81050  0.50310  0.53502  Biso   1.000  F
  F3       1.0000 0.50310  0.31050  0.28502  Biso   1.000  F
  F4       1.0000 0.50310  0.68950  0.28502  Biso   1.000  F
  F5       1.0000 0.81050  0.49690  0.03502  Biso   1.000  F
  F6       1.0000 0.18950  0.49690  0.53502  Biso   1.000  F
  F7       1.0000 0.49690  0.68950  0.28502  Biso   1.000  F
  F8       1.0000 0.49690  0.31050  0.28502  Biso   1.000  F
  F9       1.0000 0.68950  0.00310  0.53502  Biso   1.000  F
  F10      1.0000 0.31050  0.00310  0.03502  Biso   1.000  F
  F11      1.0000 0.00310  0.81050  0.28502  Biso   1.000  F
  F12      1.0000 0.00310  0.18950  0.28502  Biso   1.000  F
  F13      1.0000 0.31050  0.99690  0.53502  Biso   1.000  F
  F14      1.0000 0.68950  0.99690  0.03502  Biso   1.000  F
  F15      1.0000 0.99690  0.18950  0.28502  Biso   1.000  F
  F16      1.0000 0.99690  0.81050  0.28502  Biso   1.000  F
  F17      1.0000 0.07887  0.51280  0.06430  Biso   1.000  F
  F18      1.0000 0.92113  0.51280  0.56430  Biso   1.000  F
  F19      1.0000 0.51280  0.42113  0.31430  Biso   1.000  F
  F20      1.0000 0.51280  0.57887  0.31430  Biso   1.000  F
  F21      1.0000 0.92113  0.48720  0.06430  Biso   1.000  F
  F22      1.0000 0.07887  0.48720  0.56430  Biso   1.000  F
  F23      1.0000 0.48720  0.57887  0.31430  Biso   1.000  F
  F24      1.0000 0.48720  0.42113  0.31430  Biso   1.000  F
  F25      1.0000 0.57887  0.01280  0.56430  Biso   1.000  F
  F26      1.0000 0.42113  0.01280  0.06430  Biso   1.000  F
  F27      1.0000 0.01280  0.92113  0.31430  Biso   1.000  F
  F28      1.0000 0.01280  0.07887  0.31430  Biso   1.000  F
  F29      1.0000 0.42113  0.98720  0.56430  Biso   1.000  F
  F30      1.0000 0.57887  0.98720  0.06430  Biso   1.000  F
  F31      1.0000 0.98720  0.07887  0.31430  Biso   1.000  F
  F32      1.0000 0.98720  0.92113  0.31430  Biso   1.000  F
  F33      1.0000 0.15390  0.45232  0.11532  Biso   1.000  F
  F34      1.0000 0.84610  0.45232  0.61532  Biso   1.000  F
  F35      1.0000 0.45232  0.34610  0.36532  Biso   1.000  F
  F36      1.0000 0.45232  0.65390  0.36532  Biso   1.000  F
  F37      1.0000 0.84610  0.54768  0.11532  Biso   1.000  F
  F38      1.0000 0.15390  0.54768  0.61532  Biso   1.000  F
  F39      1.0000 0.54768  0.65390  0.36532  Biso   1.000  F
  F40      1.0000 0.54768  0.34610  0.36532  Biso   1.000  F
  F41      1.0000 0.65390  0.95232  0.61532  Biso   1.000  F
  F42      1.0000 0.34610  0.95232  0.11532  Biso   1.000  F
  F43      1.0000 0.95232  0.84610  0.36532  Biso   1.000  F
  F44      1.0000 0.95232  0.15390  0.36532  Biso   1.000  F
  F45      1.0000 0.34610  0.04768  0.61532  Biso   1.000  F
  F46      1.0000 0.65390  0.04768  0.11532  Biso   1.000  F
  F47      1.0000 0.04768  0.15390  0.36532  Biso   1.000  F
  F48      1.0000 0.04768  0.84610  0.36532  Biso   1.000  F
  F49      1.0000 0.94870  0.42101  0.90336  Biso   1.000  F
  F50      1.0000 0.05130  0.42101  0.40336  Biso   1.000  F
  F51      1.0000 0.42101  0.55130  0.15336  Biso   1.000  F
  F52      1.0000 0.42101  0.44870  0.15336  Biso   1.000  F
  F53      1.0000 0.05130  0.57899  0.90336  Biso   1.000  F
  F54      1.0000 0.94870  0.57899  0.40336  Biso   1.000  F
  F55      1.0000 0.57899  0.44870  0.15336  Biso   1.000  F
  F56      1.0000 0.57899  0.55130  0.15336  Biso   1.000  F
  F57      1.0000 0.44870  0.92101  0.40336  Biso   1.000  F
  F58      1.0000 0.55130  0.92101  0.90336  Biso   1.000  F
  F59      1.0000 0.92101  0.05130  0.15336  Biso   1.000  F
  F60      1.0000 0.92101  0.94870  0.15336  Biso   1.000  F
  F61      1.0000 0.55130  0.07899  0.40336  Biso   1.000  F
  F62      1.0000 0.44870  0.07899  0.90336  Biso   1.000  F
  F63      1.0000 0.07899  0.94870  0.15336  Biso   1.000  F
  F64      1.0000 0.07899  0.05130  0.15336  Biso   1.000  F
  F65      1.0000 0.90910  0.32670  0.94916  Biso   1.000  F
  F66      1.0000 0.09090  0.32670  0.44916  Biso   1.000  F
  F67      1.0000 0.32670  0.59090  0.19916  Biso   1.000  F
  F68      1.0000 0.32670  0.40910  0.19916  Biso   1.000  F
  F69      1.0000 0.09090  0.67330  0.94916  Biso   1.000  F
  F70      1.0000 0.90910  0.67330  0.44916  Biso   1.000  F
  F71      1.0000 0.67330  0.40910  0.19916  Biso   1.000  F
  F72      1.0000 0.67330  0.59090  0.19916  Biso   1.000  F
  F73      1.0000 0.40910  0.82670  0.44916  Biso   1.000  F
  F74      1.0000 0.59090  0.82670  0.94916  Biso   1.000  F
  F75      1.0000 0.82670  0.09090  0.19916  Biso   1.000  F
  F76      1.0000 0.82670  0.90910  0.19916  Biso   1.000  F
  F77      1.0000 0.59090  0.17330  0.44916  Biso   1.000  F
  F78      1.0000 0.40910  0.17330  0.94916  Biso   1.000  F
  F79      1.0000 0.17330  0.90910  0.19916  Biso   1.000  F
  F80      1.0000 0.17330  0.09090  0.19916  Biso   1.000  F
  F81      1.0000 0.96170  0.31640  0.86344  Biso   1.000  F
  F82      1.0000 0.03830  0.31640  0.36344  Biso   1.000  F
  F83      1.0000 0.31640  0.53830  0.11344  Biso   1.000  F
  F84      1.0000 0.31640  0.46170  0.11344  Biso   1.000  F
  F85      1.0000 0.03830  0.68360  0.86344  Biso   1.000  F
  F86      1.0000 0.96170  0.68360  0.36344  Biso   1.000  F
  F87      1.0000 0.68360  0.46170  0.11344  Biso   1.000  F
  F88      1.0000 0.68360  0.53830  0.11344  Biso   1.000  F
  F89      1.0000 0.46170  0.81640  0.36344  Biso   1.000  F
  F90      1.0000 0.53830  0.81640  0.86344  Biso   1.000  F
  F91      1.0000 0.81640  0.03830  0.11344  Biso   1.000  F
  F92      1.0000 0.81640  0.96170  0.11344  Biso   1.000  F
  F93      1.0000 0.53830  0.18360  0.36344  Biso   1.000  F
  F94      1.0000 0.46170  0.18360  0.86344  Biso   1.000  F
  F95      1.0000 0.18360  0.96170  0.11344  Biso   1.000  F
  F96      1.0000 0.18360  0.03830  0.11344  Biso   1.000  F
  F97      1.0000 0.93077  0.23270  0.06550  Biso   1.000  F
  F98      1.0000 0.06923  0.23270  0.56550  Biso   1.000  F
  F99      1.0000 0.23270  0.56923  0.31550  Biso   1.000  F
  F100     1.0000 0.23270  0.43077  0.31550  Biso   1.000  F
  F101     1.0000 0.06923  0.76730  0.06550  Biso   1.000  F
  F102     1.0000 0.93077  0.76730  0.56550  Biso   1.000  F
  F103     1.0000 0.76730  0.43077  0.31550  Biso   1.000  F
  F104     1.0000 0.76730  0.56923  0.31550  Biso   1.000  F
  F105     1.0000 0.43077  0.73270  0.56550  Biso   1.000  F
  F106     1.0000 0.56923  0.73270  0.06550  Biso   1.000  F
  F107     1.0000 0.73270  0.06923  0.31550  Biso   1.000  F
  F108     1.0000 0.73270  0.93077  0.31550  Biso   1.000  F
  F109     1.0000 0.56923  0.26730  0.56550  Biso   1.000  F
  F110     1.0000 0.43077  0.26730  0.06550  Biso   1.000  F
  F111     1.0000 0.26730  0.93077  0.31550  Biso   1.000  F
  F112     1.0000 0.26730  0.06923  0.31550  Biso   1.000  F
  F113     1.0000 0.98096  0.18850  0.14359  Biso   1.000  F
  F114     1.0000 0.01904  0.18850  0.64359  Biso   1.000  F
  F115     1.0000 0.18850  0.51904  0.39359  Biso   1.000  F
  F116     1.0000 0.18850  0.48096  0.39359  Biso   1.000  F
  F117     1.0000 0.01904  0.81150  0.14359  Biso   1.000  F
  F118     1.0000 0.98096  0.81150  0.64359  Biso   1.000  F
  F119     1.0000 0.81150  0.48096  0.39359  Biso   1.000  F
  F120     1.0000 0.81150  0.51904  0.39359  Biso   1.000  F
  F121     1.0000 0.48096  0.68850  0.64359  Biso   1.000  F
  F122     1.0000 0.51904  0.68850  0.14359  Biso   1.000  F
  F123     1.0000 0.68850  0.01904  0.39359  Biso   1.000  F
  F124     1.0000 0.68850  0.98096  0.39359  Biso   1.000  F
  F125     1.0000 0.51904  0.31150  0.64359  Biso   1.000  F
  F126     1.0000 0.48096  0.31150  0.14359  Biso   1.000  F
  F127     1.0000 0.31150  0.98096  0.39359  Biso   1.000  F
  F128     1.0000 0.31150  0.01904  0.39359  Biso   1.000  F
  F129     1.0000 0.93049  0.11750  0.08120  Biso   1.000  F
  F130     1.0000 0.06951  0.11750  0.58120  Biso   1.000  F
  F131     1.0000 0.11750  0.56951  0.33120  Biso   1.000  F
  F132     1.0000 0.11750  0.43049  0.33120  Biso   1.000  F
  F133     1.0000 0.06951  0.88250  0.08120  Biso   1.000  F
  F134     1.0000 0.93049  0.88250  0.58120  Biso   1.000  F
  F135     1.0000 0.88250  0.43049  0.33120  Biso   1.000  F
  F136     1.0000 0.88250  0.56951  0.33120  Biso   1.000  F
  F137     1.0000 0.43049  0.61750  0.58120  Biso   1.000  F
  F138     1.0000 0.56951  0.61750  0.08120  Biso   1.000  F
  F139     1.0000 0.61750  0.06951  0.33120  Biso   1.000  F
  F140     1.0000 0.61750  0.93049  0.33120  Biso   1.000  F
  F141     1.0000 0.56951  0.38250  0.58120  Biso   1.000  F
  F142     1.0000 0.43049  0.38250  0.08120  Biso   1.000  F
  F143     1.0000 0.38250  0.93049  0.33120  Biso   1.000  F
  F144     1.0000 0.38250  0.06951  0.33120  Biso   1.000  F
  F145     1.0000 0.15710  0.04061  0.89502  Biso   1.000  F
  F146     1.0000 0.84290  0.04061  0.39502  Biso   1.000  F
  F147     1.0000 0.04061  0.34290  0.14502  Biso   1.000  F
  F148     1.0000 0.04061  0.65710  0.14502  Biso   1.000  F
  F149     1.0000 0.84290  0.95939  0.89502  Biso   1.000  F
  F150     1.0000 0.15710  0.95939  0.39502  Biso   1.000  F
  F151     1.0000 0.95939  0.65710  0.14502  Biso   1.000  F
  F152     1.0000 0.95939  0.34290  0.14502  Biso   1.000  F
  F153     1.0000 0.65710  0.54061  0.39502  Biso   1.000  F
  F154     1.0000 0.34290  0.54061  0.89502  Biso   1.000  F
  F155     1.0000 0.54061  0.84290  0.14502  Biso   1.000  F
  F156     1.0000 0.54061  0.15710  0.14502  Biso   1.000  F
  F157     1.0000 0.34290  0.45939  0.39502  Biso   1.000  F
  F158     1.0000 0.65710  0.45939  0.89502  Biso   1.000  F
  F159     1.0000 0.45939  0.15710  0.14502  Biso   1.000  F
  F160     1.0000 0.45939  0.84290  0.14502  Biso   1.000  F
  F161     1.0000 0.18060  0.99170  0.97941  Biso   1.000  F
  F162     1.0000 0.81940  0.99170  0.47941  Biso   1.000  F
  F163     1.0000 0.99170  0.31940  0.22941  Biso   1.000  F
  F164     1.0000 0.99170  0.68060  0.22941  Biso   1.000  F
  F165     1.0000 0.81940  0.00830  0.97941  Biso   1.000  F
  F166     1.0000 0.18060  0.00830  0.47941  Biso   1.000  F
  F167     1.0000 0.00830  0.68060  0.22941  Biso   1.000  F
  F168     1.0000 0.00830  0.31940  0.22941  Biso   1.000  F
  F169     1.0000 0.68060  0.49170  0.47941  Biso   1.000  F
  F170     1.0000 0.31940  0.49170  0.97941  Biso   1.000  F
  F171     1.0000 0.49170  0.81940  0.22941  Biso   1.000  F
  F172     1.0000 0.49170  0.18060  0.22941  Biso   1.000  F
  F173     1.0000 0.31940  0.50830  0.47941  Biso   1.000  F
  F174     1.0000 0.68060  0.50830  0.97941  Biso   1.000  F
  F175     1.0000 0.50830  0.18060  0.22941  Biso   1.000  F
  F176     1.0000 0.50830  0.81940  0.22941  Biso   1.000  F
  F177     1.0000 0.07328  0.98940  0.94590  Biso   1.000  F
  F178     1.0000 0.92672  0.98940  0.44590  Biso   1.000  F
  F179     1.0000 0.98940  0.42672  0.19590  Biso   1.000  F
  F180     1.0000 0.98940  0.57328  0.19590  Biso   1.000  F
  F181     1.0000 0.92672  0.01060  0.94590  Biso   1.000  F
  F182     1.0000 0.07328  0.01060  0.44590  Biso   1.000  F
  F183     1.0000 0.01060  0.57328  0.19590  Biso   1.000  F
  F184     1.0000 0.01060  0.42672  0.19590  Biso   1.000  F
  F185     1.0000 0.57328  0.48940  0.44590  Biso   1.000  F
  F186     1.0000 0.42672  0.48940  0.94590  Biso   1.000  F
  F187     1.0000 0.48940  0.92672  0.19590  Biso   1.000  F
  F188     1.0000 0.48940  0.07328  0.19590  Biso   1.000  F
  F189     1.0000 0.42672  0.51060  0.44590  Biso   1.000  F
  F190     1.0000 0.57328  0.51060  0.94590  Biso   1.000  F
  F191     1.0000 0.51060  0.07328  0.19590  Biso   1.000  F
  F192     1.0000 0.51060  0.92672  0.19590  Biso   1.000  F
  H1       1.0000 0.02500  0.43900  0.98700  Biso   1.000  H
  H2       1.0000 0.97500  0.43900  0.48700  Biso   1.000  H
  H3       1.0000 0.43900  0.47500  0.23700  Biso   1.000  H
  H4       1.0000 0.43900  0.52500  0.23700  Biso   1.000  H
  H5       1.0000 0.97500  0.56100  0.98700  Biso   1.000  H
  H6       1.0000 0.02500  0.56100  0.48700  Biso   1.000  H
  H7       1.0000 0.56100  0.52500  0.23700  Biso   1.000  H
  H8       1.0000 0.56100  0.47500  0.23700  Biso   1.000  H
  H9       1.0000 0.52500  0.93900  0.48700  Biso   1.000  H
  H10      1.0000 0.47500  0.93900  0.98700  Biso   1.000  H
  H11      1.0000 0.93900  0.97500  0.23700  Biso   1.000  H
  H12      1.0000 0.93900  0.02500  0.23700  Biso   1.000  H
  H13      1.0000 0.47500  0.06100  0.48700  Biso   1.000  H
  H14      1.0000 0.52500  0.06100  0.98700  Biso   1.000  H
  H15      1.0000 0.06100  0.02500  0.23700  Biso   1.000  H
  H16      1.0000 0.06100  0.97500  0.23700  Biso   1.000  H
  H17      1.0000 0.01900  0.07700  0.00400  Biso   1.000  H
  H18      1.0000 0.98100  0.07700  0.50400  Biso   1.000  H
  H19      1.0000 0.07700  0.48100  0.25400  Biso   1.000  H
  H20      1.0000 0.07700  0.51900  0.25400  Biso   1.000  H
  H21      1.0000 0.98100  0.92300  0.00400  Biso   1.000  H
  H22      1.0000 0.01900  0.92300  0.50400  Biso   1.000  H
  H23      1.0000 0.92300  0.51900  0.25400  Biso   1.000  H
  H24      1.0000 0.92300  0.48100  0.25400  Biso   1.000  H
  H25      1.0000 0.51900  0.57700  0.50400  Biso   1.000  H
  H26      1.0000 0.48100  0.57700  0.00400  Biso   1.000  H
  H27      1.0000 0.57700  0.98100  0.25400  Biso   1.000  H
  H28      1.0000 0.57700  0.01900  0.25400  Biso   1.000  H
  H29      1.0000 0.48100  0.42300  0.50400  Biso   1.000  H
  H30      1.0000 0.51900  0.42300  0.00400  Biso   1.000  H
  H31      1.0000 0.42300  0.01900  0.25400  Biso   1.000  H
  H32      1.0000 0.42300  0.98100  0.25400  Biso   1.000  H
  H33      1.0000 0.18700  0.20600  0.88000  Biso   1.000  H
  H34      1.0000 0.81300  0.20600  0.38000  Biso   1.000  H
  H35      1.0000 0.20600  0.31300  0.13000  Biso   1.000  H
  H36      1.0000 0.20600  0.68700  0.13000  Biso   1.000  H
  H37      1.0000 0.81300  0.79400  0.88000  Biso   1.000  H
  H38      1.0000 0.18700  0.79400  0.38000  Biso   1.000  H
  H39      1.0000 0.79400  0.68700  0.13000  Biso   1.000  H
  H40      1.0000 0.79400  0.31300  0.13000  Biso   1.000  H
  H41      1.0000 0.68700  0.70600  0.38000  Biso   1.000  H
  H42      1.0000 0.31300  0.70600  0.88000  Biso   1.000  H
  H43      1.0000 0.70600  0.81300  0.13000  Biso   1.000  H
  H44      1.0000 0.70600  0.18700  0.13000  Biso   1.000  H
  H45      1.0000 0.31300  0.29400  0.38000  Biso   1.000  H
  H46      1.0000 0.68700  0.29400  0.88000  Biso   1.000  H
  H47      1.0000 0.29400  0.18700  0.13000  Biso   1.000  H
  H48      1.0000 0.29400  0.81300  0.13000  Biso   1.000  H
  H49      1.0000 0.35400  0.30000  0.80300  Biso   1.000  H
  H50      1.0000 0.64600  0.30000  0.30300  Biso   1.000  H
  H51      1.0000 0.30000  0.14600  0.05300  Biso   1.000  H
  H52      1.0000 0.30000  0.85400  0.05300  Biso   1.000  H
  H53      1.0000 0.64600  0.70000  0.80300  Biso   1.000  H
  H54      1.0000 0.35400  0.70000  0.30300  Biso   1.000  H
  H55      1.0000 0.70000  0.85400  0.05300  Biso   1.000  H
  H56      1.0000 0.70000  0.14600  0.05300  Biso   1.000  H
  H57      1.0000 0.85400  0.80000  0.30300  Biso   1.000  H
  H58      1.0000 0.14600  0.80000  0.80300  Biso   1.000  H
  H59      1.0000 0.80000  0.64600  0.05300  Biso   1.000  H
  H60      1.0000 0.80000  0.35400  0.05300  Biso   1.000  H
  H61      1.0000 0.14600  0.20000  0.30300  Biso   1.000  H
  H62      1.0000 0.85400  0.20000  0.80300  Biso   1.000  H
  H63      1.0000 0.20000  0.35400  0.05300  Biso   1.000  H
  H64      1.0000 0.20000  0.64600  0.05300  Biso   1.000  H
  H65      1.0000 0.38200  0.36300  0.89300  Biso   1.000  H
  H66      1.0000 0.61800  0.36300  0.39300  Biso   1.000  H
  H67      1.0000 0.36300  0.11800  0.14300  Biso   1.000  H
  H68      1.0000 0.36300  0.88200  0.14300  Biso   1.000  H
  H69      1.0000 0.61800  0.63700  0.89300  Biso   1.000  H
  H70      1.0000 0.38200  0.63700  0.39300  Biso   1.000  H
  H71      1.0000 0.63700  0.88200  0.14300  Biso   1.000  H
  H72      1.0000 0.63700  0.11800  0.14300  Biso   1.000  H
  H73      1.0000 0.88200  0.86300  0.39300  Biso   1.000  H
  H74      1.0000 0.11800  0.86300  0.89300  Biso   1.000  H
  H75      1.0000 0.86300  0.61800  0.14300  Biso   1.000  H
  H76      1.0000 0.86300  0.38200  0.14300  Biso   1.000  H
  H77      1.0000 0.11800  0.13700  0.39300  Biso   1.000  H
  H78      1.0000 0.88200  0.13700  0.89300  Biso   1.000  H
  H79      1.0000 0.13700  0.38200  0.14300  Biso   1.000  H
  H80      1.0000 0.13700  0.61800  0.14300  Biso   1.000  H
  H81      1.0000 0.30500  0.34300  0.98000  Biso   1.000  H
  H82      1.0000 0.69500  0.34300  0.48000  Biso   1.000  H
  H83      1.0000 0.34300  0.19500  0.23000  Biso   1.000  H
  H84      1.0000 0.34300  0.80500  0.23000  Biso   1.000  H
  H85      1.0000 0.69500  0.65700  0.98000  Biso   1.000  H
  H86      1.0000 0.30500  0.65700  0.48000  Biso   1.000  H
  H87      1.0000 0.65700  0.80500  0.23000  Biso   1.000  H
  H88      1.0000 0.65700  0.19500  0.23000  Biso   1.000  H
  H89      1.0000 0.80500  0.84300  0.48000  Biso   1.000  H
  H90      1.0000 0.19500  0.84300  0.98000  Biso   1.000  H
  H91      1.0000 0.84300  0.69500  0.23000  Biso   1.000  H
  H92      1.0000 0.84300  0.30500  0.23000  Biso   1.000  H
  H93      1.0000 0.19500  0.15700  0.48000  Biso   1.000  H
  H94      1.0000 0.80500  0.15700  0.98000  Biso   1.000  H
  H95      1.0000 0.15700  0.30500  0.23000  Biso   1.000  H
  H96      1.0000 0.15700  0.69500  0.23000  Biso   1.000  H
  N33      1.0000 0.75258  0.22880  0.58319  Biso   1.000  N
  N34      1.0000 0.22880  0.74742  0.33319  Biso   1.000  N
  N35      1.0000 0.24742  0.77120  0.58319  Biso   1.000  N
  N36      1.0000 0.77120  0.25258  0.33319  Biso   1.000  N
  N37      1.0000 0.74742  0.72880  0.58319  Biso   1.000  N
  N38      1.0000 0.72880  0.75258  0.33319  Biso   1.000  N
  N39      1.0000 0.25258  0.27120  0.58319  Biso   1.000  N
  N40      1.0000 0.27120  0.24742  0.33319  Biso   1.000  N
  Cu17     1.0000 0.25036  0.16515  0.75156  Biso   1.000  Cu
  Cu18     1.0000 0.16515  0.75036  0.00156  Biso   1.000  Cu
  Cu19     1.0000 0.74964  0.83485  0.75156  Biso   1.000  Cu
  Cu20     1.0000 0.83485  0.24964  0.00156  Biso   1.000  Cu
  Cu21     1.0000 0.24964  0.66515  0.75156  Biso   1.000  Cu
  Cu22     1.0000 0.66515  0.74964  0.00156  Biso   1.000  Cu
  Cu23     1.0000 0.75036  0.33485  0.75156  Biso   1.000  Cu
  Cu24     1.0000 0.33485  0.25036  0.00156  Biso   1.000  Cu
