data_image0
_cell_length_a       18.586
_cell_length_b       18.586
_cell_length_c       22.345
_cell_angle_alpha    90
_cell_angle_beta     90
_cell_angle_gamma    90

_symmetry_space_group_name_H-M    "P 1"
_symmetry_int_tables_number       1

loop_
  _symmetry_equiv_pos_as_xyz
  'x, y, z'

loop_
  _atom_site_label
  _atom_site_occupancy
  _atom_site_fract_x
  _atom_site_fract_y
  _atom_site_fract_z
  _atom_site_thermal_displace_type
  _atom_site_B_iso_or_equiv
  _atom_site_type_symbol
  Cu1      1.0000 0.16527  0.25089  0.00128  Biso   1.000  Cu
  Cu2      1.0000 0.83473  0.25089  0.50128  Biso   1.000  Cu
  Cu3      1.0000 0.25089  0.33473  0.25128  Biso   1.000  Cu
  Cu4      1.0000 0.25089  0.66527  0.25128  Biso   1.000  Cu
  Cu5      1.0000 0.83473  0.74911  0.00128  Biso   1.000  Cu
  Cu6      1.0000 0.16527  0.74911  0.50128  Biso   1.000  Cu
  Cu7      1.0000 0.74911  0.66527  0.25128  Biso   1.000  Cu
  Cu8      1.0000 0.74911  0.33473  0.25128  Biso   1.000  Cu
  Cu9      1.0000 0.66527  0.75089  0.50128  Biso   1.000  Cu
  Cu10     1.0000 0.33473  0.75089  0.00128  Biso   1.000  Cu
  Cu11     1.0000 0.75089  0.83473  0.25128  Biso   1.000  Cu
  Cu12     1.0000 0.75089  0.16527  0.25128  Biso   1.000  Cu
  Cu13     1.0000 0.33473  0.24911  0.50128  Biso   1.000  Cu
  Cu14     1.0000 0.66527  0.24911  0.00128  Biso   1.000  Cu
  Cu15     1.0000 0.24911  0.16527  0.25128  Biso   1.000  Cu
  Cu16     1.0000 0.24911  0.83473  0.25128  Biso   1.000  Cu
  O1       1.0000 0.16780  0.35120  0.02780  Biso   1.000  O
  O2       1.0000 0.83220  0.35120  0.52780  Biso   1.000  O
  O3       1.0000 0.35120  0.33220  0.27780  Biso   1.000  O
  O4       1.0000 0.35120  0.66780  0.27780  Biso   1.000  O
  O5       1.0000 0.83220  0.64880  0.02780  Biso   1.000  O
  O6       1.0000 0.16780  0.64880  0.52780  Biso   1.000  O
  O7       1.0000 0.64880  0.66780  0.27780  Biso   1.000  O
  O8       1.0000 0.64880  0.33220  0.27780  Biso   1.000  O
  O9       1.0000 0.66780  0.85120  0.52780  Biso   1.000  O
  O10      1.0000 0.33220  0.85120  0.02780  Biso   1.000  O
  O11      1.0000 0.85120  0.83220  0.27780  Biso   1.000  O
  O12      1.0000 0.85120  0.16780  0.27780  Biso   1.000  O
  O13      1.0000 0.33220  0.14880  0.52780  Biso   1.000  O
  O14      1.0000 0.66780  0.14880  0.02780  Biso   1.000  O
  O15      1.0000 0.14880  0.16780  0.27780  Biso   1.000  O
  O16      1.0000 0.14880  0.83220  0.27780  Biso   1.000  O
  O17      1.0000 0.07190  0.28540  0.93800  Biso   1.000  O
  O18      1.0000 0.92810  0.28540  0.43800  Biso   1.000  O
  O19      1.0000 0.28540  0.42810  0.18800  Biso   1.000  O
  O20      1.0000 0.28540  0.57190  0.18800  Biso   1.000  O
  O21      1.0000 0.92810  0.71460  0.93800  Biso   1.000  O
  O22      1.0000 0.07190  0.71460  0.43800  Biso   1.000  O
  O23      1.0000 0.71460  0.57190  0.18800  Biso   1.000  O
  O24      1.0000 0.71460  0.42810  0.18800  Biso   1.000  O
  O25      1.0000 0.57190  0.78540  0.43800  Biso   1.000  O
  O26      1.0000 0.42810  0.78540  0.93800  Biso   1.000  O
  O27      1.0000 0.78540  0.92810  0.18800  Biso   1.000  O
  O28      1.0000 0.78540  0.07190  0.18800  Biso   1.000  O
  O29      1.0000 0.42810  0.21460  0.43800  Biso   1.000  O
  O30      1.0000 0.57190  0.21460  0.93800  Biso   1.000  O
  O31      1.0000 0.21460  0.07190  0.18800  Biso   1.000  O
  O32      1.0000 0.21460  0.92810  0.18800  Biso   1.000  O
  O33      1.0000 0.08210  0.22970  0.05540  Biso   1.000  O
  O34      1.0000 0.91790  0.22970  0.55540  Biso   1.000  O
  O35      1.0000 0.22970  0.41790  0.30540  Biso   1.000  O
  O36      1.0000 0.22970  0.58210  0.30540  Biso   1.000  O
  O37      1.0000 0.91790  0.77030  0.05540  Biso   1.000  O
  O38      1.0000 0.08210  0.77030  0.55540  Biso   1.000  O
  O39      1.0000 0.77030  0.58210  0.30540  Biso   1.000  O
  O40      1.0000 0.77030  0.41790  0.30540  Biso   1.000  O
  O41      1.0000 0.58210  0.72970  0.55540  Biso   1.000  O
  O42      1.0000 0.41790  0.72970  0.05540  Biso   1.000  O
  O43      1.0000 0.72970  0.91790  0.30540  Biso   1.000  O
  O44      1.0000 0.72970  0.08210  0.30540  Biso   1.000  O
  O45      1.0000 0.41790  0.27030  0.55540  Biso   1.000  O
  O46      1.0000 0.58210  0.27030  0.05540  Biso   1.000  O
  O47      1.0000 0.27030  0.08210  0.30540  Biso   1.000  O
  O48      1.0000 0.27030  0.91790  0.30540  Biso   1.000  O
  O49      1.0000 0.16890  0.15040  0.97770  Biso   1.000  O
  O50      1.0000 0.83110  0.15040  0.47770  Biso   1.000  O
  O51      1.0000 0.15040  0.33110  0.22770  Biso   1.000  O
  O52      1.0000 0.15040  0.66890  0.22770  Biso   1.000  O
  O53      1.0000 0.83110  0.84960  0.97770  Biso   1.000  O
  O54      1.0000 0.16890  0.84960  0.47770  Biso   1.000  O
  O55      1.0000 0.84960  0.66890  0.22770  Biso   1.000  O
  O56      1.0000 0.84960  0.33110  0.22770  Biso   1.000  O
  O57      1.0000 0.66890  0.65040  0.47770  Biso   1.000  O
  O58      1.0000 0.33110  0.65040  0.97770  Biso   1.000  O
  O59      1.0000 0.65040  0.83110  0.22770  Biso   1.000  O
  O60      1.0000 0.65040  0.16890  0.22770  Biso   1.000  O
  O61      1.0000 0.33110  0.34960  0.47770  Biso   1.000  O
  O62      1.0000 0.66890  0.34960  0.97770  Biso   1.000  O
  O63      1.0000 0.34960  0.16890  0.22770  Biso   1.000  O
  O64      1.0000 0.34960  0.83110  0.22770  Biso   1.000  O
  N1       1.0000 0.23960  0.27030  0.93400  Biso   1.000  N
  N2       1.0000 0.76040  0.27030  0.43400  Biso   1.000  N
  N3       1.0000 0.27030  0.26040  0.18400  Biso   1.000  N
  N4       1.0000 0.27030  0.73960  0.18400  Biso   1.000  N
  N5       1.0000 0.76040  0.72970  0.93400  Biso   1.000  N
  N6       1.0000 0.23960  0.72970  0.43400  Biso   1.000  N
  N7       1.0000 0.72970  0.73960  0.18400  Biso   1.000  N
  N8       1.0000 0.72970  0.26040  0.18400  Biso   1.000  N
  N9       1.0000 0.73960  0.77030  0.43400  Biso   1.000  N
  N10      1.0000 0.26040  0.77030  0.93400  Biso   1.000  N
  N11      1.0000 0.77030  0.76040  0.18400  Biso   1.000  N
  N12      1.0000 0.77030  0.23960  0.18400  Biso   1.000  N
  N13      1.0000 0.26040  0.22970  0.43400  Biso   1.000  N
  N14      1.0000 0.73960  0.22970  0.93400  Biso   1.000  N
  N15      1.0000 0.22970  0.23960  0.18400  Biso   1.000  N
  N16      1.0000 0.22970  0.76040  0.18400  Biso   1.000  N
  N17      1.0000 0.27000  0.24560  0.83380  Biso   1.000  N
  N18      1.0000 0.73000  0.24560  0.33380  Biso   1.000  N
  N19      1.0000 0.24560  0.23000  0.08380  Biso   1.000  N
  N20      1.0000 0.24560  0.77000  0.08380  Biso   1.000  N
  N21      1.0000 0.73000  0.75440  0.83380  Biso   1.000  N
  N22      1.0000 0.27000  0.75440  0.33380  Biso   1.000  N
  N23      1.0000 0.75440  0.77000  0.08380  Biso   1.000  N
  N24      1.0000 0.75440  0.23000  0.08380  Biso   1.000  N
  N25      1.0000 0.77000  0.74560  0.33380  Biso   1.000  N
  N26      1.0000 0.23000  0.74560  0.83380  Biso   1.000  N
  N27      1.0000 0.74560  0.73000  0.08380  Biso   1.000  N
  N28      1.0000 0.74560  0.27000  0.08380  Biso   1.000  N
  N29      1.0000 0.23000  0.25440  0.33380  Biso   1.000  N
  N30      1.0000 0.77000  0.25440  0.83380  Biso   1.000  N
  N31      1.0000 0.25440  0.27000  0.08380  Biso   1.000  N
  N32      1.0000 0.25440  0.73000  0.08380  Biso   1.000  N
  C1       1.0000 0.11820  0.39790  0.02190  Biso   1.000  C
  C2       1.0000 0.88180  0.39790  0.52190  Biso   1.000  C
  C3       1.0000 0.39790  0.38180  0.27190  Biso   1.000  C
  C4       1.0000 0.39790  0.61820  0.27190  Biso   1.000  C
  C5       1.0000 0.88180  0.60210  0.02190  Biso   1.000  C
  C6       1.0000 0.11820  0.60210  0.52190  Biso   1.000  C
  C7       1.0000 0.60210  0.61820  0.27190  Biso   1.000  C
  C8       1.0000 0.60210  0.38180  0.27190  Biso   1.000  C
  C9       1.0000 0.61820  0.89790  0.52190  Biso   1.000  C
  C10      1.0000 0.38180  0.89790  0.02190  Biso   1.000  C
  C11      1.0000 0.89790  0.88180  0.27190  Biso   1.000  C
  C12      1.0000 0.89790  0.11820  0.27190  Biso   1.000  C
  C13      1.0000 0.38180  0.10210  0.52190  Biso   1.000  C
  C14      1.0000 0.61820  0.10210  0.02190  Biso   1.000  C
  C15      1.0000 0.10210  0.11820  0.27190  Biso   1.000  C
  C16      1.0000 0.10210  0.88180  0.27190  Biso   1.000  C
  C17      1.0000 0.05890  0.39790  0.98810  Biso   1.000  C
  C18      1.0000 0.94110  0.39790  0.48810  Biso   1.000  C
  C19      1.0000 0.39790  0.44110  0.23810  Biso   1.000  C
  C20      1.0000 0.39790  0.55890  0.23810  Biso   1.000  C
  C21      1.0000 0.94110  0.60210  0.98810  Biso   1.000  C
  C22      1.0000 0.05890  0.60210  0.48810  Biso   1.000  C
  C23      1.0000 0.60210  0.55890  0.23810  Biso   1.000  C
  C24      1.0000 0.60210  0.44110  0.23810  Biso   1.000  C
  C25      1.0000 0.55890  0.89790  0.48810  Biso   1.000  C
  C26      1.0000 0.44110  0.89790  0.98810  Biso   1.000  C
  C27      1.0000 0.89790  0.94110  0.23810  Biso   1.000  C
  C28      1.0000 0.89790  0.05890  0.23810  Biso   1.000  C
  C29      1.0000 0.44110  0.10210  0.48810  Biso   1.000  C
  C30      1.0000 0.55890  0.10210  0.98810  Biso   1.000  C
  C31      1.0000 0.10210  0.05890  0.23810  Biso   1.000  C
  C32      1.0000 0.10210  0.94110  0.23810  Biso   1.000  C
  H1       1.0000 0.02860  0.43770  0.99010  Biso   1.000  H
  H2       1.0000 0.97140  0.43770  0.49010  Biso   1.000  H
  H3       1.0000 0.43770  0.47140  0.24010  Biso   1.000  H
  H4       1.0000 0.43770  0.52860  0.24010  Biso   1.000  H
  H5       1.0000 0.97140  0.56230  0.99010  Biso   1.000  H
  H6       1.0000 0.02860  0.56230  0.49010  Biso   1.000  H
  H7       1.0000 0.56230  0.52860  0.24010  Biso   1.000  H
  H8       1.0000 0.56230  0.47140  0.24010  Biso   1.000  H
  H9       1.0000 0.52860  0.93770  0.49010  Biso   1.000  H
  H10      1.0000 0.47140  0.93770  0.99010  Biso   1.000  H
  H11      1.0000 0.93770  0.97140  0.24010  Biso   1.000  H
  H12      1.0000 0.93770  0.02860  0.24010  Biso   1.000  H
  H13      1.0000 0.47140  0.06230  0.49010  Biso   1.000  H
  H14      1.0000 0.52860  0.06230  0.99010  Biso   1.000  H
  H15      1.0000 0.06230  0.02860  0.24010  Biso   1.000  H
  H16      1.0000 0.06230  0.97140  0.24010  Biso   1.000  H
  C33      1.0000 0.03950  0.34110  0.94990  Biso   1.000  C
  C34      1.0000 0.96050  0.34110  0.44990  Biso   1.000  C
  C35      1.0000 0.34110  0.46050  0.19990  Biso   1.000  C
  C36      1.0000 0.34110  0.53950  0.19990  Biso   1.000  C
  C37      1.0000 0.96050  0.65890  0.94990  Biso   1.000  C
  C38      1.0000 0.03950  0.65890  0.44990  Biso   1.000  C
  C39      1.0000 0.65890  0.53950  0.19990  Biso   1.000  C
  C40      1.0000 0.65890  0.46050  0.19990  Biso   1.000  C
  C41      1.0000 0.53950  0.84110  0.44990  Biso   1.000  C
  C42      1.0000 0.46050  0.84110  0.94990  Biso   1.000  C
  C43      1.0000 0.84110  0.96050  0.19990  Biso   1.000  C
  C44      1.0000 0.84110  0.03950  0.19990  Biso   1.000  C
  C45      1.0000 0.46050  0.15890  0.44990  Biso   1.000  C
  C46      1.0000 0.53950  0.15890  0.94990  Biso   1.000  C
  C47      1.0000 0.15890  0.03950  0.19990  Biso   1.000  C
  C48      1.0000 0.15890  0.96050  0.19990  Biso   1.000  C
  C49      1.0000 0.13550  0.46680  0.05750  Biso   1.000  C
  C50      1.0000 0.86450  0.46680  0.55750  Biso   1.000  C
  C51      1.0000 0.46680  0.36450  0.30750  Biso   1.000  C
  C52      1.0000 0.46680  0.63550  0.30750  Biso   1.000  C
  C53      1.0000 0.86450  0.53320  0.05750  Biso   1.000  C
  C54      1.0000 0.13550  0.53320  0.55750  Biso   1.000  C
  C55      1.0000 0.53320  0.63550  0.30750  Biso   1.000  C
  C56      1.0000 0.53320  0.36450  0.30750  Biso   1.000  C
  C57      1.0000 0.63550  0.96680  0.55750  Biso   1.000  C
  C58      1.0000 0.36450  0.96680  0.05750  Biso   1.000  C
  C59      1.0000 0.96680  0.86450  0.30750  Biso   1.000  C
  C60      1.0000 0.96680  0.13550  0.30750  Biso   1.000  C
  C61      1.0000 0.36450  0.03320  0.55750  Biso   1.000  C
  C62      1.0000 0.63550  0.03320  0.05750  Biso   1.000  C
  C63      1.0000 0.03320  0.13550  0.30750  Biso   1.000  C
  C64      1.0000 0.03320  0.86450  0.30750  Biso   1.000  C
  C65      1.0000 0.96770  0.35290  0.91420  Biso   1.000  C
  C66      1.0000 0.03230  0.35290  0.41420  Biso   1.000  C
  C67      1.0000 0.35290  0.53230  0.16420  Biso   1.000  C
  C68      1.0000 0.35290  0.46770  0.16420  Biso   1.000  C
  C69      1.0000 0.03230  0.64710  0.91420  Biso   1.000  C
  C70      1.0000 0.96770  0.64710  0.41420  Biso   1.000  C
  C71      1.0000 0.64710  0.46770  0.16420  Biso   1.000  C
  C72      1.0000 0.64710  0.53230  0.16420  Biso   1.000  C
  C73      1.0000 0.46770  0.85290  0.41420  Biso   1.000  C
  C74      1.0000 0.53230  0.85290  0.91420  Biso   1.000  C
  C75      1.0000 0.85290  0.03230  0.16420  Biso   1.000  C
  C76      1.0000 0.85290  0.96770  0.16420  Biso   1.000  C
  C77      1.0000 0.53230  0.14710  0.41420  Biso   1.000  C
  C78      1.0000 0.46770  0.14710  0.91420  Biso   1.000  C
  C79      1.0000 0.14710  0.96770  0.16420  Biso   1.000  C
  C80      1.0000 0.14710  0.03230  0.16420  Biso   1.000  C
  C81      1.0000 0.04210  0.17590  0.04980  Biso   1.000  C
  C82      1.0000 0.95790  0.17590  0.54980  Biso   1.000  C
  C83      1.0000 0.17590  0.45790  0.29980  Biso   1.000  C
  C84      1.0000 0.17590  0.54210  0.29980  Biso   1.000  C
  C85      1.0000 0.95790  0.82410  0.04980  Biso   1.000  C
  C86      1.0000 0.04210  0.82410  0.54980  Biso   1.000  C
  C87      1.0000 0.82410  0.54210  0.29980  Biso   1.000  C
  C88      1.0000 0.82410  0.45790  0.29980  Biso   1.000  C
  C89      1.0000 0.54210  0.67590  0.54980  Biso   1.000  C
  C90      1.0000 0.45790  0.67590  0.04980  Biso   1.000  C
  C91      1.0000 0.67590  0.95790  0.29980  Biso   1.000  C
  C92      1.0000 0.67590  0.04210  0.29980  Biso   1.000  C
  C93      1.0000 0.45790  0.32410  0.54980  Biso   1.000  C
  C94      1.0000 0.54210  0.32410  0.04980  Biso   1.000  C
  C95      1.0000 0.32410  0.04210  0.29980  Biso   1.000  C
  C96      1.0000 0.32410  0.95790  0.29980  Biso   1.000  C
  C97      1.0000 0.05450  0.11430  0.01580  Biso   1.000  C
  C98      1.0000 0.94550  0.11430  0.51580  Biso   1.000  C
  C99      1.0000 0.11430  0.44550  0.26580  Biso   1.000  C
  C100     1.0000 0.11430  0.55450  0.26580  Biso   1.000  C
  C101     1.0000 0.94550  0.88570  0.01580  Biso   1.000  C
  C102     1.0000 0.05450  0.88570  0.51580  Biso   1.000  C
  C103     1.0000 0.88570  0.55450  0.26580  Biso   1.000  C
  C104     1.0000 0.88570  0.44550  0.26580  Biso   1.000  C
  C105     1.0000 0.55450  0.61430  0.51580  Biso   1.000  C
  C106     1.0000 0.44550  0.61430  0.01580  Biso   1.000  C
  C107     1.0000 0.61430  0.94550  0.26580  Biso   1.000  C
  C108     1.0000 0.61430  0.05450  0.26580  Biso   1.000  C
  C109     1.0000 0.44550  0.38570  0.51580  Biso   1.000  C
  C110     1.0000 0.55450  0.38570  0.01580  Biso   1.000  C
  C111     1.0000 0.38570  0.05450  0.26580  Biso   1.000  C
  C112     1.0000 0.38570  0.94550  0.26580  Biso   1.000  C
  H17      1.0000 0.01930  0.07880  0.01370  Biso   1.000  H
  H18      1.0000 0.98070  0.07880  0.51370  Biso   1.000  H
  H19      1.0000 0.07880  0.48070  0.26370  Biso   1.000  H
  H20      1.0000 0.07880  0.51930  0.26370  Biso   1.000  H
  H21      1.0000 0.98070  0.92120  0.01370  Biso   1.000  H
  H22      1.0000 0.01930  0.92120  0.51370  Biso   1.000  H
  H23      1.0000 0.92120  0.51930  0.26370  Biso   1.000  H
  H24      1.0000 0.92120  0.48070  0.26370  Biso   1.000  H
  H25      1.0000 0.51930  0.57880  0.51370  Biso   1.000  H
  H26      1.0000 0.48070  0.57880  0.01370  Biso   1.000  H
  H27      1.0000 0.57880  0.98070  0.26370  Biso   1.000  H
  H28      1.0000 0.57880  0.01930  0.26370  Biso   1.000  H
  H29      1.0000 0.48070  0.42120  0.51370  Biso   1.000  H
  H30      1.0000 0.51930  0.42120  0.01370  Biso   1.000  H
  H31      1.0000 0.42120  0.01930  0.26370  Biso   1.000  H
  H32      1.0000 0.42120  0.98070  0.26370  Biso   1.000  H
  C113     1.0000 0.11950  0.10540  0.98470  Biso   1.000  C
  C114     1.0000 0.88050  0.10540  0.48470  Biso   1.000  C
  C115     1.0000 0.10540  0.38050  0.23470  Biso   1.000  C
  C116     1.0000 0.10540  0.61950  0.23470  Biso   1.000  C
  C117     1.0000 0.88050  0.89460  0.98470  Biso   1.000  C
  C118     1.0000 0.11950  0.89460  0.48470  Biso   1.000  C
  C119     1.0000 0.89460  0.61950  0.23470  Biso   1.000  C
  C120     1.0000 0.89460  0.38050  0.23470  Biso   1.000  C
  C121     1.0000 0.61950  0.60540  0.48470  Biso   1.000  C
  C122     1.0000 0.38050  0.60540  0.98470  Biso   1.000  C
  C123     1.0000 0.60540  0.88050  0.23470  Biso   1.000  C
  C124     1.0000 0.60540  0.11950  0.23470  Biso   1.000  C
  C125     1.0000 0.38050  0.39460  0.48470  Biso   1.000  C
  C126     1.0000 0.61950  0.39460  0.98470  Biso   1.000  C
  C127     1.0000 0.39460  0.11950  0.23470  Biso   1.000  C
  C128     1.0000 0.39460  0.88050  0.23470  Biso   1.000  C
  C129     1.0000 0.97040  0.18000  0.08260  Biso   1.000  C
  C130     1.0000 0.02960  0.18000  0.58260  Biso   1.000  C
  C131     1.0000 0.18000  0.52960  0.33260  Biso   1.000  C
  C132     1.0000 0.18000  0.47040  0.33260  Biso   1.000  C
  C133     1.0000 0.02960  0.82000  0.08260  Biso   1.000  C
  C134     1.0000 0.97040  0.82000  0.58260  Biso   1.000  C
  C135     1.0000 0.82000  0.47040  0.33260  Biso   1.000  C
  C136     1.0000 0.82000  0.52960  0.33260  Biso   1.000  C
  C137     1.0000 0.47040  0.68000  0.58260  Biso   1.000  C
  C138     1.0000 0.52960  0.68000  0.08260  Biso   1.000  C
  C139     1.0000 0.68000  0.02960  0.33260  Biso   1.000  C
  C140     1.0000 0.68000  0.97040  0.33260  Biso   1.000  C
  C141     1.0000 0.52960  0.32000  0.58260  Biso   1.000  C
  C142     1.0000 0.47040  0.32000  0.08260  Biso   1.000  C
  C143     1.0000 0.32000  0.97040  0.33260  Biso   1.000  C
  C144     1.0000 0.32000  0.02960  0.33260  Biso   1.000  C
  C145     1.0000 0.13200  0.03400  0.95330  Biso   1.000  C
  C146     1.0000 0.86800  0.03400  0.45330  Biso   1.000  C
  C147     1.0000 0.03400  0.36800  0.20330  Biso   1.000  C
  C148     1.0000 0.03400  0.63200  0.20330  Biso   1.000  C
  C149     1.0000 0.86800  0.96600  0.95330  Biso   1.000  C
  C150     1.0000 0.13200  0.96600  0.45330  Biso   1.000  C
  C151     1.0000 0.96600  0.63200  0.20330  Biso   1.000  C
  C152     1.0000 0.96600  0.36800  0.20330  Biso   1.000  C
  C153     1.0000 0.63200  0.53400  0.45330  Biso   1.000  C
  C154     1.0000 0.36800  0.53400  0.95330  Biso   1.000  C
  C155     1.0000 0.53400  0.86800  0.20330  Biso   1.000  C
  C156     1.0000 0.53400  0.13200  0.20330  Biso   1.000  C
  C157     1.0000 0.36800  0.46600  0.45330  Biso   1.000  C
  C158     1.0000 0.63200  0.46600  0.95330  Biso   1.000  C
  C159     1.0000 0.46600  0.13200  0.20330  Biso   1.000  C
  C160     1.0000 0.46600  0.86800  0.20330  Biso   1.000  C
  C161     1.0000 0.22930  0.23790  0.88040  Biso   1.000  C
  C162     1.0000 0.77070  0.23790  0.38040  Biso   1.000  C
  C163     1.0000 0.23790  0.27070  0.13040  Biso   1.000  C
  C164     1.0000 0.23790  0.72930  0.13040  Biso   1.000  C
  C165     1.0000 0.77070  0.76210  0.88040  Biso   1.000  C
  C166     1.0000 0.22930  0.76210  0.38040  Biso   1.000  C
  C167     1.0000 0.76210  0.72930  0.13040  Biso   1.000  C
  C168     1.0000 0.76210  0.27070  0.13040  Biso   1.000  C
  C169     1.0000 0.72930  0.73790  0.38040  Biso   1.000  C
  C170     1.0000 0.27070  0.73790  0.88040  Biso   1.000  C
  C171     1.0000 0.73790  0.77070  0.13040  Biso   1.000  C
  C172     1.0000 0.73790  0.22930  0.13040  Biso   1.000  C
  C173     1.0000 0.27070  0.26210  0.38040  Biso   1.000  C
  C174     1.0000 0.72930  0.26210  0.88040  Biso   1.000  C
  C175     1.0000 0.26210  0.22930  0.13040  Biso   1.000  C
  C176     1.0000 0.26210  0.77070  0.13040  Biso   1.000  C
  H33      1.0000 0.18970  0.20770  0.87680  Biso   1.000  H
  H34      1.0000 0.81030  0.20770  0.37680  Biso   1.000  H
  H35      1.0000 0.20770  0.31030  0.12680  Biso   1.000  H
  H36      1.0000 0.20770  0.68970  0.12680  Biso   1.000  H
  H37      1.0000 0.81030  0.79230  0.87680  Biso   1.000  H
  H38      1.0000 0.18970  0.79230  0.37680  Biso   1.000  H
  H39      1.0000 0.79230  0.68970  0.12680  Biso   1.000  H
  H40      1.0000 0.79230  0.31030  0.12680  Biso   1.000  H
  H41      1.0000 0.68970  0.70770  0.37680  Biso   1.000  H
  H42      1.0000 0.31030  0.70770  0.87680  Biso   1.000  H
  H43      1.0000 0.70770  0.81030  0.12680  Biso   1.000  H
  H44      1.0000 0.70770  0.18970  0.12680  Biso   1.000  H
  H45      1.0000 0.31030  0.29230  0.37680  Biso   1.000  H
  H46      1.0000 0.68970  0.29230  0.87680  Biso   1.000  H
  H47      1.0000 0.29230  0.18970  0.12680  Biso   1.000  H
  H48      1.0000 0.29230  0.81030  0.12680  Biso   1.000  H
  C177     1.0000 0.32610  0.29300  0.83790  Biso   1.000  C
  C178     1.0000 0.67390  0.29300  0.33790  Biso   1.000  C
  C179     1.0000 0.29300  0.17390  0.08790  Biso   1.000  C
  C180     1.0000 0.29300  0.82610  0.08790  Biso   1.000  C
  C181     1.0000 0.67390  0.70700  0.83790  Biso   1.000  C
  C182     1.0000 0.32610  0.70700  0.33790  Biso   1.000  C
  C183     1.0000 0.70700  0.82610  0.08790  Biso   1.000  C
  C184     1.0000 0.70700  0.17390  0.08790  Biso   1.000  C
  C185     1.0000 0.82610  0.79300  0.33790  Biso   1.000  C
  C186     1.0000 0.17390  0.79300  0.83790  Biso   1.000  C
  C187     1.0000 0.79300  0.67390  0.08790  Biso   1.000  C
  C188     1.0000 0.79300  0.32610  0.08790  Biso   1.000  C
  C189     1.0000 0.17390  0.20700  0.33790  Biso   1.000  C
  C190     1.0000 0.82610  0.20700  0.83790  Biso   1.000  C
  C191     1.0000 0.20700  0.32610  0.08790  Biso   1.000  C
  C192     1.0000 0.20700  0.67390  0.08790  Biso   1.000  C
  H49      1.0000 0.35480  0.30140  0.80460  Biso   1.000  H
  H50      1.0000 0.64520  0.30140  0.30460  Biso   1.000  H
  H51      1.0000 0.30140  0.14520  0.05460  Biso   1.000  H
  H52      1.0000 0.30140  0.85480  0.05460  Biso   1.000  H
  H53      1.0000 0.64520  0.69860  0.80460  Biso   1.000  H
  H54      1.0000 0.35480  0.69860  0.30460  Biso   1.000  H
  H55      1.0000 0.69860  0.85480  0.05460  Biso   1.000  H
  H56      1.0000 0.69860  0.14520  0.05460  Biso   1.000  H
  H57      1.0000 0.85480  0.80140  0.30460  Biso   1.000  H
  H58      1.0000 0.14520  0.80140  0.80460  Biso   1.000  H
  H59      1.0000 0.80140  0.64520  0.05460  Biso   1.000  H
  H60      1.0000 0.80140  0.35480  0.05460  Biso   1.000  H
  H61      1.0000 0.14520  0.19860  0.30460  Biso   1.000  H
  H62      1.0000 0.85480  0.19860  0.80460  Biso   1.000  H
  H63      1.0000 0.19860  0.35480  0.05460  Biso   1.000  H
  H64      1.0000 0.19860  0.64520  0.05460  Biso   1.000  H
  C193     1.0000 0.34030  0.32780  0.88930  Biso   1.000  C
  C194     1.0000 0.65970  0.32780  0.38930  Biso   1.000  C
  C195     1.0000 0.32780  0.15970  0.13930  Biso   1.000  C
  C196     1.0000 0.32780  0.84030  0.13930  Biso   1.000  C
  C197     1.0000 0.65970  0.67220  0.88930  Biso   1.000  C
  C198     1.0000 0.34030  0.67220  0.38930  Biso   1.000  C
  C199     1.0000 0.67220  0.84030  0.13930  Biso   1.000  C
  C200     1.0000 0.67220  0.15970  0.13930  Biso   1.000  C
  C201     1.0000 0.84030  0.82780  0.38930  Biso   1.000  C
  C202     1.0000 0.15970  0.82780  0.88930  Biso   1.000  C
  C203     1.0000 0.82780  0.65970  0.13930  Biso   1.000  C
  C204     1.0000 0.82780  0.34030  0.13930  Biso   1.000  C
  C205     1.0000 0.15970  0.17220  0.38930  Biso   1.000  C
  C206     1.0000 0.84030  0.17220  0.88930  Biso   1.000  C
  C207     1.0000 0.17220  0.34030  0.13930  Biso   1.000  C
  C208     1.0000 0.17220  0.65970  0.13930  Biso   1.000  C
  H65      1.0000 0.38010  0.35770  0.89280  Biso   1.000  H
  H66      1.0000 0.61990  0.35770  0.39280  Biso   1.000  H
  H67      1.0000 0.35770  0.11990  0.14280  Biso   1.000  H
  H68      1.0000 0.35770  0.88010  0.14280  Biso   1.000  H
  H69      1.0000 0.61990  0.64230  0.89280  Biso   1.000  H
  H70      1.0000 0.38010  0.64230  0.39280  Biso   1.000  H
  H71      1.0000 0.64230  0.88010  0.14280  Biso   1.000  H
  H72      1.0000 0.64230  0.11990  0.14280  Biso   1.000  H
  H73      1.0000 0.88010  0.85770  0.39280  Biso   1.000  H
  H74      1.0000 0.11990  0.85770  0.89280  Biso   1.000  H
  H75      1.0000 0.85770  0.61990  0.14280  Biso   1.000  H
  H76      1.0000 0.85770  0.38010  0.14280  Biso   1.000  H
  H77      1.0000 0.11990  0.14230  0.39280  Biso   1.000  H
  H78      1.0000 0.88010  0.14230  0.89280  Biso   1.000  H
  H79      1.0000 0.14230  0.38010  0.14280  Biso   1.000  H
  H80      1.0000 0.14230  0.61990  0.14280  Biso   1.000  H
  C209     1.0000 0.29260  0.31720  0.93770  Biso   1.000  C
  C210     1.0000 0.70740  0.31720  0.43770  Biso   1.000  C
  C211     1.0000 0.31720  0.20740  0.18770  Biso   1.000  C
  C212     1.0000 0.31720  0.79260  0.18770  Biso   1.000  C
  C213     1.0000 0.70740  0.68280  0.93770  Biso   1.000  C
  C214     1.0000 0.29260  0.68280  0.43770  Biso   1.000  C
  C215     1.0000 0.68280  0.79260  0.18770  Biso   1.000  C
  C216     1.0000 0.68280  0.20740  0.18770  Biso   1.000  C
  C217     1.0000 0.79260  0.81720  0.43770  Biso   1.000  C
  C218     1.0000 0.20740  0.81720  0.93770  Biso   1.000  C
  C219     1.0000 0.81720  0.70740  0.18770  Biso   1.000  C
  C220     1.0000 0.81720  0.29260  0.18770  Biso   1.000  C
  C221     1.0000 0.20740  0.18280  0.43770  Biso   1.000  C
  C222     1.0000 0.79260  0.18280  0.93770  Biso   1.000  C
  C223     1.0000 0.18280  0.29260  0.18770  Biso   1.000  C
  C224     1.0000 0.18280  0.70740  0.18770  Biso   1.000  C
  H81      1.0000 0.29880  0.34360  0.97270  Biso   1.000  H
  H82      1.0000 0.70120  0.34360  0.47270  Biso   1.000  H
  H83      1.0000 0.34360  0.20120  0.22270  Biso   1.000  H
  H84      1.0000 0.34360  0.79880  0.22270  Biso   1.000  H
  H85      1.0000 0.70120  0.65640  0.97270  Biso   1.000  H
  H86      1.0000 0.29880  0.65640  0.47270  Biso   1.000  H
  H87      1.0000 0.65640  0.79880  0.22270  Biso   1.000  H
  H88      1.0000 0.65640  0.20120  0.22270  Biso   1.000  H
  H89      1.0000 0.79880  0.84360  0.47270  Biso   1.000  H
  H90      1.0000 0.20120  0.84360  0.97270  Biso   1.000  H
  H91      1.0000 0.84360  0.70120  0.22270  Biso   1.000  H
  H92      1.0000 0.84360  0.29880  0.22270  Biso   1.000  H
  H93      1.0000 0.20120  0.15640  0.47270  Biso   1.000  H
  H94      1.0000 0.79880  0.15640  0.97270  Biso   1.000  H
  H95      1.0000 0.15640  0.29880  0.22270  Biso   1.000  H
  H96      1.0000 0.15640  0.70120  0.22270  Biso   1.000  H
  F1       1.0000 0.18960  0.49950  0.03550  Biso   1.000  F
  F2       1.0000 0.81040  0.49950  0.53550  Biso   1.000  F
  F3       1.0000 0.49950  0.31040  0.28550  Biso   1.000  F
  F4       1.0000 0.49950  0.68960  0.28550  Biso   1.000  F
  F5       1.0000 0.81040  0.50050  0.03550  Biso   1.000  F
  F6       1.0000 0.18960  0.50050  0.53550  Biso   1.000  F
  F7       1.0000 0.68960  0.99950  0.53550  Biso   1.000  F
  F8       1.0000 0.31040  0.99950  0.03550  Biso   1.000  F
  F9       1.0000 0.99950  0.81040  0.28550  Biso   1.000  F
  F10      1.0000 0.99950  0.18960  0.28550  Biso   1.000  F
  F11      1.0000 0.31040  0.00050  0.53550  Biso   1.000  F
  F12      1.0000 0.68960  0.00050  0.03550  Biso   1.000  F
  F13      1.0000 0.08030  0.50570  0.06850  Biso   1.000  F
  F14      1.0000 0.91970  0.50570  0.56850  Biso   1.000  F
  F15      1.0000 0.50570  0.41970  0.31850  Biso   1.000  F
  F16      1.0000 0.50570  0.58030  0.31850  Biso   1.000  F
  F17      1.0000 0.91970  0.49430  0.06850  Biso   1.000  F
  F18      1.0000 0.08030  0.49430  0.56850  Biso   1.000  F
  F19      1.0000 0.49430  0.58030  0.31850  Biso   1.000  F
  F20      1.0000 0.49430  0.41970  0.31850  Biso   1.000  F
  F21      1.0000 0.58030  0.00570  0.56850  Biso   1.000  F
  F22      1.0000 0.41970  0.00570  0.06850  Biso   1.000  F
  F23      1.0000 0.00570  0.91970  0.31850  Biso   1.000  F
  F24      1.0000 0.00570  0.08030  0.31850  Biso   1.000  F
  F25      1.0000 0.41970  0.99430  0.56850  Biso   1.000  F
  F26      1.0000 0.58030  0.99430  0.06850  Biso   1.000  F
  F27      1.0000 0.99430  0.08030  0.31850  Biso   1.000  F
  F28      1.0000 0.99430  0.91970  0.31850  Biso   1.000  F
  F29      1.0000 0.15710  0.45320  0.11160  Biso   1.000  F
  F30      1.0000 0.84290  0.45320  0.61160  Biso   1.000  F
  F31      1.0000 0.45320  0.34290  0.36160  Biso   1.000  F
  F32      1.0000 0.45320  0.65710  0.36160  Biso   1.000  F
  F33      1.0000 0.84290  0.54680  0.11160  Biso   1.000  F
  F34      1.0000 0.15710  0.54680  0.61160  Biso   1.000  F
  F35      1.0000 0.54680  0.65710  0.36160  Biso   1.000  F
  F36      1.0000 0.54680  0.34290  0.36160  Biso   1.000  F
  F37      1.0000 0.65710  0.95320  0.61160  Biso   1.000  F
  F38      1.0000 0.34290  0.95320  0.11160  Biso   1.000  F
  F39      1.0000 0.95320  0.84290  0.36160  Biso   1.000  F
  F40      1.0000 0.95320  0.15710  0.36160  Biso   1.000  F
  F41      1.0000 0.34290  0.04680  0.61160  Biso   1.000  F
  F42      1.0000 0.65710  0.04680  0.11160  Biso   1.000  F
  F43      1.0000 0.04680  0.15710  0.36160  Biso   1.000  F
  F44      1.0000 0.04680  0.84290  0.36160  Biso   1.000  F
  F45      1.0000 0.95000  0.41540  0.90750  Biso   1.000  F
  F46      1.0000 0.05000  0.41540  0.40750  Biso   1.000  F
  F47      1.0000 0.41540  0.55000  0.15750  Biso   1.000  F
  F48      1.0000 0.41540  0.45000  0.15750  Biso   1.000  F
  F49      1.0000 0.05000  0.58460  0.90750  Biso   1.000  F
  F50      1.0000 0.95000  0.58460  0.40750  Biso   1.000  F
  F51      1.0000 0.58460  0.45000  0.15750  Biso   1.000  F
  F52      1.0000 0.58460  0.55000  0.15750  Biso   1.000  F
  F53      1.0000 0.45000  0.91540  0.40750  Biso   1.000  F
  F54      1.0000 0.55000  0.91540  0.90750  Biso   1.000  F
  F55      1.0000 0.91540  0.05000  0.15750  Biso   1.000  F
  F56      1.0000 0.91540  0.95000  0.15750  Biso   1.000  F
  F57      1.0000 0.55000  0.08460  0.40750  Biso   1.000  F
  F58      1.0000 0.45000  0.08460  0.90750  Biso   1.000  F
  F59      1.0000 0.08460  0.95000  0.15750  Biso   1.000  F
  F60      1.0000 0.08460  0.05000  0.15750  Biso   1.000  F
  F61      1.0000 0.91360  0.32660  0.95170  Biso   1.000  F
  F62      1.0000 0.08640  0.32660  0.45170  Biso   1.000  F
  F63      1.0000 0.32660  0.58640  0.20170  Biso   1.000  F
  F64      1.0000 0.32660  0.41360  0.20170  Biso   1.000  F
  F65      1.0000 0.08640  0.67340  0.95170  Biso   1.000  F
  F66      1.0000 0.91360  0.67340  0.45170  Biso   1.000  F
  F67      1.0000 0.67340  0.41360  0.20170  Biso   1.000  F
  F68      1.0000 0.67340  0.58640  0.20170  Biso   1.000  F
  F69      1.0000 0.41360  0.82660  0.45170  Biso   1.000  F
  F70      1.0000 0.58640  0.82660  0.95170  Biso   1.000  F
  F71      1.0000 0.82660  0.08640  0.20170  Biso   1.000  F
  F72      1.0000 0.82660  0.91360  0.20170  Biso   1.000  F
  F73      1.0000 0.58640  0.17340  0.45170  Biso   1.000  F
  F74      1.0000 0.41360  0.17340  0.95170  Biso   1.000  F
  F75      1.0000 0.17340  0.91360  0.20170  Biso   1.000  F
  F76      1.0000 0.17340  0.08640  0.20170  Biso   1.000  F
  F77      1.0000 0.96380  0.31610  0.86900  Biso   1.000  F
  F78      1.0000 0.03620  0.31610  0.36900  Biso   1.000  F
  F79      1.0000 0.31610  0.53620  0.11900  Biso   1.000  F
  F80      1.0000 0.31610  0.46380  0.11900  Biso   1.000  F
  F81      1.0000 0.03620  0.68390  0.86900  Biso   1.000  F
  F82      1.0000 0.96380  0.68390  0.36900  Biso   1.000  F
  F83      1.0000 0.68390  0.46380  0.11900  Biso   1.000  F
  F84      1.0000 0.68390  0.53620  0.11900  Biso   1.000  F
  F85      1.0000 0.46380  0.81610  0.36900  Biso   1.000  F
  F86      1.0000 0.53620  0.81610  0.86900  Biso   1.000  F
  F87      1.0000 0.81610  0.03620  0.11900  Biso   1.000  F
  F88      1.0000 0.81610  0.96380  0.11900  Biso   1.000  F
  F89      1.0000 0.53620  0.18390  0.36900  Biso   1.000  F
  F90      1.0000 0.46380  0.18390  0.86900  Biso   1.000  F
  F91      1.0000 0.18390  0.96380  0.11900  Biso   1.000  F
  F92      1.0000 0.18390  0.03620  0.11900  Biso   1.000  F
  F93      1.0000 0.93800  0.23840  0.07030  Biso   1.000  F
  F94      1.0000 0.06200  0.23840  0.57030  Biso   1.000  F
  F95      1.0000 0.23840  0.56200  0.32030  Biso   1.000  F
  F96      1.0000 0.23840  0.43800  0.32030  Biso   1.000  F
  F97      1.0000 0.06200  0.76160  0.07030  Biso   1.000  F
  F98      1.0000 0.93800  0.76160  0.57030  Biso   1.000  F
  F99      1.0000 0.76160  0.43800  0.32030  Biso   1.000  F
  F100     1.0000 0.76160  0.56200  0.32030  Biso   1.000  F
  F101     1.0000 0.43800  0.73840  0.57030  Biso   1.000  F
  F102     1.0000 0.56200  0.73840  0.07030  Biso   1.000  F
  F103     1.0000 0.73840  0.06200  0.32030  Biso   1.000  F
  F104     1.0000 0.73840  0.93800  0.32030  Biso   1.000  F
  F105     1.0000 0.56200  0.26160  0.57030  Biso   1.000  F
  F106     1.0000 0.43800  0.26160  0.07030  Biso   1.000  F
  F107     1.0000 0.26160  0.93800  0.32030  Biso   1.000  F
  F108     1.0000 0.26160  0.06200  0.32030  Biso   1.000  F
  F109     1.0000 0.97960  0.18680  0.14220  Biso   1.000  F
  F110     1.0000 0.02040  0.18680  0.64220  Biso   1.000  F
  F111     1.0000 0.18680  0.52040  0.39220  Biso   1.000  F
  F112     1.0000 0.18680  0.47960  0.39220  Biso   1.000  F
  F113     1.0000 0.02040  0.81320  0.14220  Biso   1.000  F
  F114     1.0000 0.97960  0.81320  0.64220  Biso   1.000  F
  F115     1.0000 0.81320  0.47960  0.39220  Biso   1.000  F
  F116     1.0000 0.81320  0.52040  0.39220  Biso   1.000  F
  F117     1.0000 0.47960  0.68680  0.64220  Biso   1.000  F
  F118     1.0000 0.52040  0.68680  0.14220  Biso   1.000  F
  F119     1.0000 0.68680  0.02040  0.39220  Biso   1.000  F
  F120     1.0000 0.68680  0.97960  0.39220  Biso   1.000  F
  F121     1.0000 0.52040  0.31320  0.64220  Biso   1.000  F
  F122     1.0000 0.47960  0.31320  0.14220  Biso   1.000  F
  F123     1.0000 0.31320  0.97960  0.39220  Biso   1.000  F
  F124     1.0000 0.31320  0.02040  0.39220  Biso   1.000  F
  F125     1.0000 0.92930  0.12720  0.07550  Biso   1.000  F
  F126     1.0000 0.07070  0.12720  0.57550  Biso   1.000  F
  F127     1.0000 0.12720  0.57070  0.32550  Biso   1.000  F
  F128     1.0000 0.12720  0.42930  0.32550  Biso   1.000  F
  F129     1.0000 0.07070  0.87280  0.07550  Biso   1.000  F
  F130     1.0000 0.92930  0.87280  0.57550  Biso   1.000  F
  F131     1.0000 0.87280  0.42930  0.32550  Biso   1.000  F
  F132     1.0000 0.87280  0.57070  0.32550  Biso   1.000  F
  F133     1.0000 0.42930  0.62720  0.57550  Biso   1.000  F
  F134     1.0000 0.57070  0.62720  0.07550  Biso   1.000  F
  F135     1.0000 0.62720  0.07070  0.32550  Biso   1.000  F
  F136     1.0000 0.62720  0.92930  0.32550  Biso   1.000  F
  F137     1.0000 0.57070  0.37280  0.57550  Biso   1.000  F
  F138     1.0000 0.42930  0.37280  0.07550  Biso   1.000  F
  F139     1.0000 0.37280  0.92930  0.32550  Biso   1.000  F
  F140     1.0000 0.37280  0.07070  0.32550  Biso   1.000  F
  F141     1.0000 0.15410  0.04240  0.89760  Biso   1.000  F
  F142     1.0000 0.84590  0.04240  0.39760  Biso   1.000  F
  F143     1.0000 0.04240  0.34590  0.14760  Biso   1.000  F
  F144     1.0000 0.04240  0.65410  0.14760  Biso   1.000  F
  F145     1.0000 0.84590  0.95760  0.89760  Biso   1.000  F
  F146     1.0000 0.15410  0.95760  0.39760  Biso   1.000  F
  F147     1.0000 0.95760  0.65410  0.14760  Biso   1.000  F
  F148     1.0000 0.95760  0.34590  0.14760  Biso   1.000  F
  F149     1.0000 0.65410  0.54240  0.39760  Biso   1.000  F
  F150     1.0000 0.34590  0.54240  0.89760  Biso   1.000  F
  F151     1.0000 0.54240  0.84590  0.14760  Biso   1.000  F
  F152     1.0000 0.54240  0.15410  0.14760  Biso   1.000  F
  F153     1.0000 0.34590  0.45760  0.39760  Biso   1.000  F
  F154     1.0000 0.65410  0.45760  0.89760  Biso   1.000  F
  F155     1.0000 0.45760  0.15410  0.14760  Biso   1.000  F
  F156     1.0000 0.45760  0.84590  0.14760  Biso   1.000  F
  F157     1.0000 0.17960  0.99630  0.97910  Biso   1.000  F
  F158     1.0000 0.82040  0.99630  0.47910  Biso   1.000  F
  F159     1.0000 0.99630  0.32040  0.22910  Biso   1.000  F
  F160     1.0000 0.99630  0.67960  0.22910  Biso   1.000  F
  F161     1.0000 0.82040  0.00370  0.97910  Biso   1.000  F
  F162     1.0000 0.17960  0.00370  0.47910  Biso   1.000  F
  F163     1.0000 0.00370  0.67960  0.22910  Biso   1.000  F
  F164     1.0000 0.00370  0.32040  0.22910  Biso   1.000  F
  F165     1.0000 0.67960  0.49630  0.47910  Biso   1.000  F
  F166     1.0000 0.32040  0.49630  0.97910  Biso   1.000  F
  F167     1.0000 0.49630  0.82040  0.22910  Biso   1.000  F
  F168     1.0000 0.49630  0.17960  0.22910  Biso   1.000  F
  F169     1.0000 0.32040  0.50370  0.47910  Biso   1.000  F
  F170     1.0000 0.67960  0.50370  0.97910  Biso   1.000  F
  F171     1.0000 0.50370  0.17960  0.22910  Biso   1.000  F
  F172     1.0000 0.50370  0.82040  0.22910  Biso   1.000  F
  F173     1.0000 0.07780  0.99050  0.95270  Biso   1.000  F
  F174     1.0000 0.92220  0.99050  0.45270  Biso   1.000  F
  F175     1.0000 0.99050  0.42220  0.20270  Biso   1.000  F
  F176     1.0000 0.99050  0.57780  0.20270  Biso   1.000  F
  F177     1.0000 0.92220  0.00950  0.95270  Biso   1.000  F
  F178     1.0000 0.07780  0.00950  0.45270  Biso   1.000  F
  F179     1.0000 0.00950  0.57780  0.20270  Biso   1.000  F
  F180     1.0000 0.00950  0.42220  0.20270  Biso   1.000  F
  F181     1.0000 0.57780  0.49050  0.45270  Biso   1.000  F
  F182     1.0000 0.42220  0.49050  0.95270  Biso   1.000  F
  F183     1.0000 0.49050  0.92220  0.20270  Biso   1.000  F
  F184     1.0000 0.49050  0.07780  0.20270  Biso   1.000  F
  F185     1.0000 0.42220  0.50950  0.45270  Biso   1.000  F
  F186     1.0000 0.57780  0.50950  0.95270  Biso   1.000  F
  F187     1.0000 0.50950  0.07780  0.20270  Biso   1.000  F
  F188     1.0000 0.50950  0.92220  0.20270  Biso   1.000  F
  N33      1.0000 0.75440  0.23000  0.58380  Biso   1.000  N
  N34      1.0000 0.23000  0.74560  0.33380  Biso   1.000  N
  N35      1.0000 0.24560  0.77000  0.58380  Biso   1.000  N
  N36      1.0000 0.77000  0.25440  0.33380  Biso   1.000  N
  N37      1.0000 0.74560  0.73000  0.58380  Biso   1.000  N
  N38      1.0000 0.73000  0.75440  0.33380  Biso   1.000  N
  N39      1.0000 0.25440  0.27000  0.58380  Biso   1.000  N
  N40      1.0000 0.27000  0.24560  0.33380  Biso   1.000  N
  Cu17     1.0000 0.24911  0.16527  0.75128  Biso   1.000  Cu
  Cu18     1.0000 0.16527  0.74911  0.00128  Biso   1.000  Cu
  Cu19     1.0000 0.75089  0.83473  0.75128  Biso   1.000  Cu
  Cu20     1.0000 0.83473  0.25089  0.00128  Biso   1.000  Cu
  Cu21     1.0000 0.25089  0.66527  0.75128  Biso   1.000  Cu
  Cu22     1.0000 0.66527  0.75089  0.00128  Biso   1.000  Cu
  Cu23     1.0000 0.74911  0.33473  0.75128  Biso   1.000  Cu
  Cu24     1.0000 0.33473  0.24911  0.00128  Biso   1.000  Cu
