data_image0
_cell_length_a       12.023
_cell_length_b       11.92
_cell_length_c       15.065
_cell_angle_alpha    90
_cell_angle_beta     102.42
_cell_angle_gamma    90

_symmetry_space_group_name_H-M    "P 1"
_symmetry_int_tables_number       1

loop_
  _symmetry_equiv_pos_as_xyz
  'x, y, z'

loop_
  _atom_site_label
  _atom_site_occupancy
  _atom_site_fract_x
  _atom_site_fract_y
  _atom_site_fract_z
  _atom_site_thermal_displace_type
  _atom_site_B_iso_or_equiv
  _atom_site_type_symbol
  Cu1      1.0000 0.00000  0.00000  0.00000  Biso   1.000  Cu
  Cu2      1.0000 0.50000  0.50000  0.50000  Biso   1.000  Cu
  Cu3      1.0000 0.00000  0.50000  0.00000  Biso   1.000  Cu
  Cu4      1.0000 0.50000  0.00000  0.50000  Biso   1.000  Cu
  O1       1.0000 0.88630  0.09490  0.04625  Biso   1.000  O
  O2       1.0000 0.38630  0.40510  0.54625  Biso   1.000  O
  O3       1.0000 0.11370  0.90510  0.95375  Biso   1.000  O
  O4       1.0000 0.61370  0.59490  0.45375  Biso   1.000  O
  O5       1.0000 0.05700  0.93800  0.13912  Biso   1.000  O
  O6       1.0000 0.55700  0.56200  0.63912  Biso   1.000  O
  O7       1.0000 0.94300  0.06200  0.86088  Biso   1.000  O
  O8       1.0000 0.44300  0.43800  0.36088  Biso   1.000  O
  O9       1.0000 0.13540  0.57980  0.06508  Biso   1.000  O
  O10      1.0000 0.63540  0.92020  0.56508  Biso   1.000  O
  O11      1.0000 0.86460  0.42020  0.93492  Biso   1.000  O
  O12      1.0000 0.36460  0.07980  0.43492  Biso   1.000  O
  O13      1.0000 0.96940  0.43850  0.11364  Biso   1.000  O
  O14      1.0000 0.46940  0.06150  0.61364  Biso   1.000  O
  O15      1.0000 0.03060  0.56150  0.88636  Biso   1.000  O
  O16      1.0000 0.53060  0.93850  0.38636  Biso   1.000  O
  N1       1.0000 0.10650  0.13540  0.01374  Biso   1.000  N
  N2       1.0000 0.60650  0.36460  0.51374  Biso   1.000  N
  N3       1.0000 0.89350  0.86460  0.98626  Biso   1.000  N
  N4       1.0000 0.39350  0.63540  0.48626  Biso   1.000  N
  N5       1.0000 0.11220  0.33280  0.98680  Biso   1.000  N
  N6       1.0000 0.61220  0.16720  0.48680  Biso   1.000  N
  N7       1.0000 0.88780  0.66720  0.01320  Biso   1.000  N
  N8       1.0000 0.38780  0.83280  0.51320  Biso   1.000  N
  C1       1.0000 0.85530  0.08180  0.12110  Biso   1.000  C
  C2       1.0000 0.35530  0.41820  0.62110  Biso   1.000  C
  C3       1.0000 0.14470  0.91820  0.87890  Biso   1.000  C
  C4       1.0000 0.64470  0.58180  0.37890  Biso   1.000  C
  C5       1.0000 0.89750  0.01010  0.19200  Biso   1.000  C
  C6       1.0000 0.39750  0.48990  0.69200  Biso   1.000  C
  C7       1.0000 0.10250  0.98990  0.80800  Biso   1.000  C
  C8       1.0000 0.60250  0.51010  0.30800  Biso   1.000  C
  C9       1.0000 0.99230  0.94060  0.19370  Biso   1.000  C
  C10      1.0000 0.49230  0.55940  0.69370  Biso   1.000  C
  C11      1.0000 0.00770  0.05940  0.80630  Biso   1.000  C
  C12      1.0000 0.50770  0.44060  0.30630  Biso   1.000  C
  C13      1.0000 0.75250  0.15480  0.12710  Biso   1.000  C
  C14      1.0000 0.25250  0.34520  0.62710  Biso   1.000  C
  C15      1.0000 0.24750  0.84520  0.87290  Biso   1.000  C
  C16      1.0000 0.74750  0.65480  0.37290  Biso   1.000  C
  C17      1.0000 0.02110  0.85290  0.26890  Biso   1.000  C
  C18      1.0000 0.52110  0.64710  0.76890  Biso   1.000  C
  C19      1.0000 0.97890  0.14710  0.73110  Biso   1.000  C
  C20      1.0000 0.47890  0.35290  0.23110  Biso   1.000  C
  C21      1.0000 0.17160  0.57850  0.15010  Biso   1.000  C
  C22      1.0000 0.67160  0.92150  0.65010  Biso   1.000  C
  C23      1.0000 0.82840  0.42150  0.84990  Biso   1.000  C
  C24      1.0000 0.32840  0.07850  0.34990  Biso   1.000  C
  C25      1.0000 0.12680  0.52250  0.21490  Biso   1.000  C
  C26      1.0000 0.62680  0.97750  0.71490  Biso   1.000  C
  C27      1.0000 0.87320  0.47750  0.78510  Biso   1.000  C
  C28      1.0000 0.37320  0.02250  0.28510  Biso   1.000  C
  C29      1.0000 0.02840  0.45810  0.19170  Biso   1.000  C
  C30      1.0000 0.52840  0.04190  0.69170  Biso   1.000  C
  C31      1.0000 0.97160  0.54190  0.80830  Biso   1.000  C
  C32      1.0000 0.47160  0.95810  0.30830  Biso   1.000  C
  C33      1.0000 0.27880  0.65020  0.18060  Biso   1.000  C
  C34      1.0000 0.77880  0.84980  0.68060  Biso   1.000  C
  C35      1.0000 0.72120  0.34980  0.81940  Biso   1.000  C
  C36      1.0000 0.22120  0.15020  0.31940  Biso   1.000  C
  C37      1.0000 0.98050  0.40320  0.26770  Biso   1.000  C
  C38      1.0000 0.48050  0.09680  0.76770  Biso   1.000  C
  C39      1.0000 0.01950  0.59680  0.73230  Biso   1.000  C
  C40      1.0000 0.51950  0.90320  0.23230  Biso   1.000  C
  C41      1.0000 0.06100  0.24060  0.00300  Biso   1.000  C
  C42      1.0000 0.56100  0.25940  0.50300  Biso   1.000  C
  C43      1.0000 0.93900  0.75940  0.99700  Biso   1.000  C
  C44      1.0000 0.43900  0.74060  0.49700  Biso   1.000  C
  C45      1.0000 0.21610  0.12670  0.01310  Biso   1.000  C
  C46      1.0000 0.71610  0.37330  0.51310  Biso   1.000  C
  C47      1.0000 0.78390  0.87330  0.98690  Biso   1.000  C
  C48      1.0000 0.28390  0.62670  0.48690  Biso   1.000  C
  C49      1.0000 0.28000  0.21790  0.99500  Biso   1.000  C
  C50      1.0000 0.78000  0.28210  0.49500  Biso   1.000  C
  C51      1.0000 0.72000  0.78210  0.00500  Biso   1.000  C
  C52      1.0000 0.22000  0.71790  0.50500  Biso   1.000  C
  C53      1.0000 0.39640  0.20780  0.98760  Biso   1.000  C
  C54      1.0000 0.89640  0.29220  0.48760  Biso   1.000  C
  C55      1.0000 0.60360  0.79220  0.01240  Biso   1.000  C
  C56      1.0000 0.10360  0.70780  0.51240  Biso   1.000  C
  C57      1.0000 0.44970  0.29790  0.96320  Biso   1.000  C
  C58      1.0000 0.94970  0.20210  0.46320  Biso   1.000  C
  C59      1.0000 0.55030  0.70210  0.03680  Biso   1.000  C
  C60      1.0000 0.05030  0.79790  0.53680  Biso   1.000  C
  C61      1.0000 0.39320  0.40210  0.94640  Biso   1.000  C
  C62      1.0000 0.89320  0.09790  0.44640  Biso   1.000  C
  C63      1.0000 0.60680  0.59790  0.05360  Biso   1.000  C
  C64      1.0000 0.10680  0.90210  0.55360  Biso   1.000  C
  C65      1.0000 0.28280  0.41560  0.95480  Biso   1.000  C
  C66      1.0000 0.78280  0.08440  0.45480  Biso   1.000  C
  C67      1.0000 0.71720  0.58440  0.04520  Biso   1.000  C
  C68      1.0000 0.21720  0.91560  0.54520  Biso   1.000  C
  C69      1.0000 0.22580  0.32350  0.97950  Biso   1.000  C
  C70      1.0000 0.72580  0.17650  0.47950  Biso   1.000  C
  C71      1.0000 0.77420  0.67650  0.02050  Biso   1.000  C
  C72      1.0000 0.27420  0.82350  0.52050  Biso   1.000  C
  F1       1.0000 0.65815  0.10960  0.07497  Biso   1.000  F
  F2       1.0000 0.15815  0.39040  0.57497  Biso   1.000  F
  F3       1.0000 0.34185  0.89040  0.92503  Biso   1.000  F
  F4       1.0000 0.84185  0.60960  0.42503  Biso   1.000  F
  F5       1.0000 0.73400  0.16350  0.21069  Biso   1.000  F
  F6       1.0000 0.23400  0.33650  0.71069  Biso   1.000  F
  F7       1.0000 0.26600  0.83650  0.78931  Biso   1.000  F
  F8       1.0000 0.76600  0.66350  0.28931  Biso   1.000  F
  F9       1.0000 0.76230  0.25792  0.09613  Biso   1.000  F
  F10      1.0000 0.26230  0.24208  0.59613  Biso   1.000  F
  F11      1.0000 0.23770  0.74208  0.90387  Biso   1.000  F
  F12      1.0000 0.73770  0.75792  0.40387  Biso   1.000  F
  F13      1.0000 0.96460  0.86660  0.33494  Biso   1.000  F
  F14      1.0000 0.46460  0.63340  0.83494  Biso   1.000  F
  F15      1.0000 0.03540  0.13340  0.66506  Biso   1.000  F
  F16      1.0000 0.53540  0.36660  0.16506  Biso   1.000  F
  F17      1.0000 0.99520  0.75110  0.23493  Biso   1.000  F
  F18      1.0000 0.49520  0.74890  0.73493  Biso   1.000  F
  F19      1.0000 0.00480  0.24890  0.76507  Biso   1.000  F
  F20      1.0000 0.50480  0.25110  0.26507  Biso   1.000  F
  F21      1.0000 0.13130  0.85240  0.30790  Biso   1.000  F
  F22      1.0000 0.63130  0.64760  0.80790  Biso   1.000  F
  F23      1.0000 0.86870  0.14760  0.69210  Biso   1.000  F
  F24      1.0000 0.36870  0.35240  0.19210  Biso   1.000  F
  F25      1.0000 0.36645  0.60250  0.15218  Biso   1.000  F
  F26      1.0000 0.86645  0.89750  0.65218  Biso   1.000  F
  F27      1.0000 0.63355  0.39750  0.84782  Biso   1.000  F
  F28      1.0000 0.13355  0.10250  0.34782  Biso   1.000  F
  F29      1.0000 0.31109  0.66080  0.27025  Biso   1.000  F
  F30      1.0000 0.81109  0.83920  0.77025  Biso   1.000  F
  F31      1.0000 0.68891  0.33920  0.72975  Biso   1.000  F
  F32      1.0000 0.18891  0.16080  0.22975  Biso   1.000  F
  F33      1.0000 0.26520  0.75166  0.14478  Biso   1.000  F
  F34      1.0000 0.76520  0.74834  0.64478  Biso   1.000  F
  F35      1.0000 0.73480  0.24834  0.85522  Biso   1.000  F
  F36      1.0000 0.23480  0.25166  0.35522  Biso   1.000  F
  F37      1.0000 0.04000  0.42800  0.35088  Biso   1.000  F
  F38      1.0000 0.54000  0.07200  0.85088  Biso   1.000  F
  F39      1.0000 0.96000  0.57200  0.64912  Biso   1.000  F
  F40      1.0000 0.46000  0.92800  0.14912  Biso   1.000  F
  F41      1.0000 0.87345  0.43550  0.26282  Biso   1.000  F
  F42      1.0000 0.37345  0.06450  0.76282  Biso   1.000  F
  F43      1.0000 0.12655  0.56450  0.73718  Biso   1.000  F
  F44      1.0000 0.62655  0.93550  0.23718  Biso   1.000  F
  F45      1.0000 0.98015  0.29210  0.25943  Biso   1.000  F
  F46      1.0000 0.48015  0.20790  0.75943  Biso   1.000  F
  F47      1.0000 0.01985  0.70790  0.74057  Biso   1.000  F
  F48      1.0000 0.51985  0.79210  0.24057  Biso   1.000  F
  H1       1.0000 0.86300  0.01000  0.24100  Biso   1.000  H
  H2       1.0000 0.36300  0.49000  0.74100  Biso   1.000  H
  H3       1.0000 0.13700  0.99000  0.75900  Biso   1.000  H
  H4       1.0000 0.63700  0.51000  0.25900  Biso   1.000  H
  H5       1.0000 0.16400  0.52800  0.27300  Biso   1.000  H
  H6       1.0000 0.66400  0.97200  0.77300  Biso   1.000  H
  H7       1.0000 0.83600  0.47200  0.72700  Biso   1.000  H
  H8       1.0000 0.33600  0.02800  0.22700  Biso   1.000  H
  H9       1.0000 0.97900  0.24800  0.00900  Biso   1.000  H
  H10      1.0000 0.47900  0.25200  0.50900  Biso   1.000  H
  H11      1.0000 0.02100  0.75200  0.99100  Biso   1.000  H
  H12      1.0000 0.52100  0.74800  0.49100  Biso   1.000  H
  H13      1.0000 0.25400  0.05000  0.02300  Biso   1.000  H
  H14      1.0000 0.75400  0.45000  0.52300  Biso   1.000  H
  H15      1.0000 0.74600  0.95000  0.97700  Biso   1.000  H
  H16      1.0000 0.24600  0.55000  0.47700  Biso   1.000  H
  H17      1.0000 0.42700  0.13800  0.00200  Biso   1.000  H
  H18      1.0000 0.92700  0.36200  0.50200  Biso   1.000  H
  H19      1.0000 0.57300  0.86200  0.99800  Biso   1.000  H
  H20      1.0000 0.07300  0.63800  0.49800  Biso   1.000  H
  H21      1.0000 0.52800  0.28900  0.95900  Biso   1.000  H
  H22      1.0000 0.02800  0.21100  0.45900  Biso   1.000  H
  H23      1.0000 0.47200  0.71100  0.04100  Biso   1.000  H
  H24      1.0000 0.97200  0.78900  0.54100  Biso   1.000  H
  H25      1.0000 0.43100  0.46900  0.92900  Biso   1.000  H
  H26      1.0000 0.93100  0.03100  0.42900  Biso   1.000  H
  H27      1.0000 0.56900  0.53100  0.07100  Biso   1.000  H
  H28      1.0000 0.06900  0.96900  0.57100  Biso   1.000  H
  H29      1.0000 0.24000  0.48500  0.94600  Biso   1.000  H
  H30      1.0000 0.74000  0.01500  0.44600  Biso   1.000  H
  H31      1.0000 0.76000  0.51500  0.05400  Biso   1.000  H
  H32      1.0000 0.26000  0.98500  0.55400  Biso   1.000  H
