data_image0
_cell_length_a       12.3
_cell_length_b       12.1233
_cell_length_c       15.1545
_cell_angle_alpha    90
_cell_angle_beta     102.464
_cell_angle_gamma    90

_symmetry_space_group_name_H-M    "P 1"
_symmetry_int_tables_number       1

loop_
  _symmetry_equiv_pos_as_xyz
  'x, y, z'

loop_
  _atom_site_label
  _atom_site_occupancy
  _atom_site_fract_x
  _atom_site_fract_y
  _atom_site_fract_z
  _atom_site_thermal_displace_type
  _atom_site_B_iso_or_equiv
  _atom_site_type_symbol
  Cu1      1.0000 0.00000  0.00000  0.00000  Biso   1.000  Cu
  Cu2      1.0000 0.50000  0.50000  0.50000  Biso   1.000  Cu
  Cu3      1.0000 0.00000  0.50000  0.00000  Biso   1.000  Cu
  Cu4      1.0000 0.50000  0.00000  0.50000  Biso   1.000  Cu
  O1       1.0000 0.88530  0.09260  0.04080  Biso   1.000  O
  O2       1.0000 0.38530  0.40740  0.54080  Biso   1.000  O
  O3       1.0000 0.11470  0.90740  0.95920  Biso   1.000  O
  O4       1.0000 0.61470  0.59260  0.45920  Biso   1.000  O
  O5       1.0000 0.04490  0.93630  0.12950  Biso   1.000  O
  O6       1.0000 0.54490  0.56370  0.62950  Biso   1.000  O
  O7       1.0000 0.95510  0.06370  0.87050  Biso   1.000  O
  O8       1.0000 0.45510  0.43630  0.37050  Biso   1.000  O
  O9       1.0000 0.13050  0.58350  0.06322  Biso   1.000  O
  O10      1.0000 0.63050  0.91650  0.56322  Biso   1.000  O
  O11      1.0000 0.86950  0.41650  0.93678  Biso   1.000  O
  O12      1.0000 0.36950  0.08350  0.43678  Biso   1.000  O
  O13      1.0000 0.97110  0.44430  0.11449  Biso   1.000  O
  O14      1.0000 0.47110  0.05570  0.61449  Biso   1.000  O
  O15      1.0000 0.02890  0.55570  0.88551  Biso   1.000  O
  O16      1.0000 0.52890  0.94430  0.38551  Biso   1.000  O
  N1       1.0000 0.11250  0.14130  0.02210  Biso   1.000  N
  N2       1.0000 0.61250  0.35870  0.52210  Biso   1.000  N
  N3       1.0000 0.88750  0.85870  0.97790  Biso   1.000  N
  N4       1.0000 0.38750  0.64130  0.47790  Biso   1.000  N
  N5       1.0000 0.11470  0.33490  0.99330  Biso   1.000  N
  N6       1.0000 0.61470  0.16510  0.49330  Biso   1.000  N
  N7       1.0000 0.88530  0.66510  0.00670  Biso   1.000  N
  N8       1.0000 0.38530  0.83490  0.50670  Biso   1.000  N
  C1       1.0000 0.85370  0.08310  0.11330  Biso   1.000  C
  C2       1.0000 0.35370  0.41690  0.61330  Biso   1.000  C
  C3       1.0000 0.14630  0.91690  0.88670  Biso   1.000  C
  C4       1.0000 0.64630  0.58310  0.38670  Biso   1.000  C
  C5       1.0000 0.89450  0.01290  0.18480  Biso   1.000  C
  C6       1.0000 0.39450  0.48710  0.68480  Biso   1.000  C
  C7       1.0000 0.10550  0.98710  0.81520  Biso   1.000  C
  C8       1.0000 0.60550  0.51290  0.31520  Biso   1.000  C
  C9       1.0000 0.98550  0.94350  0.18590  Biso   1.000  C
  C10      1.0000 0.48550  0.55650  0.68590  Biso   1.000  C
  C11      1.0000 0.01450  0.05650  0.81410  Biso   1.000  C
  C12      1.0000 0.51450  0.44350  0.31410  Biso   1.000  C
  C13      1.0000 0.75500  0.15580  0.11900  Biso   1.000  C
  C14      1.0000 0.25500  0.34420  0.61900  Biso   1.000  C
  C15      1.0000 0.24500  0.84420  0.88100  Biso   1.000  C
  C16      1.0000 0.74500  0.65580  0.38100  Biso   1.000  C
  C17      1.0000 0.01590  0.86110  0.26400  Biso   1.000  C
  C18      1.0000 0.51590  0.63890  0.76400  Biso   1.000  C
  C19      1.0000 0.98410  0.13890  0.73600  Biso   1.000  C
  C20      1.0000 0.48410  0.36110  0.23600  Biso   1.000  C
  C21      1.0000 0.16710  0.58340  0.14650  Biso   1.000  C
  C22      1.0000 0.66710  0.91660  0.64650  Biso   1.000  C
  C23      1.0000 0.83290  0.41660  0.85350  Biso   1.000  C
  C24      1.0000 0.33290  0.08340  0.35350  Biso   1.000  C
  C25      1.0000 0.12540  0.52960  0.21170  Biso   1.000  C
  C26      1.0000 0.62540  0.97040  0.71170  Biso   1.000  C
  C27      1.0000 0.87460  0.47040  0.78830  Biso   1.000  C
  C28      1.0000 0.37460  0.02960  0.28830  Biso   1.000  C
  C29      1.0000 0.02970  0.46620  0.19090  Biso   1.000  C
  C30      1.0000 0.52970  0.03380  0.69090  Biso   1.000  C
  C31      1.0000 0.97030  0.53380  0.80910  Biso   1.000  C
  C32      1.0000 0.47030  0.96620  0.30910  Biso   1.000  C
  C33      1.0000 0.27020  0.65450  0.17490  Biso   1.000  C
  C34      1.0000 0.77020  0.84550  0.67490  Biso   1.000  C
  C35      1.0000 0.72980  0.34550  0.82510  Biso   1.000  C
  C36      1.0000 0.22980  0.15450  0.32510  Biso   1.000  C
  C37      1.0000 0.98470  0.41140  0.26800  Biso   1.000  C
  C38      1.0000 0.48470  0.08860  0.76800  Biso   1.000  C
  C39      1.0000 0.01530  0.58860  0.73200  Biso   1.000  C
  C40      1.0000 0.51530  0.91140  0.23200  Biso   1.000  C
  C41      1.0000 0.06760  0.24440  0.01100  Biso   1.000  C
  C42      1.0000 0.56760  0.25560  0.51100  Biso   1.000  C
  C43      1.0000 0.93240  0.75560  0.98900  Biso   1.000  C
  C44      1.0000 0.43240  0.74440  0.48900  Biso   1.000  C
  C45      1.0000 0.21810  0.13300  0.01780  Biso   1.000  C
  C46      1.0000 0.71810  0.36700  0.51780  Biso   1.000  C
  C47      1.0000 0.78190  0.86700  0.98220  Biso   1.000  C
  C48      1.0000 0.28190  0.63300  0.48220  Biso   1.000  C
  C49      1.0000 0.27820  0.22230  0.99880  Biso   1.000  C
  C50      1.0000 0.77820  0.27770  0.49880  Biso   1.000  C
  C51      1.0000 0.72180  0.77770  0.00120  Biso   1.000  C
  C52      1.0000 0.22180  0.72230  0.50120  Biso   1.000  C
  C53      1.0000 0.39110  0.21250  0.98880  Biso   1.000  C
  C54      1.0000 0.89110  0.28750  0.48880  Biso   1.000  C
  C55      1.0000 0.60890  0.78750  0.01120  Biso   1.000  C
  C56      1.0000 0.10890  0.71250  0.51120  Biso   1.000  C
  C57      1.0000 0.44190  0.29960  0.96450  Biso   1.000  C
  C58      1.0000 0.94190  0.20040  0.46450  Biso   1.000  C
  C59      1.0000 0.55810  0.70040  0.03550  Biso   1.000  C
  C60      1.0000 0.05810  0.79960  0.53550  Biso   1.000  C
  C61      1.0000 0.38620  0.40170  0.94770  Biso   1.000  C
  C62      1.0000 0.88620  0.09830  0.44770  Biso   1.000  C
  C63      1.0000 0.61380  0.59830  0.05230  Biso   1.000  C
  C64      1.0000 0.11380  0.90170  0.55230  Biso   1.000  C
  C65      1.0000 0.27810  0.41730  0.95730  Biso   1.000  C
  C66      1.0000 0.77810  0.08270  0.45730  Biso   1.000  C
  C67      1.0000 0.72190  0.58270  0.04270  Biso   1.000  C
  C68      1.0000 0.22190  0.91730  0.54270  Biso   1.000  C
  C69      1.0000 0.22500  0.32510  0.98320  Biso   1.000  C
  C70      1.0000 0.72500  0.17490  0.48320  Biso   1.000  C
  C71      1.0000 0.77500  0.67490  0.01680  Biso   1.000  C
  C72      1.0000 0.27500  0.82510  0.51680  Biso   1.000  C
  F1       1.0000 0.66390  0.11420  0.06840  Biso   1.000  F
  F2       1.0000 0.16390  0.38580  0.56840  Biso   1.000  F
  F3       1.0000 0.33610  0.88580  0.93160  Biso   1.000  F
  F4       1.0000 0.83610  0.61420  0.43160  Biso   1.000  F
  F5       1.0000 0.73650  0.16470  0.20080  Biso   1.000  F
  F6       1.0000 0.23650  0.33530  0.70080  Biso   1.000  F
  F7       1.0000 0.26350  0.83530  0.79920  Biso   1.000  F
  F8       1.0000 0.76350  0.66470  0.29920  Biso   1.000  F
  F9       1.0000 0.76750  0.25640  0.08980  Biso   1.000  F
  F10      1.0000 0.26750  0.24360  0.58980  Biso   1.000  F
  F11      1.0000 0.23250  0.74360  0.91020  Biso   1.000  F
  F12      1.0000 0.73250  0.75640  0.41020  Biso   1.000  F
  F13      1.0000 0.96450  0.87690  0.32860  Biso   1.000  F
  F14      1.0000 0.46450  0.62310  0.82860  Biso   1.000  F
  F15      1.0000 0.03550  0.12310  0.67140  Biso   1.000  F
  F16      1.0000 0.53550  0.37690  0.17140  Biso   1.000  F
  F17      1.0000 0.99380  0.76150  0.23570  Biso   1.000  F
  F18      1.0000 0.49380  0.73850  0.73570  Biso   1.000  F
  F19      1.0000 0.00620  0.23850  0.76430  Biso   1.000  F
  F20      1.0000 0.50620  0.26150  0.26430  Biso   1.000  F
  F21      1.0000 0.12340  0.86260  0.29920  Biso   1.000  F
  F22      1.0000 0.62340  0.63740  0.79920  Biso   1.000  F
  F23      1.0000 0.87660  0.13740  0.70080  Biso   1.000  F
  F24      1.0000 0.37660  0.36260  0.20080  Biso   1.000  F
  F25      1.0000 0.35320  0.61590  0.14310  Biso   1.000  F
  F26      1.0000 0.85320  0.88410  0.64310  Biso   1.000  F
  F27      1.0000 0.64680  0.38410  0.85690  Biso   1.000  F
  F28      1.0000 0.14680  0.11590  0.35690  Biso   1.000  F
  F29      1.0000 0.30790  0.66180  0.26220  Biso   1.000  F
  F30      1.0000 0.80790  0.83820  0.76220  Biso   1.000  F
  F31      1.0000 0.69210  0.33820  0.73780  Biso   1.000  F
  F32      1.0000 0.19210  0.16180  0.23780  Biso   1.000  F
  F33      1.0000 0.25420  0.75450  0.14360  Biso   1.000  F
  F34      1.0000 0.75420  0.74550  0.64360  Biso   1.000  F
  F35      1.0000 0.74580  0.24550  0.85640  Biso   1.000  F
  F36      1.0000 0.24580  0.25450  0.35640  Biso   1.000  F
  F37      1.0000 0.04370  0.43450  0.34830  Biso   1.000  F
  F38      1.0000 0.54370  0.06550  0.84830  Biso   1.000  F
  F39      1.0000 0.95630  0.56550  0.65170  Biso   1.000  F
  F40      1.0000 0.45630  0.93450  0.15170  Biso   1.000  F
  F41      1.0000 0.88150  0.43820  0.26370  Biso   1.000  F
  F42      1.0000 0.38150  0.06180  0.76370  Biso   1.000  F
  F43      1.0000 0.11850  0.56180  0.73630  Biso   1.000  F
  F44      1.0000 0.61850  0.93820  0.23630  Biso   1.000  F
  F45      1.0000 0.98590  0.30310  0.26060  Biso   1.000  F
  F46      1.0000 0.48590  0.19690  0.76060  Biso   1.000  F
  F47      1.0000 0.01410  0.69690  0.73940  Biso   1.000  F
  F48      1.0000 0.51410  0.80310  0.23940  Biso   1.000  F
  H1       1.0000 0.86800  0.01400  0.23300  Biso   1.000  H
  H2       1.0000 0.36800  0.48600  0.73300  Biso   1.000  H
  H3       1.0000 0.13200  0.98600  0.76700  Biso   1.000  H
  H4       1.0000 0.63200  0.51400  0.26700  Biso   1.000  H
  H5       1.0000 0.15600  0.53600  0.26500  Biso   1.000  H
  H6       1.0000 0.65600  0.96400  0.76500  Biso   1.000  H
  H7       1.0000 0.84400  0.46400  0.73500  Biso   1.000  H
  H8       1.0000 0.34400  0.03600  0.23500  Biso   1.000  H
  H9       1.0000 0.99600  0.24900  0.02100  Biso   1.000  H
  H10      1.0000 0.49600  0.25100  0.52100  Biso   1.000  H
  H11      1.0000 0.00400  0.75100  0.97900  Biso   1.000  H
  H12      1.0000 0.50400  0.74900  0.47900  Biso   1.000  H
  H13      1.0000 0.26300  0.06300  0.02400  Biso   1.000  H
  H14      1.0000 0.76300  0.43700  0.52400  Biso   1.000  H
  H15      1.0000 0.73700  0.93700  0.97600  Biso   1.000  H
  H16      1.0000 0.23700  0.56300  0.47600  Biso   1.000  H
  H17      1.0000 0.42100  0.13900  0.00300  Biso   1.000  H
  H18      1.0000 0.92100  0.36100  0.50300  Biso   1.000  H
  H19      1.0000 0.57900  0.86100  0.99700  Biso   1.000  H
  H20      1.0000 0.07900  0.63900  0.49700  Biso   1.000  H
  H21      1.0000 0.52200  0.29500  0.96100  Biso   1.000  H
  H22      1.0000 0.02200  0.20500  0.46100  Biso   1.000  H
  H23      1.0000 0.47800  0.70500  0.03900  Biso   1.000  H
  H24      1.0000 0.97800  0.79500  0.53900  Biso   1.000  H
  H25      1.0000 0.40700  0.47100  0.93300  Biso   1.000  H
  H26      1.0000 0.90700  0.02900  0.43300  Biso   1.000  H
  H27      1.0000 0.59300  0.52900  0.06700  Biso   1.000  H
  H28      1.0000 0.09300  0.97100  0.56700  Biso   1.000  H
  H29      1.0000 0.23100  0.48600  0.94900  Biso   1.000  H
  H30      1.0000 0.73100  0.01400  0.44900  Biso   1.000  H
  H31      1.0000 0.76900  0.51400  0.05100  Biso   1.000  H
  H32      1.0000 0.26900  0.98600  0.55100  Biso   1.000  H
