data_image0
_cell_length_a       9.2122
_cell_length_b       10.061
_cell_length_c       19.077
_cell_angle_alpha    97.466
_cell_angle_beta     100.634
_cell_angle_gamma    99.365

_symmetry_space_group_name_H-M    "P 1"
_symmetry_int_tables_number       1

loop_
  _symmetry_equiv_pos_as_xyz
  'x, y, z'

loop_
  _atom_site_label
  _atom_site_occupancy
  _atom_site_fract_x
  _atom_site_fract_y
  _atom_site_fract_z
  _atom_site_thermal_displace_type
  _atom_site_B_iso_or_equiv
  _atom_site_type_symbol
  Cu1      1.0000 0.74150  0.49318  0.72479  Biso   1.000  Cu
  Cu2      1.0000 0.90510  0.82885  0.27269  Biso   1.000  Cu
  N1       1.0000 0.66630  0.61640  0.65840  Biso   1.000  N
  H1       1.0000 0.71980  0.70420  0.67370  Biso   1.000  H
  H2       1.0000 0.67750  0.58740  0.61230  Biso   1.000  H
  O1       1.0000 0.52750  0.40890  0.71120  Biso   1.000  O
  N2       1.0000 0.97810  0.77070  0.36670  Biso   1.000  N
  H3       1.0000 0.98360  0.83920  0.40450  Biso   1.000  H
  H4       1.0000 0.91430  0.69420  0.37220  Biso   1.000  H
  O2       1.0000 0.06830  0.75810  0.24130  Biso   1.000  O
  C1       1.0000 0.50650  0.61230  0.65910  Biso   1.000  C
  H5       1.0000 0.50560  0.68080  0.70190  Biso   1.000  H
  C2       1.0000 0.40400  0.65260  0.59440  Biso   1.000  C
  H6       1.0000 0.45270  0.74050  0.58340  Biso   1.000  H
  H7       1.0000 0.30670  0.66390  0.60670  Biso   1.000  H
  S1       1.0000 0.37450  0.52190  0.51790  Biso   1.000  S
  C3       1.0000 0.13670  0.73910  0.36420  Biso   1.000  C
  H8       1.0000 0.20980  0.82410  0.38930  Biso   1.000  H
  C4       1.0000 0.17090  0.62680  0.40970  Biso   1.000  C
  H9       1.0000 0.11720  0.53670  0.38190  Biso   1.000  H
  H10      1.0000 0.13160  0.64190  0.45440  Biso   1.000  H
  S2       1.0000 0.36300  0.62390  0.43310  Biso   1.000  S
  C5       1.0000 0.43900  0.47690  0.67580  Biso   1.000  C
  O3       1.0000 0.29670  0.43530  0.66070  Biso   1.000  O
  C6       1.0000 0.16180  0.71580  0.28970  Biso   1.000  C
  O4       1.0000 0.26910  0.66650  0.28000  Biso   1.000  O
  N3       1.0000 0.95580  0.57990  0.75070  Biso   1.000  N
  C7       1.0000 0.02710  0.67610  0.71580  Biso   1.000  C
  H11      1.0000 0.97060  0.70810  0.67680  Biso   1.000  H
  C8       1.0000 0.18100  0.72550  0.73810  Biso   1.000  C
  H12      1.0000 0.22970  0.79120  0.71420  Biso   1.000  H
  C9       1.0000 0.26370  0.67870  0.79520  Biso   1.000  C
  H13      1.0000 0.36890  0.71240  0.81030  Biso   1.000  H
  C10      1.0000 0.19240  0.58250  0.83000  Biso   1.000  C
  H14      1.0000 0.24890  0.55050  0.86900  Biso   1.000  H
  C11      1.0000 0.03840  0.53310  0.80780  Biso   1.000  C
  N4       1.0000 0.80200  0.40130  0.80860  Biso   1.000  N
  C12      1.0000 0.70450  0.31050  0.83560  Biso   1.000  C
  H15      1.0000 0.60070  0.28730  0.81310  Biso   1.000  H
  C13      1.0000 0.75880  0.25360  0.89540  Biso   1.000  C
  H16      1.0000 0.69220  0.19150  0.91380  Biso   1.000  H
  C14      1.0000 0.91070  0.28750  0.92820  Biso   1.000  C
  H17      1.0000 0.94780  0.24860  0.96910  Biso   1.000  H
  C15      1.0000 0.00820  0.37830  0.90130  Biso   1.000  C
  H18      1.0000 0.11200  0.40150  0.92370  Biso   1.000  H
  C16      1.0000 0.95390  0.43520  0.84150  Biso   1.000  C
  N5       1.0000 0.72550  0.89740  0.29420  Biso   1.000  N
  C17      1.0000 0.66070  0.88240  0.35370  Biso   1.000  C
  H19      1.0000 0.70930  0.84390  0.39230  Biso   1.000  H
  C18      1.0000 0.52490  0.92370  0.35670  Biso   1.000  C
  H20      1.0000 0.48060  0.91350  0.39740  Biso   1.000  H
  C19      1.0000 0.45380  0.98010  0.30020  Biso   1.000  C
  H21      1.0000 0.36090  0.00830  0.30220  Biso   1.000  H
  C20      1.0000 0.51850  0.99510  0.24070  Biso   1.000  C
  H22      1.0000 0.46990  0.03360  0.20200  Biso   1.000  H
  C21      1.0000 0.65440  0.95380  0.23770  Biso   1.000  C
  N6       1.0000 0.86100  0.91540  0.18660  Biso   1.000  N
  C22      1.0000 0.94830  0.92730  0.13480  Biso   1.000  C
  H23      1.0000 0.04120  0.89620  0.14080  Biso   1.000  H
  C23      1.0000 0.89990  0.98480  0.07440  Biso   1.000  C
  H24      1.0000 0.95970  0.99300  0.03900  Biso   1.000  H
  C24      1.0000 0.76410  0.03040  0.06570  Biso   1.000  C
  H25      1.0000 0.73100  0.06970  0.02440  Biso   1.000  H
  C25      1.0000 0.67670  0.01840  0.11750  Biso   1.000  C
  H26      1.0000 0.58390  0.04950  0.11160  Biso   1.000  H
  C26      1.0000 0.72510  0.96090  0.17800  Biso   1.000  C
  Cu3      1.0000 0.16500  0.22130  0.63820  Biso   1.000  Cu
  Cu4      1.0000 0.30630  0.54816  0.17042  Biso   1.000  Cu
  N7       1.0000 0.07460  0.26230  0.54380  Biso   1.000  N
  H27      1.0000 0.14800  0.31330  0.52630  Biso   1.000  H
  H28      1.0000 0.03910  0.18160  0.51190  Biso   1.000  H
  O5       1.0000 0.98760  0.27600  0.66660  Biso   1.000  O
  N8       1.0000 0.36440  0.42280  0.23670  Biso   1.000  N
  H29      1.0000 0.29220  0.40430  0.26340  Biso   1.000  H
  H30      1.0000 0.37350  0.34180  0.21090  Biso   1.000  H
  O6       1.0000 0.51820  0.61180  0.18700  Biso   1.000  O
  C27      1.0000 0.95540  0.33400  0.54620  Biso   1.000  C
  H31      1.0000 0.99670  0.43280  0.54740  Biso   1.000  H
  C28      1.0000 0.82600  0.28600  0.47820  Biso   1.000  C
  H32      1.0000 0.77410  0.19230  0.47800  Biso   1.000  H
  H33      1.0000 0.86730  0.28780  0.43370  Biso   1.000  H
  S3       1.0000 0.69690  0.40460  0.48200  Biso   1.000  S
  C29      1.0000 0.50520  0.48660  0.28360  Biso   1.000  C
  H34      1.0000 0.48660  0.55010  0.32440  Biso   1.000  H
  C30      1.0000 0.60100  0.38800  0.31450  Biso   1.000  C
  H35      1.0000 0.66020  0.35460  0.27980  Biso   1.000  H
  H36      1.0000 0.53810  0.30910  0.32710  Biso   1.000  H
  S4       1.0000 0.72590  0.49640  0.39620  Biso   1.000  S
  C31      1.0000 0.91200  0.31950  0.62030  Biso   1.000  C
  O7       1.0000 0.79120  0.36020  0.63040  Biso   1.000  O
  C32      1.0000 0.59900  0.57360  0.23590  Biso   1.000  C
  H37      1.0000 0.60740  0.48970  0.20370  Biso   1.000  H
  O8       1.0000 0.73580  0.60510  0.25840  Biso   1.000  O
  N9       1.0000 0.33310  0.13740  0.61200  Biso   1.000  N
  C33      1.0000 0.37960  0.14100  0.54680  Biso   1.000  C
  H38      1.0000 0.32130  0.17340  0.50860  Biso   1.000  H
  C34      1.0000 0.51130  0.09690  0.53770  Biso   1.000  C
  H39      1.0000 0.54310  0.09940  0.49320  Biso   1.000  H
  C35      1.0000 0.59650  0.04940  0.59370  Biso   1.000  C
  H40      1.0000 0.68660  0.01930  0.58750  Biso   1.000  H
  C36      1.0000 0.55000  0.04590  0.65890  Biso   1.000  C
  H41      1.0000 0.60830  0.01340  0.69710  Biso   1.000  H
  C37      1.0000 0.41830  0.08990  0.66800  Biso   1.000  C
  N10      1.0000 0.22310  0.15120  0.72640  Biso   1.000  N
  C38      1.0000 0.15140  0.15140  0.78450  Biso   1.000  C
  H42      1.0000 0.06320  0.18940  0.78320  Biso   1.000  H
  C39      1.0000 0.20880  0.09620  0.84430  Biso   1.000  C
  H43      1.0000 0.15990  0.09630  0.88400  Biso   1.000  H
  C40      1.0000 0.33790  0.04060  0.84620  Biso   1.000  C
  H44      1.0000 0.37710  0.00290  0.88710  Biso   1.000  H
  C41      1.0000 0.40950  0.04040  0.78810  Biso   1.000  C
  H45      1.0000 0.49770  0.00240  0.78930  Biso   1.000  H
  C42      1.0000 0.35210  0.09570  0.72820  Biso   1.000  C
  N11      1.0000 0.08700  0.48560  0.13970  Biso   1.000  N
  C43      1.0000 0.00040  0.39470  0.17170  Biso   1.000  C
  H46      1.0000 0.04790  0.34570  0.20560  Biso   1.000  H
  C44      1.0000 0.84430  0.37550  0.15400  Biso   1.000  C
  H47      1.0000 0.78520  0.31330  0.17580  Biso   1.000  H
  C45      1.0000 0.77480  0.44710  0.10430  Biso   1.000  C
  H48      1.0000 0.66820  0.43400  0.09220  Biso   1.000  H
  C46      1.0000 0.86140  0.53810  0.07230  Biso   1.000  C
  H49      1.0000 0.81390  0.58710  0.03840  Biso   1.000  H
  C47      1.0000 0.01750  0.55730  0.09000  Biso   1.000  C
  N12      1.0000 0.26650  0.65400  0.09330  Biso   1.000  N
  C48      1.0000 0.37630  0.73730  0.06920  Biso   1.000  C
  H50      1.0000 0.47960  0.74530  0.09080  Biso   1.000  H
  C49      1.0000 0.33520  0.80870  0.01340  Biso   1.000  C
  H51      1.0000 0.41020  0.86560  0.99690  Biso   1.000  H
  C50      1.0000 0.18420  0.79690  0.98170  Biso   1.000  C
  H52      1.0000 0.15600  0.84570  0.94350  Biso   1.000  H
  C51      1.0000 0.07430  0.71360  0.00580  Biso   1.000  C
  H53      1.0000 0.97110  0.70560  0.98410  Biso   1.000  H
  C52      1.0000 0.11550  0.64220  0.06160  Biso   1.000  C
  Cl1      1.0000 0.10430  0.18010  0.33730  Biso   1.000  Cl
  O9       1.0000 0.09100  0.06280  0.36470  Biso   1.000  O
  O10      1.0000 0.19100  0.28190  0.39060  Biso   1.000  O
  O11      1.0000 0.95700  0.20000  0.31230  Biso   1.000  O
  O12      1.0000 0.17400  0.17580  0.27970  Biso   1.000  O
  Cl2      1.0000 0.33940  0.21420  0.05280  Biso   1.000  Cl
  O13      1.0000 0.38300  0.18900  0.12330  Biso   1.000  O
  O14      1.0000 0.44840  0.17540  0.01140  Biso   1.000  O
  O15      1.0000 0.20200  0.14200  0.01930  Biso   1.000  O
  O16      1.0000 0.32700  0.34950  0.05210  Biso   1.000  O
  Cl3      1.0000 0.94840  0.86420  0.55820  Biso   1.000  Cl
  O17      1.0000 0.04200  0.76700  0.55470  Biso   1.000  O
  O18      1.0000 0.99200  0.95620  0.62510  Biso   1.000  O
  O19      1.0000 0.95400  0.93500  0.49920  Biso   1.000  O
  O20      1.0000 0.79840  0.79800  0.55030  Biso   1.000  O
  Cl4      1.0000 0.74150  0.83760  0.85310  Biso   1.000  Cl
  O21      1.0000 0.71900  0.87800  0.78200  Biso   1.000  O
  O22      1.0000 0.62430  0.88960  0.88850  Biso   1.000  O
  O23      1.0000 0.87570  0.89280  0.89850  Biso   1.000  O
  O24      1.0000 0.68100  0.68740  0.82740  Biso   1.000  O
  O25      1.0000 0.44900  0.49900  0.95470  Biso   1.000  O
  Cl5      1.0000 0.71870  0.79450  0.88690  Biso   1.000  Cl
  O26      1.0000 0.70200  0.71500  0.94480  Biso   1.000  O
  O27      1.0000 0.80100  0.90600  0.72840  Biso   1.000  O
  H54      1.0000 0.70740  0.43690  0.32750  Biso   1.000  H
  H55      1.0000 0.59460  0.31140  0.27510  Biso   1.000  H
  O28      1.0000 0.87600  0.72400  0.53990  Biso   1.000  O
  O29      1.0000 0.88000  0.94200  0.50970  Biso   1.000  O
  O30      1.0000 0.10300  0.87000  0.56400  Biso   1.000  O
  O31      1.0000 0.90800  0.89400  0.62760  Biso   1.000  O
  O32      1.0000 0.49200  0.44700  0.92400  Biso   1.000  O
  S5       1.0000 0.56050  0.31800  0.38960  Biso   1.000  S
