data_image0
_cell_length_a       10.566
_cell_length_b       15.364
_cell_length_c       19.755
_cell_angle_alpha    90
_cell_angle_beta     90
_cell_angle_gamma    90

_symmetry_space_group_name_H-M    "P 1"
_symmetry_int_tables_number       1

loop_
  _symmetry_equiv_pos_as_xyz
  'x, y, z'

loop_
  _atom_site_label
  _atom_site_occupancy
  _atom_site_fract_x
  _atom_site_fract_y
  _atom_site_fract_z
  _atom_site_thermal_displace_type
  _atom_site_B_iso_or_equiv
  _atom_site_type_symbol
  Co1      1.0000 0.50000  0.87535  0.75000  Biso   1.000  Co
  Co2      1.0000 0.50000  0.12465  0.25000  Biso   1.000  Co
  Co3      1.0000 0.00000  0.37535  0.75000  Biso   1.000  Co
  Co4      1.0000 0.00000  0.62465  0.25000  Biso   1.000  Co
  Cu1      1.0000 0.50919  0.00000  0.50000  Biso   1.000  Cu
  Cu2      1.0000 0.49081  0.00000  0.00000  Biso   1.000  Cu
  Cu3      1.0000 0.00919  0.50000  0.50000  Biso   1.000  Cu
  Cu4      1.0000 0.99081  0.50000  0.00000  Biso   1.000  Cu
  C1       1.0000 0.44020  0.96830  0.63148  Biso   1.000  C
  C2       1.0000 0.55980  0.03170  0.13148  Biso   1.000  C
  C3       1.0000 0.55980  0.96830  0.86852  Biso   1.000  C
  C4       1.0000 0.44020  0.03170  0.36852  Biso   1.000  C
  C5       1.0000 0.94020  0.46830  0.63148  Biso   1.000  C
  C6       1.0000 0.05980  0.53170  0.13148  Biso   1.000  C
  C7       1.0000 0.05980  0.46830  0.86852  Biso   1.000  C
  C8       1.0000 0.94020  0.53170  0.36852  Biso   1.000  C
  C9       1.0000 0.57680  0.93519  0.62109  Biso   1.000  C
  C10      1.0000 0.42320  0.06481  0.12109  Biso   1.000  C
  C11      1.0000 0.42320  0.93519  0.87891  Biso   1.000  C
  C12      1.0000 0.57680  0.06481  0.37891  Biso   1.000  C
  C13      1.0000 0.07680  0.43519  0.62109  Biso   1.000  C
  C14      1.0000 0.92320  0.56481  0.12109  Biso   1.000  C
  C15      1.0000 0.92320  0.43519  0.87891  Biso   1.000  C
  C16      1.0000 0.07680  0.56481  0.37891  Biso   1.000  C
  N1       1.0000 0.38990  0.99941  0.57544  Biso   1.000  N
  N2       1.0000 0.61010  0.00059  0.07544  Biso   1.000  N
  N3       1.0000 0.61010  0.99941  0.92456  Biso   1.000  N
  N4       1.0000 0.38990  0.00059  0.42456  Biso   1.000  N
  N5       1.0000 0.88990  0.49941  0.57544  Biso   1.000  N
  N6       1.0000 0.11010  0.50059  0.07544  Biso   1.000  N
  N7       1.0000 0.11010  0.49941  0.92456  Biso   1.000  N
  N8       1.0000 0.88990  0.50059  0.42456  Biso   1.000  N
  O1       1.0000 0.63130  0.95402  0.56557  Biso   1.000  O
  O2       1.0000 0.36870  0.04598  0.06557  Biso   1.000  O
  O3       1.0000 0.36870  0.95402  0.93443  Biso   1.000  O
  O4       1.0000 0.63130  0.04598  0.43443  Biso   1.000  O
  O5       1.0000 0.13130  0.45402  0.56557  Biso   1.000  O
  O6       1.0000 0.86870  0.54598  0.06557  Biso   1.000  O
  O7       1.0000 0.86870  0.45402  0.93443  Biso   1.000  O
  O8       1.0000 0.13130  0.54598  0.43443  Biso   1.000  O
  O9       1.0000 0.62530  0.89344  0.66870  Biso   1.000  O
  O10      1.0000 0.37470  0.10656  0.16870  Biso   1.000  O
  O11      1.0000 0.37470  0.89344  0.83130  Biso   1.000  O
  O12      1.0000 0.62530  0.10656  0.33130  Biso   1.000  O
  O13      1.0000 0.12530  0.39344  0.66870  Biso   1.000  O
  O14      1.0000 0.87470  0.60656  0.16870  Biso   1.000  O
  O15      1.0000 0.87470  0.39344  0.83130  Biso   1.000  O
  O16      1.0000 0.12530  0.60656  0.33130  Biso   1.000  O
  O17      1.0000 0.39240  0.96203  0.68961  Biso   1.000  O
  O18      1.0000 0.60760  0.03797  0.18961  Biso   1.000  O
  O19      1.0000 0.60760  0.96203  0.81039  Biso   1.000  O
  O20      1.0000 0.39240  0.03797  0.31039  Biso   1.000  O
  O21      1.0000 0.89240  0.46203  0.68961  Biso   1.000  O
  O22      1.0000 0.10760  0.53797  0.18961  Biso   1.000  O
  O23      1.0000 0.10760  0.46203  0.81039  Biso   1.000  O
  O24      1.0000 0.89240  0.53797  0.31039  Biso   1.000  O
  C17      1.0000 0.27770  0.05002  0.57456  Biso   1.000  C
  C18      1.0000 0.72230  0.94998  0.07456  Biso   1.000  C
  C19      1.0000 0.72230  0.05002  0.92544  Biso   1.000  C
  C20      1.0000 0.27770  0.94998  0.42544  Biso   1.000  C
  C21      1.0000 0.77770  0.55002  0.57456  Biso   1.000  C
  C22      1.0000 0.22230  0.44998  0.07456  Biso   1.000  C
  C23      1.0000 0.22230  0.55002  0.92544  Biso   1.000  C
  C24      1.0000 0.77770  0.44998  0.42544  Biso   1.000  C
  C25      1.0000 0.18980  0.03915  0.52295  Biso   1.000  C
  C26      1.0000 0.81020  0.96085  0.02295  Biso   1.000  C
  C27      1.0000 0.81020  0.03915  0.97705  Biso   1.000  C
  C28      1.0000 0.18980  0.96085  0.47705  Biso   1.000  C
  C29      1.0000 0.68980  0.53915  0.52295  Biso   1.000  C
  C30      1.0000 0.31020  0.46085  0.02295  Biso   1.000  C
  C31      1.0000 0.31020  0.53915  0.97705  Biso   1.000  C
  C32      1.0000 0.68980  0.46085  0.47705  Biso   1.000  C
  C33      1.0000 0.09010  0.10235  0.51494  Biso   1.000  C
  C34      1.0000 0.90990  0.89765  0.01494  Biso   1.000  C
  C35      1.0000 0.90990  0.10235  0.98506  Biso   1.000  C
  C36      1.0000 0.09010  0.89765  0.48506  Biso   1.000  C
  C37      1.0000 0.59010  0.60235  0.51494  Biso   1.000  C
  C38      1.0000 0.40990  0.39765  0.01494  Biso   1.000  C
  C39      1.0000 0.40990  0.60235  0.98506  Biso   1.000  C
  C40      1.0000 0.59010  0.39765  0.48506  Biso   1.000  C
  C41      1.0000 0.99950  0.09710  0.46214  Biso   1.000  C
  C42      1.0000 0.00050  0.90290  0.96214  Biso   1.000  C
  C43      1.0000 0.00050  0.09710  0.03786  Biso   1.000  C
  C44      1.0000 0.99950  0.90290  0.53786  Biso   1.000  C
  C45      1.0000 0.49950  0.59710  0.46214  Biso   1.000  C
  C46      1.0000 0.50050  0.40290  0.96214  Biso   1.000  C
  C47      1.0000 0.50050  0.59710  0.03786  Biso   1.000  C
  C48      1.0000 0.49950  0.40290  0.53786  Biso   1.000  C
  H1       1.0000 0.00340  0.05110  0.43160  Biso   1.000  H
  H2       1.0000 0.99660  0.94890  0.93160  Biso   1.000  H
  H3       1.0000 0.99660  0.05110  0.06840  Biso   1.000  H
  H4       1.0000 0.00340  0.94890  0.56840  Biso   1.000  H
  H5       1.0000 0.50340  0.55110  0.43160  Biso   1.000  H
  H6       1.0000 0.49660  0.44890  0.93160  Biso   1.000  H
  H7       1.0000 0.49660  0.55110  0.06840  Biso   1.000  H
  H8       1.0000 0.50340  0.44890  0.56840  Biso   1.000  H
  C49      1.0000 0.90600  0.15870  0.45540  Biso   1.000  C
  C50      1.0000 0.09400  0.84130  0.95540  Biso   1.000  C
  C51      1.0000 0.09400  0.15870  0.04460  Biso   1.000  C
  C52      1.0000 0.90600  0.84130  0.54460  Biso   1.000  C
  C53      1.0000 0.40600  0.65870  0.45540  Biso   1.000  C
  C54      1.0000 0.59400  0.34130  0.95540  Biso   1.000  C
  C55      1.0000 0.59400  0.65870  0.04460  Biso   1.000  C
  C56      1.0000 0.40600  0.34130  0.54460  Biso   1.000  C
  H9       1.0000 0.84560  0.15280  0.42150  Biso   1.000  H
  H10      1.0000 0.15440  0.84720  0.92150  Biso   1.000  H
  H11      1.0000 0.15440  0.15280  0.07850  Biso   1.000  H
  H12      1.0000 0.84560  0.84720  0.57850  Biso   1.000  H
  H13      1.0000 0.34560  0.65280  0.42150  Biso   1.000  H
  H14      1.0000 0.65440  0.34720  0.92150  Biso   1.000  H
  H15      1.0000 0.65440  0.65280  0.07850  Biso   1.000  H
  H16      1.0000 0.34560  0.34720  0.57850  Biso   1.000  H
  C57      1.0000 0.90090  0.23090  0.49950  Biso   1.000  C
  C58      1.0000 0.09910  0.76910  0.99950  Biso   1.000  C
  C59      1.0000 0.09910  0.23090  0.00050  Biso   1.000  C
  C60      1.0000 0.90090  0.76910  0.50050  Biso   1.000  C
  C61      1.0000 0.40090  0.73090  0.49950  Biso   1.000  C
  C62      1.0000 0.59910  0.26910  0.99950  Biso   1.000  C
  C63      1.0000 0.59910  0.73090  0.00050  Biso   1.000  C
  C64      1.0000 0.40090  0.26910  0.50050  Biso   1.000  C
  H17      1.0000 0.83970  0.27370  0.49360  Biso   1.000  H
  H18      1.0000 0.16030  0.72630  0.99360  Biso   1.000  H
  H19      1.0000 0.16030  0.27370  0.00640  Biso   1.000  H
  H20      1.0000 0.83970  0.72630  0.50640  Biso   1.000  H
  H21      1.0000 0.33970  0.77370  0.49360  Biso   1.000  H
  H22      1.0000 0.66030  0.22630  0.99360  Biso   1.000  H
  H23      1.0000 0.66030  0.77370  0.00640  Biso   1.000  H
  H24      1.0000 0.33970  0.22630  0.50640  Biso   1.000  H
  C65      1.0000 0.98750  0.23740  0.55136  Biso   1.000  C
  C66      1.0000 0.01250  0.76260  0.05136  Biso   1.000  C
  C67      1.0000 0.01250  0.23740  0.94864  Biso   1.000  C
  C68      1.0000 0.98750  0.76260  0.44864  Biso   1.000  C
  C69      1.0000 0.48750  0.73740  0.55136  Biso   1.000  C
  C70      1.0000 0.51250  0.26260  0.05136  Biso   1.000  C
  C71      1.0000 0.51250  0.73740  0.94864  Biso   1.000  C
  C72      1.0000 0.48750  0.26260  0.44864  Biso   1.000  C
  H25      1.0000 0.98370  0.28480  0.58050  Biso   1.000  H
  H26      1.0000 0.01630  0.71520  0.08050  Biso   1.000  H
  H27      1.0000 0.01630  0.28480  0.91950  Biso   1.000  H
  H28      1.0000 0.98370  0.71520  0.41950  Biso   1.000  H
  H29      1.0000 0.48370  0.78480  0.58050  Biso   1.000  H
  H30      1.0000 0.51630  0.21520  0.08050  Biso   1.000  H
  H31      1.0000 0.51630  0.78480  0.91950  Biso   1.000  H
  H32      1.0000 0.48370  0.21520  0.41950  Biso   1.000  H
  C73      1.0000 0.08220  0.17350  0.56125  Biso   1.000  C
  C74      1.0000 0.91780  0.82650  0.06125  Biso   1.000  C
  C75      1.0000 0.91780  0.17350  0.93875  Biso   1.000  C
  C76      1.0000 0.08220  0.82650  0.43875  Biso   1.000  C
  C77      1.0000 0.58220  0.67350  0.56125  Biso   1.000  C
  C78      1.0000 0.41780  0.32650  0.06125  Biso   1.000  C
  C79      1.0000 0.41780  0.67350  0.93875  Biso   1.000  C
  C80      1.0000 0.58220  0.32650  0.43875  Biso   1.000  C
  C81      1.0000 0.26470  0.11940  0.62189  Biso   1.000  C
  C82      1.0000 0.73530  0.88060  0.12189  Biso   1.000  C
  C83      1.0000 0.73530  0.11940  0.87811  Biso   1.000  C
  C84      1.0000 0.26470  0.88060  0.37811  Biso   1.000  C
  C85      1.0000 0.76470  0.61940  0.62189  Biso   1.000  C
  C86      1.0000 0.23530  0.38060  0.12189  Biso   1.000  C
  C87      1.0000 0.23530  0.61940  0.87811  Biso   1.000  C
  C88      1.0000 0.76470  0.38060  0.37811  Biso   1.000  C
  H33      1.0000 0.32220  0.12450  0.65730  Biso   1.000  H
  H34      1.0000 0.67780  0.87550  0.15730  Biso   1.000  H
  H35      1.0000 0.67780  0.12450  0.84270  Biso   1.000  H
  H36      1.0000 0.32220  0.87550  0.34270  Biso   1.000  H
  H37      1.0000 0.82220  0.62450  0.65730  Biso   1.000  H
  H38      1.0000 0.17780  0.37550  0.15730  Biso   1.000  H
  H39      1.0000 0.17780  0.62450  0.84270  Biso   1.000  H
  H40      1.0000 0.82220  0.37550  0.34270  Biso   1.000  H
  O25      1.0000 0.38910  0.77387  0.71189  Biso   1.000  O
  O26      1.0000 0.61090  0.22613  0.21189  Biso   1.000  O
  O27      1.0000 0.61090  0.77387  0.78811  Biso   1.000  O
  O28      1.0000 0.38910  0.22613  0.28811  Biso   1.000  O
  O29      1.0000 0.88910  0.27387  0.71189  Biso   1.000  O
  O30      1.0000 0.11090  0.72613  0.21189  Biso   1.000  O
  O31      1.0000 0.11090  0.27387  0.78811  Biso   1.000  O
  O32      1.0000 0.88910  0.72613  0.28811  Biso   1.000  O
  C89      1.0000 0.16850  0.17850  0.61592  Biso   1.000  C
  C90      1.0000 0.83150  0.82150  0.11592  Biso   1.000  C
  C91      1.0000 0.83150  0.17850  0.88408  Biso   1.000  C
  C92      1.0000 0.16850  0.82150  0.38408  Biso   1.000  C
  C93      1.0000 0.66850  0.67850  0.61592  Biso   1.000  C
  C94      1.0000 0.33150  0.32150  0.11592  Biso   1.000  C
  C95      1.0000 0.33150  0.67850  0.88408  Biso   1.000  C
  C96      1.0000 0.66850  0.32150  0.38408  Biso   1.000  C
  H41      1.0000 0.15980  0.22230  0.64800  Biso   1.000  H
  H42      1.0000 0.84020  0.77770  0.14800  Biso   1.000  H
  H43      1.0000 0.84020  0.22230  0.85200  Biso   1.000  H
  H44      1.0000 0.15980  0.77770  0.35200  Biso   1.000  H
  H45      1.0000 0.65980  0.72230  0.64800  Biso   1.000  H
  H46      1.0000 0.34020  0.27770  0.14800  Biso   1.000  H
  H47      1.0000 0.34020  0.72230  0.85200  Biso   1.000  H
  H48      1.0000 0.65980  0.27770  0.35200  Biso   1.000  H
  N9       1.0000 0.24560  0.69210  0.65550  Biso   1.000  N
  N10      1.0000 0.75440  0.30790  0.15550  Biso   1.000  N
  N11      1.0000 0.75440  0.69210  0.84450  Biso   1.000  N
  N12      1.0000 0.24560  0.30790  0.34450  Biso   1.000  N
  N13      1.0000 0.74560  0.19210  0.65550  Biso   1.000  N
  N14      1.0000 0.25440  0.80790  0.15550  Biso   1.000  N
  N15      1.0000 0.25440  0.19210  0.84450  Biso   1.000  N
  N16      1.0000 0.74560  0.80790  0.34450  Biso   1.000  N
  C97      1.0000 0.29970  0.76700  0.67410  Biso   1.000  C
  C98      1.0000 0.70030  0.23300  0.17410  Biso   1.000  C
  C99      1.0000 0.70030  0.76700  0.82590  Biso   1.000  C
  C100     1.0000 0.29970  0.23300  0.32590  Biso   1.000  C
  C101     1.0000 0.79970  0.26700  0.67410  Biso   1.000  C
  C102     1.0000 0.20030  0.73300  0.17410  Biso   1.000  C
  C103     1.0000 0.20030  0.26700  0.82590  Biso   1.000  C
  C104     1.0000 0.79970  0.73300  0.32590  Biso   1.000  C
  H49      1.0000 0.26580  0.81810  0.65640  Biso   1.000  H
  H50      1.0000 0.73420  0.18190  0.15640  Biso   1.000  H
  H51      1.0000 0.73420  0.81810  0.84360  Biso   1.000  H
  H52      1.0000 0.26580  0.18190  0.34360  Biso   1.000  H
  H53      1.0000 0.76580  0.31810  0.65640  Biso   1.000  H
  H54      1.0000 0.23420  0.68190  0.15640  Biso   1.000  H
  H55      1.0000 0.23420  0.31810  0.84360  Biso   1.000  H
  H56      1.0000 0.76580  0.68190  0.34360  Biso   1.000  H
  C105     1.0000 0.14150  0.69210  0.60570  Biso   1.000  C
  C106     1.0000 0.85850  0.30790  0.10570  Biso   1.000  C
  C107     1.0000 0.85850  0.69210  0.89430  Biso   1.000  C
  C108     1.0000 0.14150  0.30790  0.39430  Biso   1.000  C
  C109     1.0000 0.64150  0.19210  0.60570  Biso   1.000  C
  C110     1.0000 0.35850  0.80790  0.10570  Biso   1.000  C
  C111     1.0000 0.35850  0.19210  0.89430  Biso   1.000  C
  C112     1.0000 0.64150  0.80790  0.39430  Biso   1.000  C
  H57      1.0000 0.11330  0.63350  0.59820  Biso   1.000  H
  H58      1.0000 0.88670  0.36650  0.09820  Biso   1.000  H
  H59      1.0000 0.88670  0.63350  0.90180  Biso   1.000  H
  H60      1.0000 0.11330  0.36650  0.40180  Biso   1.000  H
  H61      1.0000 0.61330  0.13350  0.59820  Biso   1.000  H
  H62      1.0000 0.38670  0.86650  0.09820  Biso   1.000  H
  H63      1.0000 0.38670  0.13350  0.90180  Biso   1.000  H
  H64      1.0000 0.61330  0.86650  0.40180  Biso   1.000  H
  H65      1.0000 0.17100  0.71640  0.56380  Biso   1.000  H
  H66      1.0000 0.82900  0.28360  0.06380  Biso   1.000  H
  H67      1.0000 0.82900  0.71640  0.93620  Biso   1.000  H
  H68      1.0000 0.17100  0.28360  0.43620  Biso   1.000  H
  H69      1.0000 0.67100  0.21640  0.56380  Biso   1.000  H
  H70      1.0000 0.32900  0.78360  0.06380  Biso   1.000  H
  H71      1.0000 0.32900  0.21640  0.93620  Biso   1.000  H
  H72      1.0000 0.67100  0.78360  0.43620  Biso   1.000  H
  H73      1.0000 0.07250  0.72640  0.62260  Biso   1.000  H
  H74      1.0000 0.92750  0.27360  0.12260  Biso   1.000  H
  H75      1.0000 0.92750  0.72640  0.87740  Biso   1.000  H
  H76      1.0000 0.07250  0.27360  0.37740  Biso   1.000  H
  H77      1.0000 0.57250  0.22640  0.62260  Biso   1.000  H
  H78      1.0000 0.42750  0.77360  0.12260  Biso   1.000  H
  H79      1.0000 0.42750  0.22640  0.87740  Biso   1.000  H
  H80      1.0000 0.57250  0.77360  0.37740  Biso   1.000  H
  C113     1.0000 0.28660  0.60990  0.68190  Biso   1.000  C
  C114     1.0000 0.71340  0.39010  0.18190  Biso   1.000  C
  C115     1.0000 0.71340  0.60990  0.81810  Biso   1.000  C
  C116     1.0000 0.28660  0.39010  0.31810  Biso   1.000  C
  C117     1.0000 0.78660  0.10990  0.68190  Biso   1.000  C
  C118     1.0000 0.21340  0.89010  0.18190  Biso   1.000  C
  C119     1.0000 0.21340  0.10990  0.81810  Biso   1.000  C
  C120     1.0000 0.78660  0.89010  0.31810  Biso   1.000  C
  H81      1.0000 0.23600  0.56420  0.66290  Biso   1.000  H
  H82      1.0000 0.76400  0.43580  0.16290  Biso   1.000  H
  H83      1.0000 0.76400  0.56420  0.83710  Biso   1.000  H
  H84      1.0000 0.23600  0.43580  0.33710  Biso   1.000  H
  H85      1.0000 0.73600  0.06420  0.66290  Biso   1.000  H
  H86      1.0000 0.26400  0.93580  0.16290  Biso   1.000  H
  H87      1.0000 0.26400  0.06420  0.83710  Biso   1.000  H
  H88      1.0000 0.73600  0.93580  0.33710  Biso   1.000  H
  H89      1.0000 0.27750  0.60980  0.73030  Biso   1.000  H
  H90      1.0000 0.72250  0.39020  0.23030  Biso   1.000  H
  H91      1.0000 0.72250  0.60980  0.76970  Biso   1.000  H
  H92      1.0000 0.27750  0.39020  0.26970  Biso   1.000  H
  H93      1.0000 0.77750  0.10980  0.73030  Biso   1.000  H
  H94      1.0000 0.22250  0.89020  0.23030  Biso   1.000  H
  H95      1.0000 0.22250  0.10980  0.76970  Biso   1.000  H
  H96      1.0000 0.77750  0.89020  0.26970  Biso   1.000  H
  H97      1.0000 0.37380  0.60070  0.67040  Biso   1.000  H
  H98      1.0000 0.62620  0.39930  0.17040  Biso   1.000  H
  H99      1.0000 0.62620  0.60070  0.82960  Biso   1.000  H
  H100     1.0000 0.37380  0.39930  0.32960  Biso   1.000  H
  H101     1.0000 0.87380  0.10070  0.67040  Biso   1.000  H
  H102     1.0000 0.12620  0.89930  0.17040  Biso   1.000  H
  H103     1.0000 0.12620  0.10070  0.82960  Biso   1.000  H
  H104     1.0000 0.87380  0.89930  0.32960  Biso   1.000  H
  N17      1.0000 0.00000  0.14630  0.25000  Biso   1.000  N
  N18      1.0000 0.00000  0.85370  0.75000  Biso   1.000  N
  N19      1.0000 0.50000  0.64630  0.25000  Biso   1.000  N
  N20      1.0000 0.50000  0.35370  0.75000  Biso   1.000  N
  O33      1.0000 0.00000  0.29600  0.25000  Biso   1.000  O
  O34      1.0000 0.00000  0.70400  0.75000  Biso   1.000  O
  O35      1.0000 0.50000  0.79600  0.25000  Biso   1.000  O
  O36      1.0000 0.50000  0.20400  0.75000  Biso   1.000  O
  C121     1.0000 0.93830  0.22300  0.27190  Biso   1.000  C
  C122     1.0000 0.06170  0.77700  0.77190  Biso   1.000  C
  C123     1.0000 0.06170  0.22300  0.22810  Biso   1.000  C
  C124     1.0000 0.93830  0.77700  0.72810  Biso   1.000  C
  C125     1.0000 0.43830  0.72300  0.27190  Biso   1.000  C
  C126     1.0000 0.56170  0.27700  0.77190  Biso   1.000  C
  C127     1.0000 0.56170  0.72300  0.22810  Biso   1.000  C
  C128     1.0000 0.43830  0.27700  0.72810  Biso   1.000  C
  H105     1.0000 0.86500  0.22370  0.29790  Biso   1.000  H
  H106     1.0000 0.13500  0.77630  0.79790  Biso   1.000  H
  H107     1.0000 0.13500  0.22370  0.20210  Biso   1.000  H
  H108     1.0000 0.86500  0.77630  0.70210  Biso   1.000  H
  H109     1.0000 0.36500  0.72370  0.29790  Biso   1.000  H
  H110     1.0000 0.63500  0.27630  0.79790  Biso   1.000  H
  H111     1.0000 0.63500  0.72370  0.20210  Biso   1.000  H
  H112     1.0000 0.36500  0.27630  0.70210  Biso   1.000  H
  C129     1.0000 0.11400  0.13930  0.22230  Biso   1.000  C
  C130     1.0000 0.88600  0.86070  0.72230  Biso   1.000  C
  C131     1.0000 0.88600  0.13930  0.27770  Biso   1.000  C
  C132     1.0000 0.11400  0.86070  0.77770  Biso   1.000  C
  C133     1.0000 0.61400  0.63930  0.22230  Biso   1.000  C
  C134     1.0000 0.38600  0.36070  0.72230  Biso   1.000  C
  C135     1.0000 0.38600  0.63930  0.27770  Biso   1.000  C
  C136     1.0000 0.61400  0.36070  0.77770  Biso   1.000  C
  H113     1.0000 0.14790  0.19640  0.21420  Biso   1.000  H
  H114     1.0000 0.85210  0.80360  0.71420  Biso   1.000  H
  H115     1.0000 0.85210  0.19640  0.28580  Biso   1.000  H
  H116     1.0000 0.14790  0.80360  0.78580  Biso   1.000  H
  H117     1.0000 0.64790  0.69640  0.21420  Biso   1.000  H
  H118     1.0000 0.35210  0.30360  0.71420  Biso   1.000  H
  H119     1.0000 0.35210  0.69640  0.28580  Biso   1.000  H
  H120     1.0000 0.64790  0.30360  0.78580  Biso   1.000  H
  H121     1.0000 0.10750  0.10850  0.18020  Biso   1.000  H
  H122     1.0000 0.89250  0.89150  0.68020  Biso   1.000  H
  H123     1.0000 0.89250  0.10850  0.31980  Biso   1.000  H
  H124     1.0000 0.10750  0.89150  0.81980  Biso   1.000  H
  H125     1.0000 0.60750  0.60850  0.18020  Biso   1.000  H
  H126     1.0000 0.39250  0.39150  0.68020  Biso   1.000  H
  H127     1.0000 0.39250  0.60850  0.31980  Biso   1.000  H
  H128     1.0000 0.60750  0.39150  0.81980  Biso   1.000  H
  H129     1.0000 0.16890  0.10810  0.25240  Biso   1.000  H
  H130     1.0000 0.83110  0.89190  0.75240  Biso   1.000  H
  H131     1.0000 0.83110  0.10810  0.24760  Biso   1.000  H
  H132     1.0000 0.16890  0.89190  0.74760  Biso   1.000  H
  H133     1.0000 0.66890  0.60810  0.25240  Biso   1.000  H
  H134     1.0000 0.33110  0.39190  0.75240  Biso   1.000  H
  H135     1.0000 0.33110  0.60810  0.24760  Biso   1.000  H
  H136     1.0000 0.66890  0.39190  0.74760  Biso   1.000  H
  C137     1.0000 0.92300  0.06600  0.26820  Biso   1.000  C
  C138     1.0000 0.07700  0.93400  0.76820  Biso   1.000  C
  C139     1.0000 0.07700  0.06600  0.23180  Biso   1.000  C
  C140     1.0000 0.92300  0.93400  0.73180  Biso   1.000  C
  C141     1.0000 0.42300  0.56600  0.26820  Biso   1.000  C
  C142     1.0000 0.57700  0.43400  0.76820  Biso   1.000  C
  C143     1.0000 0.57700  0.56600  0.23180  Biso   1.000  C
  C144     1.0000 0.42300  0.43400  0.73180  Biso   1.000  C
  H137     1.0000 0.84330  0.08350  0.28710  Biso   1.000  H
  H138     1.0000 0.15670  0.91650  0.78710  Biso   1.000  H
  H139     1.0000 0.15670  0.08350  0.21290  Biso   1.000  H
  H140     1.0000 0.84330  0.91650  0.71290  Biso   1.000  H
  H141     1.0000 0.34330  0.58350  0.28710  Biso   1.000  H
  H142     1.0000 0.65670  0.41650  0.78710  Biso   1.000  H
  H143     1.0000 0.65670  0.58350  0.21290  Biso   1.000  H
  H144     1.0000 0.34330  0.41650  0.71290  Biso   1.000  H
  H145     1.0000 0.96870  0.03180  0.30070  Biso   1.000  H
  H146     1.0000 0.03130  0.96820  0.80070  Biso   1.000  H
  H147     1.0000 0.03130  0.03180  0.19930  Biso   1.000  H
  H148     1.0000 0.96870  0.96820  0.69930  Biso   1.000  H
  H149     1.0000 0.46870  0.53180  0.30070  Biso   1.000  H
  H150     1.0000 0.53130  0.46820  0.80070  Biso   1.000  H
  H151     1.0000 0.53130  0.53180  0.19930  Biso   1.000  H
  H152     1.0000 0.46870  0.46820  0.69930  Biso   1.000  H
  H153     1.0000 0.90850  0.03190  0.22820  Biso   1.000  H
  H154     1.0000 0.09150  0.96810  0.72820  Biso   1.000  H
  H155     1.0000 0.09150  0.03190  0.27180  Biso   1.000  H
  H156     1.0000 0.90850  0.96810  0.77180  Biso   1.000  H
  H157     1.0000 0.40850  0.53190  0.22820  Biso   1.000  H
  H158     1.0000 0.59150  0.46810  0.72820  Biso   1.000  H
  H159     1.0000 0.59150  0.53190  0.27180  Biso   1.000  H
  H160     1.0000 0.40850  0.46810  0.77180  Biso   1.000  H
