data_image0
_cell_length_a       8.5396
_cell_length_b       8.8775
_cell_length_c       15.661
_cell_angle_alpha    77.24
_cell_angle_beta     83.36
_cell_angle_gamma    64.96

_symmetry_space_group_name_H-M    "P 1"
_symmetry_int_tables_number       1

loop_
  _symmetry_equiv_pos_as_xyz
  'x, y, z'

loop_
  _atom_site_label
  _atom_site_occupancy
  _atom_site_fract_x
  _atom_site_fract_y
  _atom_site_fract_z
  _atom_site_thermal_displace_type
  _atom_site_B_iso_or_equiv
  _atom_site_type_symbol
  Cu1      1.0000 0.63256  0.96282  0.55235  Biso   1.000  Cu
  Cu2      1.0000 0.36744  0.03718  0.44765  Biso   1.000  Cu
  Cu3      1.0000 0.98019  0.60341  0.92221  Biso   1.000  Cu
  Cu4      1.0000 0.01981  0.39659  0.07779  Biso   1.000  Cu
  C1       1.0000 0.87340  0.78740  0.72719  Biso   1.000  C
  C2       1.0000 0.12660  0.21260  0.27281  Biso   1.000  C
  C3       1.0000 0.93760  0.99890  0.64684  Biso   1.000  C
  C4       1.0000 0.06240  0.00110  0.35316  Biso   1.000  C
  C5       1.0000 0.08690  0.84310  0.76831  Biso   1.000  C
  C6       1.0000 0.91310  0.15690  0.23169  Biso   1.000  C
  C7       1.0000 0.55470  0.25240  0.41357  Biso   1.000  C
  C8       1.0000 0.44530  0.74760  0.58643  Biso   1.000  C
  C9       1.0000 0.57460  0.40530  0.35885  Biso   1.000  C
  C10      1.0000 0.42540  0.59470  0.64115  Biso   1.000  C
  H1       1.0000 0.60600  0.38470  0.29960  Biso   1.000  H
  H2       1.0000 0.39400  0.61530  0.70040  Biso   1.000  H
  H3       1.0000 0.46230  0.50010  0.35650  Biso   1.000  H
  H4       1.0000 0.53770  0.49990  0.64350  Biso   1.000  H
  C11      1.0000 0.70400  0.45900  0.38689  Biso   1.000  C
  C12      1.0000 0.29600  0.54100  0.61311  Biso   1.000  C
  H5       1.0000 0.66070  0.50640  0.43940  Biso   1.000  H
  H6       1.0000 0.33930  0.49360  0.56060  Biso   1.000  H
  H7       1.0000 0.81210  0.36060  0.40060  Biso   1.000  H
  H8       1.0000 0.18790  0.63940  0.59940  Biso   1.000  H
  C13      1.0000 0.73670  0.59040  0.31476  Biso   1.000  C
  C14      1.0000 0.26330  0.40960  0.68524  Biso   1.000  C
  H9       1.0000 0.62710  0.67260  0.28990  Biso   1.000  H
  H10      1.0000 0.37290  0.32740  0.71010  Biso   1.000  H
  H11      1.0000 0.80760  0.53430  0.26860  Biso   1.000  H
  H12      1.0000 0.19240  0.46570  0.73140  Biso   1.000  H
  C15      1.0000 0.70890  0.80600  0.40368  Biso   1.000  C
  C16      1.0000 0.29110  0.19400  0.59632  Biso   1.000  C
  C17      1.0000 0.82600  0.68310  0.34700  Biso   1.000  C
  C18      1.0000 0.17400  0.31690  0.65300  Biso   1.000  C
  H13      1.0000 0.86670  0.74440  0.29690  Biso   1.000  H
  H14      1.0000 0.13330  0.25560  0.70310  Biso   1.000  H
  H15      1.0000 0.92600  0.60070  0.38020  Biso   1.000  H
  H16      1.0000 0.07400  0.39930  0.61980  Biso   1.000  H
  C19      1.0000 0.94350  0.29190  0.93365  Biso   1.000  C
  C20      1.0000 0.05650  0.70810  0.06635  Biso   1.000  C
  C21      1.0000 0.90540  0.16990  0.89500  Biso   1.000  C
  C22      1.0000 0.09460  0.83010  0.10500  Biso   1.000  C
  H17      1.0000 0.88530  0.08860  0.94240  Biso   1.000  H
  H18      1.0000 0.11470  0.91140  0.05760  Biso   1.000  H
  H19      1.0000 0.00650  0.10790  0.86160  Biso   1.000  H
  H20      1.0000 0.99350  0.89210  0.13840  Biso   1.000  H
  C23      1.0000 0.75170  0.25290  0.83620  Biso   1.000  C
  C24      1.0000 0.24830  0.74710  0.16380  Biso   1.000  C
  H21      1.0000 0.77590  0.32820  0.78670  Biso   1.000  H
  H22      1.0000 0.22410  0.67180  0.21330  Biso   1.000  H
  H23      1.0000 0.73880  0.16560  0.81350  Biso   1.000  H
  H24      1.0000 0.26120  0.83440  0.18650  Biso   1.000  H
  C25      1.0000 0.32510  0.33990  0.97724  Biso   1.000  C
  C26      1.0000 0.67490  0.66010  0.02276  Biso   1.000  C
  C27      1.0000 0.51330  0.24780  0.95200  Biso   1.000  C
  C28      1.0000 0.48670  0.75220  0.04800  Biso   1.000  C
  H25      1.0000 0.52810  0.14560  0.93290  Biso   1.000  H
  H26      1.0000 0.47190  0.85440  0.06710  Biso   1.000  H
  H27      1.0000 0.58280  0.21390  0.00330  Biso   1.000  H
  H28      1.0000 0.41720  0.78610  0.99670  Biso   1.000  H
  C29      1.0000 0.58040  0.35370  0.87900  Biso   1.000  C
  C30      1.0000 0.41960  0.64630  0.12100  Biso   1.000  C
  H29      1.0000 0.49400  0.41220  0.83420  Biso   1.000  H
  H30      1.0000 0.50600  0.58780  0.16580  Biso   1.000  H
  H31      1.0000 0.59380  0.43910  0.90320  Biso   1.000  H
  H32      1.0000 0.40620  0.56090  0.09680  Biso   1.000  H
  O1       1.0000 0.65110  0.16400  0.47617  Biso   1.000  O
  O2       1.0000 0.34890  0.83600  0.52383  Biso   1.000  O
  O3       1.0000 0.55050  0.02220  0.18090  Biso   1.000  O
  O4       1.0000 0.44950  0.97780  0.81910  Biso   1.000  O
  H33      1.0000 0.46700  0.08400  0.15500  Biso   1.000  H
  H34      1.0000 0.53300  0.91600  0.84500  Biso   1.000  H
  H35      1.0000 0.52500  0.98900  0.22900  Biso   1.000  H
  H36      1.0000 0.47500  0.01100  0.77100  Biso   1.000  H
  O5       1.0000 0.77140  0.81840  0.46903  Biso   1.000  O
  O6       1.0000 0.22860  0.18160  0.53097  Biso   1.000  O
  O7       1.0000 0.43570  0.22250  0.39184  Biso   1.000  O
  O8       1.0000 0.56430  0.77750  0.60816  Biso   1.000  O
  O9       1.0000 0.55310  0.88670  0.38173  Biso   1.000  O
  O10      1.0000 0.44690  0.11330  0.61827  Biso   1.000  O
  O11      1.0000 0.94010  0.42600  0.88394  Biso   1.000  O
  O12      1.0000 0.05990  0.57400  0.11606  Biso   1.000  O
  O13      1.0000 0.27110  0.28490  0.05049  Biso   1.000  O
  O14      1.0000 0.72890  0.71510  0.94951  Biso   1.000  O
  O15      1.0000 0.23230  0.46280  0.92261  Biso   1.000  O
  O16      1.0000 0.76770  0.53720  0.07739  Biso   1.000  O
  O17      1.0000 0.97960  0.25130  0.01305  Biso   1.000  O
  O18      1.0000 0.02040  0.74870  0.98695  Biso   1.000  O
  N1       1.0000 0.78750  0.68850  0.74017  Biso   1.000  N
  N2       1.0000 0.21250  0.31150  0.25983  Biso   1.000  N
  H37      1.0000 0.71310  0.70410  0.70290  Biso   1.000  H
  H38      1.0000 0.28690  0.29590  0.29710  Biso   1.000  H
  H39      1.0000 0.80670  0.60930  0.78580  Biso   1.000  H
  H40      1.0000 0.19330  0.39070  0.21420  Biso   1.000  H
  N3       1.0000 0.83960  0.90990  0.65505  Biso   1.000  N
  N4       1.0000 0.16040  0.09010  0.34495  Biso   1.000  N
  N5       1.0000 0.90810  0.13030  0.58108  Biso   1.000  N
  N6       1.0000 0.09190  0.86970  0.41892  Biso   1.000  N
  H41      1.0000 0.97010  0.18740  0.57430  Biso   1.000  H
  H42      1.0000 0.02990  0.81260  0.42570  Biso   1.000  H
  H43      1.0000 0.82690  0.15820  0.54520  Biso   1.000  H
  H44      1.0000 0.17310  0.84180  0.45480  Biso   1.000  H
  N7       1.0000 0.06710  0.96630  0.69884  Biso   1.000  N
  N8       1.0000 0.93290  0.03370  0.30116  Biso   1.000  N
  N9       1.0000 0.21850  0.80160  0.82033  Biso   1.000  N
  N10      1.0000 0.78150  0.19840  0.17967  Biso   1.000  N
  H45      1.0000 0.28540  0.85400  0.80810  Biso   1.000  H
  H46      1.0000 0.71460  0.14600  0.19190  Biso   1.000  H
  H47      1.0000 0.23610  0.72270  0.86600  Biso   1.000  H
  H48      1.0000 0.76390  0.27730  0.13400  Biso   1.000  H
  N11      1.0000 0.98720  0.75480  0.78900  Biso   1.000  N
  N12      1.0000 0.01280  0.24520  0.21100  Biso   1.000  N
