data_image0
_cell_length_a       19.755
_cell_length_b       11.163
_cell_length_c       18.722
_cell_angle_alpha    90
_cell_angle_beta     99.45
_cell_angle_gamma    90

_symmetry_space_group_name_H-M    "P 1"
_symmetry_int_tables_number       1

loop_
  _symmetry_equiv_pos_as_xyz
  'x, y, z'

loop_
  _atom_site_label
  _atom_site_occupancy
  _atom_site_fract_x
  _atom_site_fract_y
  _atom_site_fract_z
  _atom_site_thermal_displace_type
  _atom_site_B_iso_or_equiv
  _atom_site_type_symbol
  Cu1      1.0000 0.00000  0.40471  0.75000  Biso   1.000  Cu
  Cu2      1.0000 0.50000  0.90471  0.75000  Biso   1.000  Cu
  Cu3      1.0000 0.00000  0.59529  0.25000  Biso   1.000  Cu
  Cu4      1.0000 0.50000  0.09529  0.25000  Biso   1.000  Cu
  Cl1      1.0000 0.49468  0.30206  0.99644  Biso   1.000  Cl
  Cl2      1.0000 0.50532  0.30206  0.50356  Biso   1.000  Cl
  Cl3      1.0000 0.99468  0.80206  0.99644  Biso   1.000  Cl
  Cl4      1.0000 0.00532  0.80206  0.50356  Biso   1.000  Cl
  Cl5      1.0000 0.50532  0.69794  0.00356  Biso   1.000  Cl
  Cl6      1.0000 0.49468  0.69794  0.49644  Biso   1.000  Cl
  Cl7      1.0000 0.00532  0.19794  0.00356  Biso   1.000  Cl
  Cl8      1.0000 0.99468  0.19794  0.49644  Biso   1.000  Cl
  O1       1.0000 0.11331  0.41520  0.82422  Biso   1.000  O
  O2       1.0000 0.88669  0.41520  0.67578  Biso   1.000  O
  O3       1.0000 0.61331  0.91520  0.82422  Biso   1.000  O
  O4       1.0000 0.38669  0.91520  0.67578  Biso   1.000  O
  O5       1.0000 0.88669  0.58480  0.17578  Biso   1.000  O
  O6       1.0000 0.11331  0.58480  0.32422  Biso   1.000  O
  O7       1.0000 0.38669  0.08480  0.17578  Biso   1.000  O
  O8       1.0000 0.61331  0.08480  0.32422  Biso   1.000  O
  H1       1.0000 0.14730  0.45210  0.81670  Biso   1.000  H
  H2       1.0000 0.85270  0.45210  0.68330  Biso   1.000  H
  H3       1.0000 0.64730  0.95210  0.81670  Biso   1.000  H
  H4       1.0000 0.35270  0.95210  0.68330  Biso   1.000  H
  H5       1.0000 0.85270  0.54790  0.18330  Biso   1.000  H
  H6       1.0000 0.14730  0.54790  0.31670  Biso   1.000  H
  H7       1.0000 0.35270  0.04790  0.18330  Biso   1.000  H
  H8       1.0000 0.64730  0.04790  0.31670  Biso   1.000  H
  H9       1.0000 0.12800  0.39980  0.86680  Biso   1.000  H
  H10      1.0000 0.87200  0.39980  0.63320  Biso   1.000  H
  H11      1.0000 0.62800  0.89980  0.86680  Biso   1.000  H
  H12      1.0000 0.37200  0.89980  0.63320  Biso   1.000  H
  H13      1.0000 0.87200  0.60020  0.13320  Biso   1.000  H
  H14      1.0000 0.12800  0.60020  0.36680  Biso   1.000  H
  H15      1.0000 0.37200  0.10020  0.13320  Biso   1.000  H
  H16      1.0000 0.62800  0.10020  0.36680  Biso   1.000  H
  N1       1.0000 0.00000  0.22290  0.75000  Biso   1.000  N
  N2       1.0000 0.50000  0.72290  0.75000  Biso   1.000  N
  N3       1.0000 0.00000  0.77710  0.25000  Biso   1.000  N
  N4       1.0000 0.50000  0.27710  0.25000  Biso   1.000  N
  N5       1.0000 0.00000  0.58750  0.75000  Biso   1.000  N
  N6       1.0000 0.50000  0.08750  0.75000  Biso   1.000  N
  N7       1.0000 0.00000  0.41250  0.25000  Biso   1.000  N
  N8       1.0000 0.50000  0.91250  0.25000  Biso   1.000  N
  N9       1.0000 0.95450  0.40560  0.83854  Biso   1.000  N
  N10      1.0000 0.04550  0.40560  0.66146  Biso   1.000  N
  N11      1.0000 0.45450  0.90560  0.83854  Biso   1.000  N
  N12      1.0000 0.54550  0.90560  0.66146  Biso   1.000  N
  N13      1.0000 0.04550  0.59440  0.16146  Biso   1.000  N
  N14      1.0000 0.95450  0.59440  0.33854  Biso   1.000  N
  N15      1.0000 0.54550  0.09440  0.16146  Biso   1.000  N
  N16      1.0000 0.45450  0.09440  0.33854  Biso   1.000  N
  N17      1.0000 0.97806  0.47670  0.89926  Biso   1.000  N
  N18      1.0000 0.02194  0.47670  0.60074  Biso   1.000  N
  N19      1.0000 0.47806  0.97670  0.89926  Biso   1.000  N
  N20      1.0000 0.52194  0.97670  0.60074  Biso   1.000  N
  N21      1.0000 0.02194  0.52330  0.10074  Biso   1.000  N
  N22      1.0000 0.97806  0.52330  0.39926  Biso   1.000  N
  N23      1.0000 0.52194  0.02330  0.10074  Biso   1.000  N
  N24      1.0000 0.47806  0.02330  0.39926  Biso   1.000  N
  N25      1.0000 0.87431  0.41180  0.90514  Biso   1.000  N
  N26      1.0000 0.12569  0.41180  0.59486  Biso   1.000  N
  N27      1.0000 0.37431  0.91180  0.90514  Biso   1.000  N
  N28      1.0000 0.62569  0.91180  0.59486  Biso   1.000  N
  N29      1.0000 0.12569  0.58820  0.09486  Biso   1.000  N
  N30      1.0000 0.87431  0.58820  0.40514  Biso   1.000  N
  N31      1.0000 0.62569  0.08820  0.09486  Biso   1.000  N
  N32      1.0000 0.37431  0.08820  0.40514  Biso   1.000  N
  N33      1.0000 0.81290  0.40990  0.93269  Biso   1.000  N
  N34      1.0000 0.18710  0.40990  0.56731  Biso   1.000  N
  N35      1.0000 0.31290  0.90990  0.93269  Biso   1.000  N
  N36      1.0000 0.68710  0.90990  0.56731  Biso   1.000  N
  N37      1.0000 0.18710  0.59010  0.06731  Biso   1.000  N
  N38      1.0000 0.81290  0.59010  0.43269  Biso   1.000  N
  N39      1.0000 0.68710  0.09010  0.06731  Biso   1.000  N
  N40      1.0000 0.31290  0.09010  0.43269  Biso   1.000  N
  C1       1.0000 0.03820  0.16040  0.80327  Biso   1.000  C
  C2       1.0000 0.96180  0.16040  0.69673  Biso   1.000  C
  C3       1.0000 0.53820  0.66040  0.80327  Biso   1.000  C
  C4       1.0000 0.46180  0.66040  0.69673  Biso   1.000  C
  C5       1.0000 0.96180  0.83960  0.19673  Biso   1.000  C
  C6       1.0000 0.03820  0.83960  0.30327  Biso   1.000  C
  C7       1.0000 0.46180  0.33960  0.19673  Biso   1.000  C
  C8       1.0000 0.53820  0.33960  0.30327  Biso   1.000  C
  H17      1.0000 0.06520  0.20310  0.84170  Biso   1.000  H
  H18      1.0000 0.93480  0.20310  0.65830  Biso   1.000  H
  H19      1.0000 0.56520  0.70310  0.84170  Biso   1.000  H
  H20      1.0000 0.43480  0.70310  0.65830  Biso   1.000  H
  H21      1.0000 0.93480  0.79690  0.15830  Biso   1.000  H
  H22      1.0000 0.06520  0.79690  0.34170  Biso   1.000  H
  H23      1.0000 0.43480  0.29690  0.15830  Biso   1.000  H
  H24      1.0000 0.56520  0.29690  0.34170  Biso   1.000  H
  C9       1.0000 0.04020  0.03670  0.80460  Biso   1.000  C
  C10      1.0000 0.95980  0.03670  0.69540  Biso   1.000  C
  C11      1.0000 0.54020  0.53670  0.80460  Biso   1.000  C
  C12      1.0000 0.45980  0.53670  0.69540  Biso   1.000  C
  C13      1.0000 0.95980  0.96330  0.19540  Biso   1.000  C
  C14      1.0000 0.04020  0.96330  0.30460  Biso   1.000  C
  C15      1.0000 0.45980  0.46330  0.19540  Biso   1.000  C
  C16      1.0000 0.54020  0.46330  0.30460  Biso   1.000  C
  H25      1.0000 0.06880  0.99580  0.84270  Biso   1.000  H
  H26      1.0000 0.93120  0.99580  0.65730  Biso   1.000  H
  H27      1.0000 0.56880  0.49580  0.84270  Biso   1.000  H
  H28      1.0000 0.43120  0.49580  0.65730  Biso   1.000  H
  H29      1.0000 0.93120  0.00420  0.15730  Biso   1.000  H
  H30      1.0000 0.06880  0.00420  0.34270  Biso   1.000  H
  H31      1.0000 0.43120  0.50420  0.15730  Biso   1.000  H
  H32      1.0000 0.56880  0.50420  0.34270  Biso   1.000  H
  C17      1.0000 0.00000  0.97320  0.75000  Biso   1.000  C
  C18      1.0000 0.50000  0.47320  0.75000  Biso   1.000  C
  C19      1.0000 0.00000  0.02680  0.25000  Biso   1.000  C
  C20      1.0000 0.50000  0.52680  0.25000  Biso   1.000  C
  C21      1.0000 0.00000  0.83870  0.75000  Biso   1.000  C
  C22      1.0000 0.50000  0.33870  0.75000  Biso   1.000  C
  C23      1.0000 0.00000  0.16130  0.25000  Biso   1.000  C
  C24      1.0000 0.50000  0.66130  0.25000  Biso   1.000  C
  C25      1.0000 0.05638  0.77460  0.73629  Biso   1.000  C
  C26      1.0000 0.94362  0.77460  0.76371  Biso   1.000  C
  C27      1.0000 0.55638  0.27460  0.73629  Biso   1.000  C
  C28      1.0000 0.44362  0.27460  0.76371  Biso   1.000  C
  C29      1.0000 0.94362  0.22540  0.26371  Biso   1.000  C
  C30      1.0000 0.05638  0.22540  0.23629  Biso   1.000  C
  C31      1.0000 0.44362  0.72540  0.26371  Biso   1.000  C
  C32      1.0000 0.55638  0.72540  0.23629  Biso   1.000  C
  H33      1.0000 0.09630  0.81530  0.72700  Biso   1.000  H
  H34      1.0000 0.90370  0.81530  0.77300  Biso   1.000  H
  H35      1.0000 0.59630  0.31530  0.72700  Biso   1.000  H
  H36      1.0000 0.40370  0.31530  0.77300  Biso   1.000  H
  H37      1.0000 0.90370  0.18470  0.27300  Biso   1.000  H
  H38      1.0000 0.09630  0.18470  0.22700  Biso   1.000  H
  H39      1.0000 0.40370  0.68470  0.27300  Biso   1.000  H
  H40      1.0000 0.59630  0.68470  0.22700  Biso   1.000  H
  C33      1.0000 0.05414  0.65090  0.73620  Biso   1.000  C
  C34      1.0000 0.94586  0.65090  0.76380  Biso   1.000  C
  C35      1.0000 0.55414  0.15090  0.73620  Biso   1.000  C
  C36      1.0000 0.44586  0.15090  0.76380  Biso   1.000  C
  C37      1.0000 0.94586  0.34910  0.26380  Biso   1.000  C
  C38      1.0000 0.05414  0.34910  0.23620  Biso   1.000  C
  C39      1.0000 0.44586  0.84910  0.26380  Biso   1.000  C
  C40      1.0000 0.55414  0.84910  0.23620  Biso   1.000  C
  H41      1.0000 0.09300  0.60840  0.72580  Biso   1.000  H
  H42      1.0000 0.90700  0.60840  0.77420  Biso   1.000  H
  H43      1.0000 0.59300  0.10840  0.72580  Biso   1.000  H
  H44      1.0000 0.40700  0.10840  0.77420  Biso   1.000  H
  H45      1.0000 0.90700  0.39160  0.27420  Biso   1.000  H
  H46      1.0000 0.09300  0.39160  0.22580  Biso   1.000  H
  H47      1.0000 0.40700  0.89160  0.27420  Biso   1.000  H
  H48      1.0000 0.59300  0.89160  0.22580  Biso   1.000  H
  C41      1.0000 0.76894  0.33110  0.90533  Biso   1.000  C
  C42      1.0000 0.23106  0.33110  0.59467  Biso   1.000  C
  C43      1.0000 0.26894  0.83110  0.90533  Biso   1.000  C
  C44      1.0000 0.73106  0.83110  0.59467  Biso   1.000  C
  C45      1.0000 0.23106  0.66890  0.09467  Biso   1.000  C
  C46      1.0000 0.76894  0.66890  0.40533  Biso   1.000  C
  C47      1.0000 0.73106  0.16890  0.09467  Biso   1.000  C
  C48      1.0000 0.26894  0.16890  0.40533  Biso   1.000  C
  H49      1.0000 0.77970  0.27650  0.86990  Biso   1.000  H
  H50      1.0000 0.22030  0.27650  0.63010  Biso   1.000  H
  H51      1.0000 0.27970  0.77650  0.86990  Biso   1.000  H
  H52      1.0000 0.72030  0.77650  0.63010  Biso   1.000  H
  H53      1.0000 0.22030  0.72350  0.13010  Biso   1.000  H
  H54      1.0000 0.77970  0.72350  0.36990  Biso   1.000  H
  H55      1.0000 0.72030  0.22350  0.13010  Biso   1.000  H
  H56      1.0000 0.27970  0.22350  0.36990  Biso   1.000  H
  C49      1.0000 0.70235  0.32600  0.92912  Biso   1.000  C
  C50      1.0000 0.29765  0.32600  0.57088  Biso   1.000  C
  C51      1.0000 0.20235  0.82600  0.92912  Biso   1.000  C
  C52      1.0000 0.79765  0.82600  0.57088  Biso   1.000  C
  C53      1.0000 0.29765  0.67400  0.07088  Biso   1.000  C
  C54      1.0000 0.70235  0.67400  0.42912  Biso   1.000  C
  C55      1.0000 0.79765  0.17400  0.07088  Biso   1.000  C
  C56      1.0000 0.20235  0.17400  0.42912  Biso   1.000  C
  C57      1.0000 0.68336  0.40910  0.97820  Biso   1.000  C
  C58      1.0000 0.31664  0.40910  0.52180  Biso   1.000  C
  C59      1.0000 0.18336  0.90910  0.97820  Biso   1.000  C
  C60      1.0000 0.81664  0.90910  0.52180  Biso   1.000  C
  C61      1.0000 0.31664  0.59090  0.02180  Biso   1.000  C
  C62      1.0000 0.68336  0.59090  0.47820  Biso   1.000  C
  C63      1.0000 0.81664  0.09090  0.02180  Biso   1.000  C
  C64      1.0000 0.18336  0.09090  0.47820  Biso   1.000  C
  H57      1.0000 0.71440  0.47050  0.99730  Biso   1.000  H
  H58      1.0000 0.28560  0.47050  0.50270  Biso   1.000  H
  H59      1.0000 0.21440  0.97050  0.99730  Biso   1.000  H
  H60      1.0000 0.78560  0.97050  0.50270  Biso   1.000  H
  H61      1.0000 0.28560  0.52950  0.00270  Biso   1.000  H
  H62      1.0000 0.71440  0.52950  0.49730  Biso   1.000  H
  H63      1.0000 0.78560  0.02950  0.00270  Biso   1.000  H
  H64      1.0000 0.21440  0.02950  0.49730  Biso   1.000  H
  C65      1.0000 0.61936  0.40200  0.99896  Biso   1.000  C
  C66      1.0000 0.38064  0.40200  0.50104  Biso   1.000  C
  C67      1.0000 0.11936  0.90200  0.99896  Biso   1.000  C
  C68      1.0000 0.88064  0.90200  0.50104  Biso   1.000  C
  C69      1.0000 0.38064  0.59800  0.00104  Biso   1.000  C
  C70      1.0000 0.61936  0.59800  0.49896  Biso   1.000  C
  C71      1.0000 0.88064  0.09800  0.00104  Biso   1.000  C
  C72      1.0000 0.11936  0.09800  0.49896  Biso   1.000  C
  H65      1.0000 0.60610  0.45830  0.03210  Biso   1.000  H
  H66      1.0000 0.39390  0.45830  0.46790  Biso   1.000  H
  H67      1.0000 0.10610  0.95830  0.03210  Biso   1.000  H
  H68      1.0000 0.89390  0.95830  0.46790  Biso   1.000  H
  H69      1.0000 0.39390  0.54170  0.96790  Biso   1.000  H
  H70      1.0000 0.60610  0.54170  0.53210  Biso   1.000  H
  H71      1.0000 0.89390  0.04170  0.96790  Biso   1.000  H
  H72      1.0000 0.10610  0.04170  0.53210  Biso   1.000  H
  C73      1.0000 0.59289  0.22590  0.92264  Biso   1.000  C
  C74      1.0000 0.40711  0.22590  0.57736  Biso   1.000  C
  C75      1.0000 0.09289  0.72590  0.92264  Biso   1.000  C
  C76      1.0000 0.90711  0.72590  0.57736  Biso   1.000  C
  C77      1.0000 0.40711  0.77410  0.07736  Biso   1.000  C
  C78      1.0000 0.59289  0.77410  0.42264  Biso   1.000  C
  C79      1.0000 0.90711  0.27410  0.07736  Biso   1.000  C
  C80      1.0000 0.09289  0.27410  0.42264  Biso   1.000  C
  H73      1.0000 0.56220  0.16330  0.90470  Biso   1.000  H
  H74      1.0000 0.43780  0.16330  0.59530  Biso   1.000  H
  H75      1.0000 0.06220  0.66330  0.90470  Biso   1.000  H
  H76      1.0000 0.93780  0.66330  0.59530  Biso   1.000  H
  H77      1.0000 0.43780  0.83670  0.09530  Biso   1.000  H
  H78      1.0000 0.56220  0.83670  0.40470  Biso   1.000  H
  H79      1.0000 0.93780  0.33670  0.09530  Biso   1.000  H
  H80      1.0000 0.06220  0.33670  0.40470  Biso   1.000  H
  C81      1.0000 0.57497  0.31110  0.97056  Biso   1.000  C
  C82      1.0000 0.42503  0.31110  0.52944  Biso   1.000  C
  C83      1.0000 0.07497  0.81110  0.97056  Biso   1.000  C
  C84      1.0000 0.92503  0.81110  0.52944  Biso   1.000  C
  C85      1.0000 0.42503  0.68890  0.02944  Biso   1.000  C
  C86      1.0000 0.57497  0.68890  0.47056  Biso   1.000  C
  C87      1.0000 0.92503  0.18890  0.02944  Biso   1.000  C
  C88      1.0000 0.07497  0.18890  0.47056  Biso   1.000  C
  C89      1.0000 0.65643  0.23510  0.90210  Biso   1.000  C
  C90      1.0000 0.34357  0.23510  0.59790  Biso   1.000  C
  C91      1.0000 0.15643  0.73510  0.90210  Biso   1.000  C
  C92      1.0000 0.84357  0.73510  0.59790  Biso   1.000  C
  C93      1.0000 0.34357  0.76490  0.09790  Biso   1.000  C
  C94      1.0000 0.65643  0.76490  0.40210  Biso   1.000  C
  C95      1.0000 0.84357  0.26490  0.09790  Biso   1.000  C
  C96      1.0000 0.15643  0.26490  0.40210  Biso   1.000  C
  H81      1.0000 0.66940  0.17850  0.86890  Biso   1.000  H
  H82      1.0000 0.33060  0.17850  0.63110  Biso   1.000  H
  H83      1.0000 0.16940  0.67850  0.86890  Biso   1.000  H
  H84      1.0000 0.83060  0.67850  0.63110  Biso   1.000  H
  H85      1.0000 0.33060  0.82150  0.13110  Biso   1.000  H
  H86      1.0000 0.66940  0.82150  0.36890  Biso   1.000  H
  H87      1.0000 0.83060  0.32150  0.13110  Biso   1.000  H
  H88      1.0000 0.16940  0.32150  0.36890  Biso   1.000  H
  C97      1.0000 0.89259  0.36680  0.84308  Biso   1.000  C
  C98      1.0000 0.10741  0.36680  0.65692  Biso   1.000  C
  C99      1.0000 0.39259  0.86680  0.84308  Biso   1.000  C
  C100     1.0000 0.60741  0.86680  0.65692  Biso   1.000  C
  C101     1.0000 0.10741  0.63320  0.15692  Biso   1.000  C
  C102     1.0000 0.89259  0.63320  0.34308  Biso   1.000  C
  C103     1.0000 0.60741  0.13320  0.15692  Biso   1.000  C
  C104     1.0000 0.39259  0.13320  0.34308  Biso   1.000  C
  H89      1.0000 0.86520  0.31620  0.80910  Biso   1.000  H
  H90      1.0000 0.13480  0.31620  0.69090  Biso   1.000  H
  H91      1.0000 0.36520  0.81620  0.80910  Biso   1.000  H
  H92      1.0000 0.63480  0.81620  0.69090  Biso   1.000  H
  H93      1.0000 0.13480  0.68380  0.19090  Biso   1.000  H
  H94      1.0000 0.86520  0.68380  0.30910  Biso   1.000  H
  H95      1.0000 0.63480  0.18380  0.19090  Biso   1.000  H
  H96      1.0000 0.36520  0.18380  0.30910  Biso   1.000  H
  C105     1.0000 0.92869  0.47860  0.93727  Biso   1.000  C
  C106     1.0000 0.07131  0.47860  0.56273  Biso   1.000  C
  C107     1.0000 0.42869  0.97860  0.93727  Biso   1.000  C
  C108     1.0000 0.57131  0.97860  0.56273  Biso   1.000  C
  C109     1.0000 0.07131  0.52140  0.06273  Biso   1.000  C
  C110     1.0000 0.92869  0.52140  0.43727  Biso   1.000  C
  C111     1.0000 0.57131  0.02140  0.06273  Biso   1.000  C
  C112     1.0000 0.42869  0.02140  0.43727  Biso   1.000  C
  H97      1.0000 0.93020  0.52080  0.98160  Biso   1.000  H
  H98      1.0000 0.06980  0.52080  0.51840  Biso   1.000  H
  H99      1.0000 0.43020  0.02080  0.98160  Biso   1.000  H
  H100     1.0000 0.56980  0.02080  0.51840  Biso   1.000  H
  H101     1.0000 0.06980  0.47920  0.01840  Biso   1.000  H
  H102     1.0000 0.93020  0.47920  0.48160  Biso   1.000  H
  H103     1.0000 0.56980  0.97920  0.01840  Biso   1.000  H
  H104     1.0000 0.43020  0.97920  0.48160  Biso   1.000  H
  N41      1.0000 0.65507  0.19970  0.46624  Biso   1.000  N
  N42      1.0000 0.34493  0.19970  0.03376  Biso   1.000  N
  N43      1.0000 0.15507  0.69970  0.46624  Biso   1.000  N
  N44      1.0000 0.84493  0.69970  0.03376  Biso   1.000  N
  N45      1.0000 0.34493  0.80030  0.53376  Biso   1.000  N
  N46      1.0000 0.65507  0.80030  0.96624  Biso   1.000  N
  N47      1.0000 0.84493  0.30030  0.53376  Biso   1.000  N
  N48      1.0000 0.15507  0.30030  0.96624  Biso   1.000  N
  C113     1.0000 0.67583  0.21400  0.52610  Biso   1.000  C
  C114     1.0000 0.32417  0.21400  0.97390  Biso   1.000  C
  C115     1.0000 0.17583  0.71400  0.52610  Biso   1.000  C
  C116     1.0000 0.82417  0.71400  0.97390  Biso   1.000  C
  C117     1.0000 0.32417  0.78600  0.47390  Biso   1.000  C
  C118     1.0000 0.67583  0.78600  0.02610  Biso   1.000  C
  C119     1.0000 0.82417  0.28600  0.47390  Biso   1.000  C
  C120     1.0000 0.17583  0.28600  0.02610  Biso   1.000  C
  C121     1.0000 0.70170  0.23050  0.60370  Biso   1.000  C
  C122     1.0000 0.29830  0.23050  0.89630  Biso   1.000  C
  C123     1.0000 0.20170  0.73050  0.60370  Biso   1.000  C
  C124     1.0000 0.79830  0.73050  0.89630  Biso   1.000  C
  C125     1.0000 0.29830  0.76950  0.39630  Biso   1.000  C
  C126     1.0000 0.70170  0.76950  0.10370  Biso   1.000  C
  C127     1.0000 0.79830  0.26950  0.39630  Biso   1.000  C
  C128     1.0000 0.20170  0.26950  0.10370  Biso   1.000  C
  H105     1.0000 0.75100  0.21300  0.61350  Biso   1.000  H
  H106     1.0000 0.24900  0.21300  0.88650  Biso   1.000  H
  H107     1.0000 0.25100  0.71300  0.61350  Biso   1.000  H
  H108     1.0000 0.74900  0.71300  0.88650  Biso   1.000  H
  H109     1.0000 0.24900  0.78700  0.38650  Biso   1.000  H
  H110     1.0000 0.75100  0.78700  0.11350  Biso   1.000  H
  H111     1.0000 0.74900  0.28700  0.38650  Biso   1.000  H
  H112     1.0000 0.25100  0.28700  0.11350  Biso   1.000  H
  H113     1.0000 0.67750  0.17600  0.63190  Biso   1.000  H
  H114     1.0000 0.32250  0.17600  0.86810  Biso   1.000  H
  H115     1.0000 0.17750  0.67600  0.63190  Biso   1.000  H
  H116     1.0000 0.82250  0.67600  0.86810  Biso   1.000  H
  H117     1.0000 0.32250  0.82400  0.36810  Biso   1.000  H
  H118     1.0000 0.67750  0.82400  0.13190  Biso   1.000  H
  H119     1.0000 0.82250  0.32400  0.36810  Biso   1.000  H
  H120     1.0000 0.17750  0.32400  0.13190  Biso   1.000  H
  H121     1.0000 0.69390  0.31340  0.61740  Biso   1.000  H
  H122     1.0000 0.30610  0.31340  0.88260  Biso   1.000  H
  H123     1.0000 0.19390  0.81340  0.61740  Biso   1.000  H
  H124     1.0000 0.80610  0.81340  0.88260  Biso   1.000  H
  H125     1.0000 0.30610  0.68660  0.38260  Biso   1.000  H
  H126     1.0000 0.69390  0.68660  0.11740  Biso   1.000  H
  H127     1.0000 0.80610  0.18660  0.38260  Biso   1.000  H
  H128     1.0000 0.19390  0.18660  0.11740  Biso   1.000  H
  Cl9      1.0000 0.77930  0.03902  0.77239  Biso   1.000  Cl
  Cl10     1.0000 0.22070  0.03902  0.72761  Biso   1.000  Cl
  Cl11     1.0000 0.27930  0.53902  0.77239  Biso   1.000  Cl
  Cl12     1.0000 0.72070  0.53902  0.72761  Biso   1.000  Cl
  Cl13     1.0000 0.22070  0.96098  0.22761  Biso   1.000  Cl
  Cl14     1.0000 0.77930  0.96098  0.27239  Biso   1.000  Cl
  Cl15     1.0000 0.72070  0.46098  0.22761  Biso   1.000  Cl
  Cl16     1.0000 0.27930  0.46098  0.27239  Biso   1.000  Cl
  O9       1.0000 0.70635  0.03800  0.74510  Biso   1.000  O
  O10      1.0000 0.29365  0.03800  0.75490  Biso   1.000  O
  O11      1.0000 0.20635  0.53800  0.74510  Biso   1.000  O
  O12      1.0000 0.79365  0.53800  0.75490  Biso   1.000  O
  O13      1.0000 0.29365  0.96200  0.25490  Biso   1.000  O
  O14      1.0000 0.70635  0.96200  0.24510  Biso   1.000  O
  O15      1.0000 0.79365  0.46200  0.25490  Biso   1.000  O
  O16      1.0000 0.20635  0.46200  0.24510  Biso   1.000  O
  O17      1.0000 0.80671  0.94260  0.73826  Biso   1.000  O
  O18      1.0000 0.19329  0.94260  0.76174  Biso   1.000  O
  O19      1.0000 0.30671  0.44260  0.73826  Biso   1.000  O
  O20      1.0000 0.69329  0.44260  0.76174  Biso   1.000  O
  O21      1.0000 0.19329  0.05740  0.26174  Biso   1.000  O
  O22      1.0000 0.80671  0.05740  0.23826  Biso   1.000  O
  O23      1.0000 0.69329  0.55740  0.26174  Biso   1.000  O
  O24      1.0000 0.30671  0.55740  0.23826  Biso   1.000  O
  O25      1.0000 0.78740  0.02530  0.84791  Biso   1.000  O
  O26      1.0000 0.21260  0.02530  0.65209  Biso   1.000  O
  O27      1.0000 0.28740  0.52530  0.84791  Biso   1.000  O
  O28      1.0000 0.71260  0.52530  0.65209  Biso   1.000  O
  O29      1.0000 0.21260  0.97470  0.15209  Biso   1.000  O
  O30      1.0000 0.78740  0.97470  0.34791  Biso   1.000  O
  O31      1.0000 0.71260  0.47470  0.15209  Biso   1.000  O
  O32      1.0000 0.28740  0.47470  0.34791  Biso   1.000  O
  O33      1.0000 0.80482  0.15210  0.75425  Biso   1.000  O
  O34      1.0000 0.19518  0.15210  0.74575  Biso   1.000  O
  O35      1.0000 0.30482  0.65210  0.75425  Biso   1.000  O
  O36      1.0000 0.69518  0.65210  0.74575  Biso   1.000  O
  O37      1.0000 0.19518  0.84790  0.24575  Biso   1.000  O
  O38      1.0000 0.80482  0.84790  0.25425  Biso   1.000  O
  O39      1.0000 0.69518  0.34790  0.24575  Biso   1.000  O
  O40      1.0000 0.30482  0.34790  0.25425  Biso   1.000  O
