data_image0
_cell_length_a       19.756
_cell_length_b       11.117
_cell_length_c       18.52
_cell_angle_alpha    90
_cell_angle_beta     100.6
_cell_angle_gamma    90

_symmetry_space_group_name_H-M    "P 1"
_symmetry_int_tables_number       1

loop_
  _symmetry_equiv_pos_as_xyz
  'x, y, z'

loop_
  _atom_site_label
  _atom_site_occupancy
  _atom_site_fract_x
  _atom_site_fract_y
  _atom_site_fract_z
  _atom_site_thermal_displace_type
  _atom_site_B_iso_or_equiv
  _atom_site_type_symbol
  Cu1      1.0000 0.00000  0.40330  0.75000  Biso   1.000  Cu
  Cu2      1.0000 0.50000  0.90330  0.75000  Biso   1.000  Cu
  Cu3      1.0000 0.00000  0.59670  0.25000  Biso   1.000  Cu
  Cu4      1.0000 0.50000  0.09670  0.25000  Biso   1.000  Cu
  Cl1      1.0000 0.49591  0.30554  0.00041  Biso   1.000  Cl
  Cl2      1.0000 0.50409  0.30554  0.49959  Biso   1.000  Cl
  Cl3      1.0000 0.99591  0.80554  0.00041  Biso   1.000  Cl
  Cl4      1.0000 0.00409  0.80554  0.49959  Biso   1.000  Cl
  Cl5      1.0000 0.50409  0.69446  0.99959  Biso   1.000  Cl
  Cl6      1.0000 0.49591  0.69446  0.50041  Biso   1.000  Cl
  Cl7      1.0000 0.00409  0.19446  0.99959  Biso   1.000  Cl
  Cl8      1.0000 0.99591  0.19446  0.50041  Biso   1.000  Cl
  O1       1.0000 0.11403  0.41524  0.82716  Biso   1.000  O
  O2       1.0000 0.88597  0.41524  0.67284  Biso   1.000  O
  O3       1.0000 0.61403  0.91524  0.82716  Biso   1.000  O
  O4       1.0000 0.38597  0.91524  0.67284  Biso   1.000  O
  O5       1.0000 0.88597  0.58476  0.17284  Biso   1.000  O
  O6       1.0000 0.11403  0.58476  0.32716  Biso   1.000  O
  O7       1.0000 0.38597  0.08476  0.17284  Biso   1.000  O
  O8       1.0000 0.61403  0.08476  0.32716  Biso   1.000  O
  H1       1.0000 0.14720  0.45180  0.81720  Biso   1.000  H
  H2       1.0000 0.85280  0.45180  0.68280  Biso   1.000  H
  H3       1.0000 0.64720  0.95180  0.81720  Biso   1.000  H
  H4       1.0000 0.35280  0.95180  0.68280  Biso   1.000  H
  H5       1.0000 0.85280  0.54820  0.18280  Biso   1.000  H
  H6       1.0000 0.14720  0.54820  0.31720  Biso   1.000  H
  H7       1.0000 0.35280  0.04820  0.18280  Biso   1.000  H
  H8       1.0000 0.64720  0.04820  0.31720  Biso   1.000  H
  H9       1.0000 0.12910  0.39870  0.87030  Biso   1.000  H
  H10      1.0000 0.87090  0.39870  0.62970  Biso   1.000  H
  H11      1.0000 0.62910  0.89870  0.87030  Biso   1.000  H
  H12      1.0000 0.37090  0.89870  0.62970  Biso   1.000  H
  H13      1.0000 0.87090  0.60130  0.12970  Biso   1.000  H
  H14      1.0000 0.12910  0.60130  0.37030  Biso   1.000  H
  H15      1.0000 0.37090  0.10130  0.12970  Biso   1.000  H
  H16      1.0000 0.62910  0.10130  0.37030  Biso   1.000  H
  N1       1.0000 0.00000  0.22120  0.75000  Biso   1.000  N
  N2       1.0000 0.50000  0.72120  0.75000  Biso   1.000  N
  N3       1.0000 0.00000  0.77880  0.25000  Biso   1.000  N
  N4       1.0000 0.50000  0.27880  0.25000  Biso   1.000  N
  N5       1.0000 0.00000  0.58655  0.75000  Biso   1.000  N
  N6       1.0000 0.50000  0.08655  0.75000  Biso   1.000  N
  N7       1.0000 0.00000  0.41345  0.25000  Biso   1.000  N
  N8       1.0000 0.50000  0.91345  0.25000  Biso   1.000  N
  N9       1.0000 0.95356  0.40445  0.83783  Biso   1.000  N
  N10      1.0000 0.04644  0.40445  0.66217  Biso   1.000  N
  N11      1.0000 0.45356  0.90445  0.83783  Biso   1.000  N
  N12      1.0000 0.54644  0.90445  0.66217  Biso   1.000  N
  N13      1.0000 0.04644  0.59555  0.16217  Biso   1.000  N
  N14      1.0000 0.95356  0.59555  0.33783  Biso   1.000  N
  N15      1.0000 0.54644  0.09555  0.16217  Biso   1.000  N
  N16      1.0000 0.45356  0.09555  0.33783  Biso   1.000  N
  N17      1.0000 0.97790  0.47572  0.89874  Biso   1.000  N
  N18      1.0000 0.02210  0.47572  0.60126  Biso   1.000  N
  N19      1.0000 0.47790  0.97572  0.89874  Biso   1.000  N
  N20      1.0000 0.52210  0.97572  0.60126  Biso   1.000  N
  N21      1.0000 0.02210  0.52428  0.10126  Biso   1.000  N
  N22      1.0000 0.97790  0.52428  0.39874  Biso   1.000  N
  N23      1.0000 0.52210  0.02428  0.10126  Biso   1.000  N
  N24      1.0000 0.47790  0.02428  0.39874  Biso   1.000  N
  N25      1.0000 0.87371  0.41130  0.90393  Biso   1.000  N
  N26      1.0000 0.12629  0.41130  0.59607  Biso   1.000  N
  N27      1.0000 0.37371  0.91130  0.90393  Biso   1.000  N
  N28      1.0000 0.62629  0.91130  0.59607  Biso   1.000  N
  N29      1.0000 0.12629  0.58870  0.09607  Biso   1.000  N
  N30      1.0000 0.87371  0.58870  0.40393  Biso   1.000  N
  N31      1.0000 0.62629  0.08870  0.09607  Biso   1.000  N
  N32      1.0000 0.37371  0.08870  0.40393  Biso   1.000  N
  N33      1.0000 0.81246  0.40996  0.93171  Biso   1.000  N
  N34      1.0000 0.18754  0.40996  0.56829  Biso   1.000  N
  N35      1.0000 0.31246  0.90996  0.93171  Biso   1.000  N
  N36      1.0000 0.68754  0.90996  0.56829  Biso   1.000  N
  N37      1.0000 0.18754  0.59004  0.06829  Biso   1.000  N
  N38      1.0000 0.81246  0.59004  0.43171  Biso   1.000  N
  N39      1.0000 0.68754  0.09004  0.06829  Biso   1.000  N
  N40      1.0000 0.31246  0.09004  0.43171  Biso   1.000  N
  C1       1.0000 0.04854  0.15880  0.79405  Biso   1.000  C
  C2       1.0000 0.95146  0.15880  0.70595  Biso   1.000  C
  C3       1.0000 0.54854  0.65880  0.79405  Biso   1.000  C
  C4       1.0000 0.45146  0.65880  0.70595  Biso   1.000  C
  C5       1.0000 0.95146  0.84120  0.20595  Biso   1.000  C
  C6       1.0000 0.04854  0.84120  0.29405  Biso   1.000  C
  C7       1.0000 0.45146  0.34120  0.20595  Biso   1.000  C
  C8       1.0000 0.54854  0.34120  0.29405  Biso   1.000  C
  H17      1.0000 0.08310  0.20160  0.82640  Biso   1.000  H
  H18      1.0000 0.91690  0.20160  0.67360  Biso   1.000  H
  H19      1.0000 0.58310  0.70160  0.82640  Biso   1.000  H
  H20      1.0000 0.41690  0.70160  0.67360  Biso   1.000  H
  H21      1.0000 0.91690  0.79840  0.17360  Biso   1.000  H
  H22      1.0000 0.08310  0.79840  0.32640  Biso   1.000  H
  H23      1.0000 0.41690  0.29840  0.17360  Biso   1.000  H
  H24      1.0000 0.58310  0.29840  0.32640  Biso   1.000  H
  C9       1.0000 0.05075  0.03520  0.79475  Biso   1.000  C
  C10      1.0000 0.94925  0.03520  0.70525  Biso   1.000  C
  C11      1.0000 0.55075  0.53520  0.79475  Biso   1.000  C
  C12      1.0000 0.44925  0.53520  0.70525  Biso   1.000  C
  C13      1.0000 0.94925  0.96480  0.20525  Biso   1.000  C
  C14      1.0000 0.05075  0.96480  0.29475  Biso   1.000  C
  C15      1.0000 0.44925  0.46480  0.20525  Biso   1.000  C
  C16      1.0000 0.55075  0.46480  0.29475  Biso   1.000  C
  H25      1.0000 0.08710  0.99440  0.82590  Biso   1.000  H
  H26      1.0000 0.91290  0.99440  0.67410  Biso   1.000  H
  H27      1.0000 0.58710  0.49440  0.82590  Biso   1.000  H
  H28      1.0000 0.41290  0.49440  0.67410  Biso   1.000  H
  H29      1.0000 0.91290  0.00560  0.17410  Biso   1.000  H
  H30      1.0000 0.08710  0.00560  0.32590  Biso   1.000  H
  H31      1.0000 0.41290  0.50560  0.17410  Biso   1.000  H
  H32      1.0000 0.58710  0.50560  0.32590  Biso   1.000  H
  C17      1.0000 0.00000  0.97090  0.75000  Biso   1.000  C
  C18      1.0000 0.50000  0.47090  0.75000  Biso   1.000  C
  C19      1.0000 0.00000  0.02910  0.25000  Biso   1.000  C
  C20      1.0000 0.50000  0.52910  0.25000  Biso   1.000  C
  C21      1.0000 0.00000  0.83690  0.75000  Biso   1.000  C
  C22      1.0000 0.50000  0.33690  0.75000  Biso   1.000  C
  C23      1.0000 0.00000  0.16310  0.25000  Biso   1.000  C
  C24      1.0000 0.50000  0.66310  0.25000  Biso   1.000  C
  C25      1.0000 0.05723  0.77299  0.73774  Biso   1.000  C
  C26      1.0000 0.94277  0.77299  0.76226  Biso   1.000  C
  C27      1.0000 0.55723  0.27299  0.73774  Biso   1.000  C
  C28      1.0000 0.44277  0.27299  0.76226  Biso   1.000  C
  C29      1.0000 0.94277  0.22701  0.26226  Biso   1.000  C
  C30      1.0000 0.05723  0.22701  0.23774  Biso   1.000  C
  C31      1.0000 0.44277  0.72701  0.26226  Biso   1.000  C
  C32      1.0000 0.55723  0.72701  0.23774  Biso   1.000  C
  H33      1.0000 0.09730  0.81400  0.72970  Biso   1.000  H
  H34      1.0000 0.90270  0.81400  0.77030  Biso   1.000  H
  H35      1.0000 0.59730  0.31400  0.72970  Biso   1.000  H
  H36      1.0000 0.40270  0.31400  0.77030  Biso   1.000  H
  H37      1.0000 0.90270  0.18600  0.27030  Biso   1.000  H
  H38      1.0000 0.09730  0.18600  0.22970  Biso   1.000  H
  H39      1.0000 0.40270  0.68600  0.27030  Biso   1.000  H
  H40      1.0000 0.59730  0.68600  0.22970  Biso   1.000  H
  C33      1.0000 0.05491  0.64899  0.73750  Biso   1.000  C
  C34      1.0000 0.94509  0.64899  0.76250  Biso   1.000  C
  C35      1.0000 0.55491  0.14899  0.73750  Biso   1.000  C
  C36      1.0000 0.44509  0.14899  0.76250  Biso   1.000  C
  C37      1.0000 0.94509  0.35101  0.26250  Biso   1.000  C
  C38      1.0000 0.05491  0.35101  0.23750  Biso   1.000  C
  C39      1.0000 0.44509  0.85101  0.26250  Biso   1.000  C
  C40      1.0000 0.55491  0.85101  0.23750  Biso   1.000  C
  H41      1.0000 0.09390  0.60580  0.72810  Biso   1.000  H
  H42      1.0000 0.90610  0.60580  0.77190  Biso   1.000  H
  H43      1.0000 0.59390  0.10580  0.72810  Biso   1.000  H
  H44      1.0000 0.40610  0.10580  0.77190  Biso   1.000  H
  H45      1.0000 0.90610  0.39420  0.27190  Biso   1.000  H
  H46      1.0000 0.09390  0.39420  0.22810  Biso   1.000  H
  H47      1.0000 0.40610  0.89420  0.27190  Biso   1.000  H
  H48      1.0000 0.59390  0.89420  0.22810  Biso   1.000  H
  C41      1.0000 0.76818  0.33096  0.90472  Biso   1.000  C
  C42      1.0000 0.23182  0.33096  0.59528  Biso   1.000  C
  C43      1.0000 0.26818  0.83096  0.90472  Biso   1.000  C
  C44      1.0000 0.73182  0.83096  0.59528  Biso   1.000  C
  C45      1.0000 0.23182  0.66904  0.09528  Biso   1.000  C
  C46      1.0000 0.76818  0.66904  0.40472  Biso   1.000  C
  C47      1.0000 0.73182  0.16904  0.09528  Biso   1.000  C
  C48      1.0000 0.26818  0.16904  0.40472  Biso   1.000  C
  H49      1.0000 0.77800  0.27530  0.86910  Biso   1.000  H
  H50      1.0000 0.22200  0.27530  0.63090  Biso   1.000  H
  H51      1.0000 0.27800  0.77530  0.86910  Biso   1.000  H
  H52      1.0000 0.72200  0.77530  0.63090  Biso   1.000  H
  H53      1.0000 0.22200  0.72470  0.13090  Biso   1.000  H
  H54      1.0000 0.77800  0.72470  0.36910  Biso   1.000  H
  H55      1.0000 0.72200  0.22470  0.13090  Biso   1.000  H
  H56      1.0000 0.27800  0.22470  0.36910  Biso   1.000  H
  C49      1.0000 0.70179  0.32725  0.92953  Biso   1.000  C
  C50      1.0000 0.29821  0.32725  0.57047  Biso   1.000  C
  C51      1.0000 0.20179  0.82725  0.92953  Biso   1.000  C
  C52      1.0000 0.79821  0.82725  0.57047  Biso   1.000  C
  C53      1.0000 0.29821  0.67275  0.07047  Biso   1.000  C
  C54      1.0000 0.70179  0.67275  0.42953  Biso   1.000  C
  C55      1.0000 0.79821  0.17275  0.07047  Biso   1.000  C
  C56      1.0000 0.20179  0.17275  0.42953  Biso   1.000  C
  C57      1.0000 0.68415  0.41180  0.97868  Biso   1.000  C
  C58      1.0000 0.31585  0.41180  0.52132  Biso   1.000  C
  C59      1.0000 0.18415  0.91180  0.97868  Biso   1.000  C
  C60      1.0000 0.81585  0.91180  0.52132  Biso   1.000  C
  C61      1.0000 0.31585  0.58820  0.02132  Biso   1.000  C
  C62      1.0000 0.68415  0.58820  0.47868  Biso   1.000  C
  C63      1.0000 0.81585  0.08820  0.02132  Biso   1.000  C
  C64      1.0000 0.18415  0.08820  0.47868  Biso   1.000  C
  H57      1.0000 0.71560  0.47410  0.99700  Biso   1.000  H
  H58      1.0000 0.28440  0.47410  0.50300  Biso   1.000  H
  H59      1.0000 0.21560  0.97410  0.99700  Biso   1.000  H
  H60      1.0000 0.78440  0.97410  0.50300  Biso   1.000  H
  H61      1.0000 0.28440  0.52590  0.00300  Biso   1.000  H
  H62      1.0000 0.71560  0.52590  0.49700  Biso   1.000  H
  H63      1.0000 0.78440  0.02590  0.00300  Biso   1.000  H
  H64      1.0000 0.21560  0.02590  0.49700  Biso   1.000  H
  C65      1.0000 0.62096  0.40510  0.00071  Biso   1.000  C
  C66      1.0000 0.37904  0.40510  0.49929  Biso   1.000  C
  C67      1.0000 0.12096  0.90510  0.00071  Biso   1.000  C
  C68      1.0000 0.87904  0.90510  0.49929  Biso   1.000  C
  C69      1.0000 0.37904  0.59490  0.99929  Biso   1.000  C
  C70      1.0000 0.62096  0.59490  0.50071  Biso   1.000  C
  C71      1.0000 0.87904  0.09490  0.99929  Biso   1.000  C
  C72      1.0000 0.12096  0.09490  0.50071  Biso   1.000  C
  H65      1.0000 0.60890  0.46200  0.03450  Biso   1.000  H
  H66      1.0000 0.39110  0.46200  0.46550  Biso   1.000  H
  H67      1.0000 0.10890  0.96200  0.03450  Biso   1.000  H
  H68      1.0000 0.89110  0.96200  0.46550  Biso   1.000  H
  H69      1.0000 0.39110  0.53800  0.96550  Biso   1.000  H
  H70      1.0000 0.60890  0.53800  0.53450  Biso   1.000  H
  H71      1.0000 0.89110  0.03800  0.96550  Biso   1.000  H
  H72      1.0000 0.10890  0.03800  0.53450  Biso   1.000  H
  C73      1.0000 0.59181  0.22840  0.92465  Biso   1.000  C
  C74      1.0000 0.40819  0.22840  0.57535  Biso   1.000  C
  C75      1.0000 0.09181  0.72840  0.92465  Biso   1.000  C
  C76      1.0000 0.90819  0.72840  0.57535  Biso   1.000  C
  C77      1.0000 0.40819  0.77160  0.07535  Biso   1.000  C
  C78      1.0000 0.59181  0.77160  0.42465  Biso   1.000  C
  C79      1.0000 0.90819  0.27160  0.07535  Biso   1.000  C
  C80      1.0000 0.09181  0.27160  0.42465  Biso   1.000  C
  H73      1.0000 0.56030  0.16600  0.90680  Biso   1.000  H
  H74      1.0000 0.43970  0.16600  0.59320  Biso   1.000  H
  H75      1.0000 0.06030  0.66600  0.90680  Biso   1.000  H
  H76      1.0000 0.93970  0.66600  0.59320  Biso   1.000  H
  H77      1.0000 0.43970  0.83400  0.09320  Biso   1.000  H
  H78      1.0000 0.56030  0.83400  0.40680  Biso   1.000  H
  H79      1.0000 0.93970  0.33400  0.09320  Biso   1.000  H
  H80      1.0000 0.06030  0.33400  0.40680  Biso   1.000  H
  C81      1.0000 0.57557  0.31420  0.97275  Biso   1.000  C
  C82      1.0000 0.42443  0.31420  0.52725  Biso   1.000  C
  C83      1.0000 0.07557  0.81420  0.97275  Biso   1.000  C
  C84      1.0000 0.92443  0.81420  0.52725  Biso   1.000  C
  C85      1.0000 0.42443  0.68580  0.02725  Biso   1.000  C
  C86      1.0000 0.57557  0.68580  0.47275  Biso   1.000  C
  C87      1.0000 0.92443  0.18580  0.02725  Biso   1.000  C
  C88      1.0000 0.07557  0.18580  0.47275  Biso   1.000  C
  C89      1.0000 0.65574  0.23580  0.90302  Biso   1.000  C
  C90      1.0000 0.34426  0.23580  0.59698  Biso   1.000  C
  C91      1.0000 0.15574  0.73580  0.90302  Biso   1.000  C
  C92      1.0000 0.84426  0.73580  0.59698  Biso   1.000  C
  C93      1.0000 0.34426  0.76420  0.09698  Biso   1.000  C
  C94      1.0000 0.65574  0.76420  0.40302  Biso   1.000  C
  C95      1.0000 0.84426  0.26420  0.09698  Biso   1.000  C
  C96      1.0000 0.15574  0.26420  0.40302  Biso   1.000  C
  H81      1.0000 0.66790  0.17800  0.86990  Biso   1.000  H
  H82      1.0000 0.33210  0.17800  0.63010  Biso   1.000  H
  H83      1.0000 0.16790  0.67800  0.86990  Biso   1.000  H
  H84      1.0000 0.83210  0.67800  0.63010  Biso   1.000  H
  H85      1.0000 0.33210  0.82200  0.13010  Biso   1.000  H
  H86      1.0000 0.66790  0.82200  0.36990  Biso   1.000  H
  H87      1.0000 0.83210  0.32200  0.13010  Biso   1.000  H
  H88      1.0000 0.16790  0.32200  0.36990  Biso   1.000  H
  C97      1.0000 0.89157  0.36590  0.84221  Biso   1.000  C
  C98      1.0000 0.10843  0.36590  0.65779  Biso   1.000  C
  C99      1.0000 0.39157  0.86590  0.84221  Biso   1.000  C
  C100     1.0000 0.60843  0.86590  0.65779  Biso   1.000  C
  C101     1.0000 0.10843  0.63410  0.15779  Biso   1.000  C
  C102     1.0000 0.89157  0.63410  0.34221  Biso   1.000  C
  C103     1.0000 0.60843  0.13410  0.15779  Biso   1.000  C
  C104     1.0000 0.39157  0.13410  0.34221  Biso   1.000  C
  H89      1.0000 0.86390  0.31470  0.80780  Biso   1.000  H
  H90      1.0000 0.13610  0.31470  0.69220  Biso   1.000  H
  H91      1.0000 0.36390  0.81470  0.80780  Biso   1.000  H
  H92      1.0000 0.63610  0.81470  0.69220  Biso   1.000  H
  H93      1.0000 0.13610  0.68530  0.19220  Biso   1.000  H
  H94      1.0000 0.86390  0.68530  0.30780  Biso   1.000  H
  H95      1.0000 0.63610  0.18530  0.19220  Biso   1.000  H
  H96      1.0000 0.36390  0.18530  0.30780  Biso   1.000  H
  C105     1.0000 0.92874  0.47840  0.93664  Biso   1.000  C
  C106     1.0000 0.07126  0.47840  0.56336  Biso   1.000  C
  C107     1.0000 0.42874  0.97840  0.93664  Biso   1.000  C
  C108     1.0000 0.57126  0.97840  0.56336  Biso   1.000  C
  C109     1.0000 0.07126  0.52160  0.06336  Biso   1.000  C
  C110     1.0000 0.92874  0.52160  0.43664  Biso   1.000  C
  C111     1.0000 0.57126  0.02160  0.06336  Biso   1.000  C
  C112     1.0000 0.42874  0.02160  0.43664  Biso   1.000  C
  H97      1.0000 0.93080  0.52150  0.98130  Biso   1.000  H
  H98      1.0000 0.06920  0.52150  0.51870  Biso   1.000  H
  H99      1.0000 0.43080  0.02150  0.98130  Biso   1.000  H
  H100     1.0000 0.56920  0.02150  0.51870  Biso   1.000  H
  H101     1.0000 0.06920  0.47850  0.01870  Biso   1.000  H
  H102     1.0000 0.93080  0.47850  0.48130  Biso   1.000  H
  H103     1.0000 0.56920  0.97850  0.01870  Biso   1.000  H
  H104     1.0000 0.43080  0.97850  0.48130  Biso   1.000  H
  N41      1.0000 0.65568  0.19840  0.47011  Biso   1.000  N
  N42      1.0000 0.34432  0.19840  0.02989  Biso   1.000  N
  N43      1.0000 0.15568  0.69840  0.47011  Biso   1.000  N
  N44      1.0000 0.84432  0.69840  0.02989  Biso   1.000  N
  N45      1.0000 0.34432  0.80160  0.52989  Biso   1.000  N
  N46      1.0000 0.65568  0.80160  0.97011  Biso   1.000  N
  N47      1.0000 0.84432  0.30160  0.52989  Biso   1.000  N
  N48      1.0000 0.15568  0.30160  0.97011  Biso   1.000  N
  C113     1.0000 0.67803  0.21280  0.53069  Biso   1.000  C
  C114     1.0000 0.32197  0.21280  0.96931  Biso   1.000  C
  C115     1.0000 0.17803  0.71280  0.53069  Biso   1.000  C
  C116     1.0000 0.82197  0.71280  0.96931  Biso   1.000  C
  C117     1.0000 0.32197  0.78720  0.46931  Biso   1.000  C
  C118     1.0000 0.67803  0.78720  0.03069  Biso   1.000  C
  C119     1.0000 0.82197  0.28720  0.46931  Biso   1.000  C
  C120     1.0000 0.17803  0.28720  0.03069  Biso   1.000  C
  C121     1.0000 0.70609  0.22790  0.60794  Biso   1.000  C
  C122     1.0000 0.29391  0.22790  0.89206  Biso   1.000  C
  C123     1.0000 0.20609  0.72790  0.60794  Biso   1.000  C
  C124     1.0000 0.79391  0.72790  0.89206  Biso   1.000  C
  C125     1.0000 0.29391  0.77210  0.39206  Biso   1.000  C
  C126     1.0000 0.70609  0.77210  0.10794  Biso   1.000  C
  C127     1.0000 0.79391  0.27210  0.39206  Biso   1.000  C
  C128     1.0000 0.20609  0.27210  0.10794  Biso   1.000  C
  H105     1.0000 0.72240  0.31070  0.61700  Biso   1.000  H
  H106     1.0000 0.27760  0.31070  0.88300  Biso   1.000  H
  H107     1.0000 0.22240  0.81070  0.61700  Biso   1.000  H
  H108     1.0000 0.77760  0.81070  0.88300  Biso   1.000  H
  H109     1.0000 0.27760  0.68930  0.38300  Biso   1.000  H
  H110     1.0000 0.72240  0.68930  0.11700  Biso   1.000  H
  H111     1.0000 0.77760  0.18930  0.38300  Biso   1.000  H
  H112     1.0000 0.22240  0.18930  0.11700  Biso   1.000  H
  H113     1.0000 0.74460  0.17210  0.62230  Biso   1.000  H
  H114     1.0000 0.25540  0.17210  0.87770  Biso   1.000  H
  H115     1.0000 0.24460  0.67210  0.62230  Biso   1.000  H
  H116     1.0000 0.75540  0.67210  0.87770  Biso   1.000  H
  H117     1.0000 0.25540  0.82790  0.37770  Biso   1.000  H
  H118     1.0000 0.74460  0.82790  0.12230  Biso   1.000  H
  H119     1.0000 0.75540  0.32790  0.37770  Biso   1.000  H
  H120     1.0000 0.24460  0.32790  0.12230  Biso   1.000  H
  H121     1.0000 0.67030  0.21110  0.63680  Biso   1.000  H
  H122     1.0000 0.32970  0.21110  0.86320  Biso   1.000  H
  H123     1.0000 0.17030  0.71110  0.63680  Biso   1.000  H
  H124     1.0000 0.82970  0.71110  0.86320  Biso   1.000  H
  H125     1.0000 0.32970  0.78890  0.36320  Biso   1.000  H
  H126     1.0000 0.67030  0.78890  0.13680  Biso   1.000  H
  H127     1.0000 0.82970  0.28890  0.36320  Biso   1.000  H
  H128     1.0000 0.17030  0.28890  0.13680  Biso   1.000  H
  B1       1.0000 0.77459  0.03480  0.77775  Biso   1.000  B
  B2       1.0000 0.22541  0.03480  0.72225  Biso   1.000  B
  B3       1.0000 0.27459  0.53480  0.77775  Biso   1.000  B
  B4       1.0000 0.72541  0.53480  0.72225  Biso   1.000  B
  B5       1.0000 0.22541  0.96520  0.22225  Biso   1.000  B
  B6       1.0000 0.77459  0.96520  0.27775  Biso   1.000  B
  B7       1.0000 0.72541  0.46520  0.22225  Biso   1.000  B
  B8       1.0000 0.27459  0.46520  0.27775  Biso   1.000  B
  F1       1.0000 0.80275  0.14511  0.76703  Biso   1.000  F
  F2       1.0000 0.19725  0.14511  0.73297  Biso   1.000  F
  F3       1.0000 0.30275  0.64511  0.76703  Biso   1.000  F
  F4       1.0000 0.69725  0.64511  0.73297  Biso   1.000  F
  F5       1.0000 0.19725  0.85489  0.23297  Biso   1.000  F
  F6       1.0000 0.80275  0.85489  0.26703  Biso   1.000  F
  F7       1.0000 0.69725  0.35489  0.23297  Biso   1.000  F
  F8       1.0000 0.30275  0.35489  0.26703  Biso   1.000  F
  F9       1.0000 0.70576  0.03492  0.74075  Biso   1.000  F
  F10      1.0000 0.29424  0.03492  0.75925  Biso   1.000  F
  F11      1.0000 0.20576  0.53492  0.74075  Biso   1.000  F
  F12      1.0000 0.79424  0.53492  0.75925  Biso   1.000  F
  F13      1.0000 0.29424  0.96508  0.25925  Biso   1.000  F
  F14      1.0000 0.70576  0.96508  0.24075  Biso   1.000  F
  F15      1.0000 0.79424  0.46508  0.25925  Biso   1.000  F
  F16      1.0000 0.20576  0.46508  0.24075  Biso   1.000  F
  F17      1.0000 0.80565  0.94078  0.74962  Biso   1.000  F
  F18      1.0000 0.19435  0.94078  0.75038  Biso   1.000  F
  F19      1.0000 0.30565  0.44078  0.74962  Biso   1.000  F
  F20      1.0000 0.69435  0.44078  0.75038  Biso   1.000  F
  F21      1.0000 0.19435  0.05922  0.25038  Biso   1.000  F
  F22      1.0000 0.80565  0.05922  0.24962  Biso   1.000  F
  F23      1.0000 0.69435  0.55922  0.25038  Biso   1.000  F
  F24      1.0000 0.30565  0.55922  0.24962  Biso   1.000  F
  F25      1.0000 0.77020  0.01730  0.85069  Biso   1.000  F
  F26      1.0000 0.22980  0.01730  0.64931  Biso   1.000  F
  F27      1.0000 0.27020  0.51730  0.85069  Biso   1.000  F
  F28      1.0000 0.72980  0.51730  0.64931  Biso   1.000  F
  F29      1.0000 0.22980  0.98270  0.14931  Biso   1.000  F
  F30      1.0000 0.77020  0.98270  0.35069  Biso   1.000  F
  F31      1.0000 0.72980  0.48270  0.14931  Biso   1.000  F
  F32      1.0000 0.27020  0.48270  0.35069  Biso   1.000  F
  F33      1.0000 0.73410  0.03730  0.82210  Biso   1.000  F
  F34      1.0000 0.26590  0.03730  0.67790  Biso   1.000  F
  F35      1.0000 0.23410  0.53730  0.82210  Biso   1.000  F
  F36      1.0000 0.76590  0.53730  0.67790  Biso   1.000  F
  F37      1.0000 0.26590  0.96270  0.17790  Biso   1.000  F
  F38      1.0000 0.73410  0.96270  0.32210  Biso   1.000  F
  F39      1.0000 0.76590  0.46270  0.17790  Biso   1.000  F
  F40      1.0000 0.23410  0.46270  0.32210  Biso   1.000  F
  F41      1.0000 0.76230  0.97730  0.72220  Biso   1.000  F
  F42      1.0000 0.23770  0.97730  0.77780  Biso   1.000  F
  F43      1.0000 0.26230  0.47730  0.72220  Biso   1.000  F
  F44      1.0000 0.73770  0.47730  0.77780  Biso   1.000  F
  F45      1.0000 0.23770  0.02270  0.27780  Biso   1.000  F
  F46      1.0000 0.76230  0.02270  0.22220  Biso   1.000  F
  F47      1.0000 0.73770  0.52270  0.27780  Biso   1.000  F
  F48      1.0000 0.26230  0.52270  0.22220  Biso   1.000  F
  F49      1.0000 0.83620  0.98190  0.82340  Biso   1.000  F
  F50      1.0000 0.16380  0.98190  0.67660  Biso   1.000  F
  F51      1.0000 0.33620  0.48190  0.82340  Biso   1.000  F
  F52      1.0000 0.66380  0.48190  0.67660  Biso   1.000  F
  F53      1.0000 0.16380  0.01810  0.17660  Biso   1.000  F
  F54      1.0000 0.83620  0.01810  0.32340  Biso   1.000  F
  F55      1.0000 0.66380  0.51810  0.17660  Biso   1.000  F
  F56      1.0000 0.33620  0.51810  0.32340  Biso   1.000  F
