data_image0
_cell_length_a       7.895
_cell_length_b       7.8
_cell_length_c       12.873
_cell_angle_alpha    90
_cell_angle_beta     100.06
_cell_angle_gamma    90

_symmetry_space_group_name_H-M    "P 1"
_symmetry_int_tables_number       1

loop_
  _symmetry_equiv_pos_as_xyz
  'x, y, z'

loop_
  _atom_site_label
  _atom_site_occupancy
  _atom_site_fract_x
  _atom_site_fract_y
  _atom_site_fract_z
  _atom_site_thermal_displace_type
  _atom_site_B_iso_or_equiv
  _atom_site_type_symbol
  Cu1      1.0000 0.38700  0.69209  0.78931  Biso   1.000  Cu
  Cu2      1.0000 0.61300  0.19209  0.21069  Biso   1.000  Cu
  O1       1.0000 0.50760  0.83430  0.69962  Biso   1.000  O
  O2       1.0000 0.49240  0.33430  0.30038  Biso   1.000  O
  H1       1.0000 0.43540  0.90680  0.66320  Biso   1.000  H
  H2       1.0000 0.56460  0.40680  0.33680  Biso   1.000  H
  H3       1.0000 0.56370  0.77420  0.65970  Biso   1.000  H
  H4       1.0000 0.43630  0.27420  0.34030  Biso   1.000  H
  N1       1.0000 0.61300  0.60810  0.49920  Biso   1.000  N
  N2       1.0000 0.38700  0.10810  0.50080  Biso   1.000  N
  O3       1.0000 0.70640  0.67200  0.57927  Biso   1.000  O
  O4       1.0000 0.29360  0.17200  0.42073  Biso   1.000  O
  O5       1.0000 0.45910  0.57900  0.49780  Biso   1.000  O
  O6       1.0000 0.54090  0.07900  0.50220  Biso   1.000  O
  O7       1.0000 0.67770  0.57830  0.41760  Biso   1.000  O
  O8       1.0000 0.32230  0.07830  0.58240  Biso   1.000  O
  N3       1.0000 0.34790  0.58940  0.98500  Biso   1.000  N
  N4       1.0000 0.65210  0.08940  0.01500  Biso   1.000  N
  O9       1.0000 0.45540  0.70700  0.99987  Biso   1.000  O
  O10      1.0000 0.54460  0.20700  0.00013  Biso   1.000  O
  O11      1.0000 0.27640  0.55460  0.88831  Biso   1.000  O
  O12      1.0000 0.72360  0.05460  0.11169  Biso   1.000  O
  O13      1.0000 0.30470  0.50300  0.05665  Biso   1.000  O
  O14      1.0000 0.69530  0.00300  0.94335  Biso   1.000  O
  N5       1.0000 0.19170  0.54140  0.66050  Biso   1.000  N
  N6       1.0000 0.80830  0.04140  0.33950  Biso   1.000  N
  N7       1.0000 0.21600  0.87910  0.79572  Biso   1.000  N
  N8       1.0000 0.78400  0.37910  0.20428  Biso   1.000  N
  C1       1.0000 0.26480  0.03970  0.82430  Biso   1.000  C
  C2       1.0000 0.73520  0.53970  0.17570  Biso   1.000  C
  H5       1.0000 0.38430  0.06440  0.83990  Biso   1.000  H
  H6       1.0000 0.61570  0.56440  0.16010  Biso   1.000  H
  C3       1.0000 0.15020  0.17090  0.83210  Biso   1.000  C
  C4       1.0000 0.84980  0.67090  0.16790  Biso   1.000  C
  H7       1.0000 0.19050  0.28210  0.85390  Biso   1.000  H
  H8       1.0000 0.80950  0.78210  0.14610  Biso   1.000  H
  C5       1.0000 0.97330  0.13710  0.80730  Biso   1.000  C
  C6       1.0000 0.02670  0.63710  0.19270  Biso   1.000  C
  C7       1.0000 0.92320  0.97020  0.77950  Biso   1.000  C
  C8       1.0000 0.07680  0.47020  0.22050  Biso   1.000  C
  H9       1.0000 0.80440  0.94200  0.76360  Biso   1.000  H
  H10      1.0000 0.19560  0.44200  0.23640  Biso   1.000  H
  C9       1.0000 0.04480  0.84570  0.77510  Biso   1.000  C
  C10      1.0000 0.95520  0.34570  0.22490  Biso   1.000  C
  H11      1.0000 0.00770  0.73210  0.75690  Biso   1.000  H
  H12      1.0000 0.99230  0.23210  0.24310  Biso   1.000  H
  C11      1.0000 0.56220  0.38490  0.73400  Biso   1.000  C
  C12      1.0000 0.43780  0.88490  0.26600  Biso   1.000  C
  H13      1.0000 0.45830  0.37430  0.68450  Biso   1.000  H
  H14      1.0000 0.54170  0.87430  0.31550  Biso   1.000  H
  C13      1.0000 0.68710  0.26080  0.73480  Biso   1.000  C
  C14      1.0000 0.31290  0.76080  0.26520  Biso   1.000  C
  H15      1.0000 0.66860  0.16730  0.68690  Biso   1.000  H
  H16      1.0000 0.33140  0.66730  0.31310  Biso   1.000  H
  C15      1.0000 0.84060  0.27390  0.80660  Biso   1.000  C
  C16      1.0000 0.15940  0.77390  0.19340  Biso   1.000  C
  C17      1.0000 0.86140  0.41480  0.87450  Biso   1.000  C
  C18      1.0000 0.13860  0.91480  0.12550  Biso   1.000  C
  H17      1.0000 0.96440  0.42910  0.92430  Biso   1.000  H
  H18      1.0000 0.03560  0.92910  0.07570  Biso   1.000  H
  C19      1.0000 0.72880  0.53430  0.86830  Biso   1.000  C
  C20      1.0000 0.27120  0.03430  0.13170  Biso   1.000  C
  H19      1.0000 0.74390  0.63010  0.91450  Biso   1.000  H
  H20      1.0000 0.25610  0.13010  0.08550  Biso   1.000  H
  N9       1.0000 0.58040  0.51960  0.79950  Biso   1.000  N
  N10      1.0000 0.41960  0.01960  0.20050  Biso   1.000  N
  C21      1.0000 0.09940  0.44990  0.60600  Biso   1.000  C
  C22      1.0000 0.90060  0.94990  0.39400  Biso   1.000  C
  C23      1.0000 0.99040  0.33600  0.53790  Biso   1.000  C
  C24      1.0000 0.00960  0.83600  0.46210  Biso   1.000  C
  H21      1.0000 0.05820  0.27520  0.49260  Biso   1.000  H
  H22      1.0000 0.94180  0.77520  0.50740  Biso   1.000  H
  H23      1.0000 0.89890  0.40160  0.49400  Biso   1.000  H
  H24      1.0000 0.10110  0.90160  0.50600  Biso   1.000  H
  H25      1.0000 0.93920  0.25280  0.58040  Biso   1.000  H
  H26      1.0000 0.06080  0.75280  0.41960  Biso   1.000  H
