data_image0
_cell_length_a       18.837
_cell_length_b       18.837
_cell_length_c       32.12
_cell_angle_alpha    90
_cell_angle_beta     90
_cell_angle_gamma    120

_symmetry_space_group_name_H-M    "P 1"
_symmetry_int_tables_number       1

loop_
  _symmetry_equiv_pos_as_xyz
  'x, y, z'

loop_
  _atom_site_label
  _atom_site_occupancy
  _atom_site_fract_x
  _atom_site_fract_y
  _atom_site_fract_z
  _atom_site_thermal_displace_type
  _atom_site_B_iso_or_equiv
  _atom_site_type_symbol
  Cu1      1.0000 0.95502  0.47751  0.46527  Biso   1.000  Cu
  Cu2      1.0000 0.52249  0.47751  0.46527  Biso   1.000  Cu
  Cu3      1.0000 0.52249  0.04498  0.46527  Biso   1.000  Cu
  Cu4      1.0000 0.47751  0.52249  0.53473  Biso   1.000  Cu
  Cu5      1.0000 0.04498  0.52249  0.53473  Biso   1.000  Cu
  Cu6      1.0000 0.47751  0.95502  0.53473  Biso   1.000  Cu
  Cu7      1.0000 0.62169  0.81084  0.79860  Biso   1.000  Cu
  Cu8      1.0000 0.18916  0.81084  0.79860  Biso   1.000  Cu
  Cu9      1.0000 0.18916  0.37831  0.79860  Biso   1.000  Cu
  Cu10     1.0000 0.14418  0.85582  0.86806  Biso   1.000  Cu
  Cu11     1.0000 0.71165  0.85582  0.86806  Biso   1.000  Cu
  Cu12     1.0000 0.14418  0.28835  0.86806  Biso   1.000  Cu
  Cu13     1.0000 0.28835  0.14418  0.13194  Biso   1.000  Cu
  Cu14     1.0000 0.85582  0.14418  0.13194  Biso   1.000  Cu
  Cu15     1.0000 0.85582  0.71165  0.13194  Biso   1.000  Cu
  Cu16     1.0000 0.81084  0.18916  0.20140  Biso   1.000  Cu
  Cu17     1.0000 0.37831  0.18916  0.20140  Biso   1.000  Cu
  Cu18     1.0000 0.81084  0.62169  0.20140  Biso   1.000  Cu
  O1       1.0000 0.03412  0.59006  0.44910  Biso   1.000  O
  O2       1.0000 0.40994  0.44406  0.44910  Biso   1.000  O
  O3       1.0000 0.55594  0.96588  0.44910  Biso   1.000  O
  O4       1.0000 0.44406  0.40994  0.55090  Biso   1.000  O
  O5       1.0000 0.96588  0.55594  0.55090  Biso   1.000  O
  O6       1.0000 0.59006  0.03412  0.55090  Biso   1.000  O
  O7       1.0000 0.70079  0.92339  0.78243  Biso   1.000  O
  O8       1.0000 0.07661  0.77739  0.78243  Biso   1.000  O
  O9       1.0000 0.22261  0.29921  0.78243  Biso   1.000  O
  O10      1.0000 0.11073  0.74327  0.88423  Biso   1.000  O
  O11      1.0000 0.63255  0.88927  0.88423  Biso   1.000  O
  O12      1.0000 0.25673  0.36745  0.88423  Biso   1.000  O
  O13      1.0000 0.36745  0.25673  0.11577  Biso   1.000  O
  O14      1.0000 0.74327  0.11073  0.11577  Biso   1.000  O
  O15      1.0000 0.88927  0.63255  0.11577  Biso   1.000  O
  O16      1.0000 0.77739  0.07661  0.21757  Biso   1.000  O
  O17      1.0000 0.29921  0.22261  0.21757  Biso   1.000  O
  O18      1.0000 0.92339  0.70079  0.21757  Biso   1.000  O
  O19      1.0000 0.96588  0.40994  0.55090  Biso   1.000  O
  O20      1.0000 0.59006  0.55594  0.55090  Biso   1.000  O
  O21      1.0000 0.44406  0.03412  0.55090  Biso   1.000  O
  O22      1.0000 0.55594  0.59006  0.44910  Biso   1.000  O
  O23      1.0000 0.03412  0.44406  0.44910  Biso   1.000  O
  O24      1.0000 0.40994  0.96588  0.44910  Biso   1.000  O
  O25      1.0000 0.63255  0.74327  0.88423  Biso   1.000  O
  O26      1.0000 0.25673  0.88927  0.88423  Biso   1.000  O
  O27      1.0000 0.11073  0.36745  0.88423  Biso   1.000  O
  O28      1.0000 0.22261  0.92339  0.78243  Biso   1.000  O
  O29      1.0000 0.70079  0.77739  0.78243  Biso   1.000  O
  O30      1.0000 0.07661  0.29921  0.78243  Biso   1.000  O
  O31      1.0000 0.29921  0.07661  0.21757  Biso   1.000  O
  O32      1.0000 0.92339  0.22261  0.21757  Biso   1.000  O
  O33      1.0000 0.77739  0.70079  0.21757  Biso   1.000  O
  O34      1.0000 0.88927  0.25673  0.11577  Biso   1.000  O
  O35      1.0000 0.36745  0.11073  0.11577  Biso   1.000  O
  O36      1.0000 0.74327  0.63255  0.11577  Biso   1.000  O
  O37      1.0000 0.11082  0.62753  0.50701  Biso   1.000  O
  O38      1.0000 0.37247  0.48329  0.50701  Biso   1.000  O
  O39      1.0000 0.51671  0.88918  0.50701  Biso   1.000  O
  O40      1.0000 0.48329  0.37247  0.49299  Biso   1.000  O
  O41      1.0000 0.88918  0.51671  0.49299  Biso   1.000  O
  O42      1.0000 0.62753  0.11082  0.49299  Biso   1.000  O
  O43      1.0000 0.77749  0.96086  0.84034  Biso   1.000  O
  O44      1.0000 0.03914  0.81662  0.84034  Biso   1.000  O
  O45      1.0000 0.18338  0.22251  0.84034  Biso   1.000  O
  O46      1.0000 0.14996  0.70580  0.82632  Biso   1.000  O
  O47      1.0000 0.55585  0.85004  0.82632  Biso   1.000  O
  O48      1.0000 0.29420  0.44415  0.82632  Biso   1.000  O
  O49      1.0000 0.44415  0.29420  0.17368  Biso   1.000  O
  O50      1.0000 0.70580  0.14996  0.17368  Biso   1.000  O
  O51      1.0000 0.85004  0.55585  0.17368  Biso   1.000  O
  O52      1.0000 0.81662  0.03914  0.15966  Biso   1.000  O
  O53      1.0000 0.22251  0.18338  0.15966  Biso   1.000  O
  O54      1.0000 0.96086  0.77749  0.15966  Biso   1.000  O
  O55      1.0000 0.88918  0.37247  0.49299  Biso   1.000  O
  O56      1.0000 0.62753  0.51671  0.49299  Biso   1.000  O
  O57      1.0000 0.48329  0.11082  0.49299  Biso   1.000  O
  O58      1.0000 0.51671  0.62753  0.50701  Biso   1.000  O
  O59      1.0000 0.11082  0.48329  0.50701  Biso   1.000  O
  O60      1.0000 0.37247  0.88918  0.50701  Biso   1.000  O
  O61      1.0000 0.55585  0.70580  0.82632  Biso   1.000  O
  O62      1.0000 0.29420  0.85004  0.82632  Biso   1.000  O
  O63      1.0000 0.14996  0.44415  0.82632  Biso   1.000  O
  O64      1.0000 0.18338  0.96086  0.84034  Biso   1.000  O
  O65      1.0000 0.77749  0.81662  0.84034  Biso   1.000  O
  O66      1.0000 0.03914  0.22251  0.84034  Biso   1.000  O
  O67      1.0000 0.22251  0.03914  0.15966  Biso   1.000  O
  O68      1.0000 0.96086  0.18338  0.15966  Biso   1.000  O
  O69      1.0000 0.81662  0.77749  0.15966  Biso   1.000  O
  O70      1.0000 0.85004  0.29420  0.17368  Biso   1.000  O
  O71      1.0000 0.44415  0.14996  0.17368  Biso   1.000  O
  O72      1.0000 0.70580  0.55585  0.17368  Biso   1.000  O
  O73      1.0000 0.89520  0.44760  0.40630  Biso   1.000  O
  O74      1.0000 0.55240  0.44760  0.40630  Biso   1.000  O
  O75      1.0000 0.55240  0.10480  0.40630  Biso   1.000  O
  O76      1.0000 0.44760  0.55240  0.59370  Biso   1.000  O
  O77      1.0000 0.10480  0.55240  0.59370  Biso   1.000  O
  O78      1.0000 0.44760  0.89520  0.59370  Biso   1.000  O
  O79      1.0000 0.56187  0.78093  0.73963  Biso   1.000  O
  O80      1.0000 0.21907  0.78093  0.73963  Biso   1.000  O
  O81      1.0000 0.21907  0.43813  0.73963  Biso   1.000  O
  O82      1.0000 0.11427  0.88573  0.92703  Biso   1.000  O
  O83      1.0000 0.77147  0.88573  0.92703  Biso   1.000  O
  O84      1.0000 0.11427  0.22853  0.92703  Biso   1.000  O
  O85      1.0000 0.22853  0.11427  0.07297  Biso   1.000  O
  O86      1.0000 0.88573  0.11427  0.07297  Biso   1.000  O
  O87      1.0000 0.88573  0.77147  0.07297  Biso   1.000  O
  O88      1.0000 0.78093  0.21907  0.26037  Biso   1.000  O
  O89      1.0000 0.43813  0.21907  0.26037  Biso   1.000  O
  O90      1.0000 0.78093  0.56187  0.26037  Biso   1.000  O
  C1       1.0000 0.17380  0.82620  0.35011  Biso   1.000  C
  C2       1.0000 0.17380  0.34760  0.35011  Biso   1.000  C
  C3       1.0000 0.65240  0.82620  0.35011  Biso   1.000  C
  C4       1.0000 0.34760  0.17380  0.64989  Biso   1.000  C
  C5       1.0000 0.82620  0.65240  0.64989  Biso   1.000  C
  C6       1.0000 0.82620  0.17380  0.64989  Biso   1.000  C
  C7       1.0000 0.84047  0.15953  0.68344  Biso   1.000  C
  C8       1.0000 0.84047  0.68093  0.68344  Biso   1.000  C
  C9       1.0000 0.31907  0.15953  0.68344  Biso   1.000  C
  C10      1.0000 0.01427  0.50713  0.98322  Biso   1.000  C
  C11      1.0000 0.49287  0.98573  0.98322  Biso   1.000  C
  C12      1.0000 0.49287  0.50713  0.98322  Biso   1.000  C
  C13      1.0000 0.50713  0.49287  0.01678  Biso   1.000  C
  C14      1.0000 0.50713  0.01427  0.01678  Biso   1.000  C
  C15      1.0000 0.98573  0.49287  0.01678  Biso   1.000  C
  C16      1.0000 0.68093  0.84047  0.31656  Biso   1.000  C
  C17      1.0000 0.15953  0.31907  0.31656  Biso   1.000  C
  C18      1.0000 0.15953  0.84047  0.31656  Biso   1.000  C
  C19      1.0000 0.22499  0.77501  0.47028  Biso   1.000  C
  C20      1.0000 0.22499  0.44998  0.47028  Biso   1.000  C
  C21      1.0000 0.55002  0.77501  0.47028  Biso   1.000  C
  C22      1.0000 0.44998  0.22499  0.52972  Biso   1.000  C
  C23      1.0000 0.77501  0.55002  0.52972  Biso   1.000  C
  C24      1.0000 0.77501  0.22499  0.52972  Biso   1.000  C
  C25      1.0000 0.89166  0.10834  0.80361  Biso   1.000  C
  C26      1.0000 0.89166  0.78331  0.80361  Biso   1.000  C
  C27      1.0000 0.21669  0.10834  0.80361  Biso   1.000  C
  C28      1.0000 0.11665  0.55832  0.86305  Biso   1.000  C
  C29      1.0000 0.44168  0.88335  0.86305  Biso   1.000  C
  C30      1.0000 0.44168  0.55832  0.86305  Biso   1.000  C
  C31      1.0000 0.55832  0.44168  0.13695  Biso   1.000  C
  C32      1.0000 0.55832  0.11665  0.13695  Biso   1.000  C
  C33      1.0000 0.88335  0.44168  0.13695  Biso   1.000  C
  C34      1.0000 0.78331  0.89166  0.19639  Biso   1.000  C
  C35      1.0000 0.10834  0.21669  0.19639  Biso   1.000  C
  C36      1.0000 0.10834  0.89166  0.19639  Biso   1.000  C
  H1       1.0000 0.23640  0.76360  0.49710  Biso   1.000  H
  H2       1.0000 0.23640  0.47280  0.49710  Biso   1.000  H
  H3       1.0000 0.52720  0.76360  0.49710  Biso   1.000  H
  H4       1.0000 0.47280  0.23640  0.50290  Biso   1.000  H
  H5       1.0000 0.76360  0.52720  0.50290  Biso   1.000  H
  H6       1.0000 0.76360  0.23640  0.50290  Biso   1.000  H
  H7       1.0000 0.90307  0.09693  0.83043  Biso   1.000  H
  H8       1.0000 0.90307  0.80613  0.83043  Biso   1.000  H
  H9       1.0000 0.19387  0.09693  0.83043  Biso   1.000  H
  H10      1.0000 0.13947  0.56973  0.83623  Biso   1.000  H
  H11      1.0000 0.43027  0.86053  0.83623  Biso   1.000  H
  H12      1.0000 0.43027  0.56973  0.83623  Biso   1.000  H
  H13      1.0000 0.56973  0.43027  0.16377  Biso   1.000  H
  H14      1.0000 0.56973  0.13947  0.16377  Biso   1.000  H
  H15      1.0000 0.86053  0.43027  0.16377  Biso   1.000  H
  H16      1.0000 0.80613  0.90307  0.16957  Biso   1.000  H
  H17      1.0000 0.09693  0.19387  0.16957  Biso   1.000  H
  H18      1.0000 0.09693  0.90307  0.16957  Biso   1.000  H
  C37      1.0000 0.15297  0.71960  0.45075  Biso   1.000  C
  C38      1.0000 0.28040  0.43337  0.45075  Biso   1.000  C
  C39      1.0000 0.56663  0.84703  0.45075  Biso   1.000  C
  C40      1.0000 0.43337  0.28040  0.54925  Biso   1.000  C
  C41      1.0000 0.84703  0.56663  0.54925  Biso   1.000  C
  C42      1.0000 0.71960  0.15297  0.54925  Biso   1.000  C
  C43      1.0000 0.81964  0.05293  0.78408  Biso   1.000  C
  C44      1.0000 0.94707  0.76670  0.78408  Biso   1.000  C
  C45      1.0000 0.23330  0.18036  0.78408  Biso   1.000  C
  C46      1.0000 0.10004  0.61373  0.88258  Biso   1.000  C
  C47      1.0000 0.51370  0.89996  0.88258  Biso   1.000  C
  C48      1.0000 0.38627  0.48630  0.88258  Biso   1.000  C
  C49      1.0000 0.48630  0.38627  0.11742  Biso   1.000  C
  C50      1.0000 0.61373  0.10004  0.11742  Biso   1.000  C
  C51      1.0000 0.89996  0.51370  0.11742  Biso   1.000  C
  C52      1.0000 0.76670  0.94707  0.21592  Biso   1.000  C
  C53      1.0000 0.18036  0.23330  0.21592  Biso   1.000  C
  C54      1.0000 0.05293  0.81964  0.21592  Biso   1.000  C
  C55      1.0000 0.84703  0.28040  0.54925  Biso   1.000  C
  C56      1.0000 0.71960  0.56663  0.54925  Biso   1.000  C
  C57      1.0000 0.43337  0.15297  0.54925  Biso   1.000  C
  C58      1.0000 0.56663  0.71960  0.45075  Biso   1.000  C
  C59      1.0000 0.15297  0.43337  0.45075  Biso   1.000  C
  C60      1.0000 0.28040  0.84703  0.45075  Biso   1.000  C
  C61      1.0000 0.51370  0.61373  0.88258  Biso   1.000  C
  C62      1.0000 0.38627  0.89996  0.88258  Biso   1.000  C
  C63      1.0000 0.10004  0.48630  0.88258  Biso   1.000  C
  C64      1.0000 0.23330  0.05293  0.78408  Biso   1.000  C
  C65      1.0000 0.81964  0.76670  0.78408  Biso   1.000  C
  C66      1.0000 0.94707  0.18036  0.78408  Biso   1.000  C
  C67      1.0000 0.18036  0.94707  0.21592  Biso   1.000  C
  C68      1.0000 0.05293  0.23330  0.21592  Biso   1.000  C
  C69      1.0000 0.76670  0.81964  0.21592  Biso   1.000  C
  C70      1.0000 0.89996  0.38627  0.11742  Biso   1.000  C
  C71      1.0000 0.48630  0.10004  0.11742  Biso   1.000  C
  C72      1.0000 0.61373  0.51370  0.11742  Biso   1.000  C
  C73      1.0000 0.19051  0.80949  0.39104  Biso   1.000  C
  C74      1.0000 0.19051  0.38102  0.39104  Biso   1.000  C
  C75      1.0000 0.61898  0.80949  0.39104  Biso   1.000  C
  C76      1.0000 0.38102  0.19051  0.60896  Biso   1.000  C
  C77      1.0000 0.80949  0.61898  0.60896  Biso   1.000  C
  C78      1.0000 0.80949  0.19051  0.60896  Biso   1.000  C
  C79      1.0000 0.85718  0.14282  0.72437  Biso   1.000  C
  C80      1.0000 0.85718  0.71435  0.72437  Biso   1.000  C
  C81      1.0000 0.28565  0.14282  0.72437  Biso   1.000  C
  C82      1.0000 0.04769  0.52384  0.94229  Biso   1.000  C
  C83      1.0000 0.47616  0.95231  0.94229  Biso   1.000  C
  C84      1.0000 0.47616  0.52384  0.94229  Biso   1.000  C
  C85      1.0000 0.52384  0.47616  0.05771  Biso   1.000  C
  C86      1.0000 0.52384  0.04769  0.05771  Biso   1.000  C
  C87      1.0000 0.95231  0.47616  0.05771  Biso   1.000  C
  C88      1.0000 0.71435  0.85718  0.27563  Biso   1.000  C
  C89      1.0000 0.14282  0.28565  0.27563  Biso   1.000  C
  C90      1.0000 0.14282  0.85718  0.27563  Biso   1.000  C
  C91      1.0000 0.13502  0.73630  0.41130  Biso   1.000  C
  C92      1.0000 0.26370  0.39872  0.41130  Biso   1.000  C
  C93      1.0000 0.60128  0.86498  0.41130  Biso   1.000  C
  C94      1.0000 0.39872  0.26370  0.58870  Biso   1.000  C
  C95      1.0000 0.86498  0.60128  0.58870  Biso   1.000  C
  C96      1.0000 0.73630  0.13502  0.58870  Biso   1.000  C
  C97      1.0000 0.80169  0.06963  0.74463  Biso   1.000  C
  C98      1.0000 0.93037  0.73205  0.74463  Biso   1.000  C
  C99      1.0000 0.26795  0.19831  0.74463  Biso   1.000  C
  C100     1.0000 0.06539  0.59703  0.92203  Biso   1.000  C
  C101     1.0000 0.53165  0.93461  0.92203  Biso   1.000  C
  C102     1.0000 0.40297  0.46835  0.92203  Biso   1.000  C
  C103     1.0000 0.46835  0.40297  0.07797  Biso   1.000  C
  C104     1.0000 0.59703  0.06539  0.07797  Biso   1.000  C
  C105     1.0000 0.93461  0.53165  0.07797  Biso   1.000  C
  C106     1.0000 0.73205  0.93037  0.25537  Biso   1.000  C
  C107     1.0000 0.19831  0.26795  0.25537  Biso   1.000  C
  C108     1.0000 0.06963  0.80169  0.25537  Biso   1.000  C
  C109     1.0000 0.86498  0.26370  0.58870  Biso   1.000  C
  C110     1.0000 0.73630  0.60128  0.58870  Biso   1.000  C
  C111     1.0000 0.39872  0.13502  0.58870  Biso   1.000  C
  C112     1.0000 0.60128  0.73630  0.41130  Biso   1.000  C
  C113     1.0000 0.13502  0.39872  0.41130  Biso   1.000  C
  C114     1.0000 0.26370  0.86498  0.41130  Biso   1.000  C
  C115     1.0000 0.53165  0.59703  0.92203  Biso   1.000  C
  C116     1.0000 0.40297  0.93461  0.92203  Biso   1.000  C
  C117     1.0000 0.06539  0.46835  0.92203  Biso   1.000  C
  C118     1.0000 0.26795  0.06963  0.74463  Biso   1.000  C
  C119     1.0000 0.80169  0.73205  0.74463  Biso   1.000  C
  C120     1.0000 0.93037  0.19831  0.74463  Biso   1.000  C
  C121     1.0000 0.19831  0.93037  0.25537  Biso   1.000  C
  C122     1.0000 0.06963  0.26795  0.25537  Biso   1.000  C
  C123     1.0000 0.73205  0.80169  0.25537  Biso   1.000  C
  C124     1.0000 0.93461  0.40297  0.07797  Biso   1.000  C
  C125     1.0000 0.46835  0.06539  0.07797  Biso   1.000  C
  C126     1.0000 0.59703  0.53165  0.07797  Biso   1.000  C
  H19      1.0000 0.08580  0.69870  0.39810  Biso   1.000  H
  H20      1.0000 0.30130  0.38710  0.39810  Biso   1.000  H
  H21      1.0000 0.61290  0.91420  0.39810  Biso   1.000  H
  H22      1.0000 0.38710  0.30130  0.60190  Biso   1.000  H
  H23      1.0000 0.91420  0.61290  0.60190  Biso   1.000  H
  H24      1.0000 0.69870  0.08580  0.60190  Biso   1.000  H
  H25      1.0000 0.75247  0.03203  0.73143  Biso   1.000  H
  H26      1.0000 0.96797  0.72043  0.73143  Biso   1.000  H
  H27      1.0000 0.27957  0.24753  0.73143  Biso   1.000  H
  H28      1.0000 0.05377  0.63463  0.93523  Biso   1.000  H
  H29      1.0000 0.58087  0.94623  0.93523  Biso   1.000  H
  H30      1.0000 0.36537  0.41913  0.93523  Biso   1.000  H
  H31      1.0000 0.41913  0.36537  0.06477  Biso   1.000  H
  H32      1.0000 0.63463  0.05377  0.06477  Biso   1.000  H
  H33      1.0000 0.94623  0.58087  0.06477  Biso   1.000  H
  H34      1.0000 0.72043  0.96797  0.26857  Biso   1.000  H
  H35      1.0000 0.24753  0.27957  0.26857  Biso   1.000  H
  H36      1.0000 0.03203  0.75247  0.26857  Biso   1.000  H
  H37      1.0000 0.91420  0.30130  0.60190  Biso   1.000  H
  H38      1.0000 0.69870  0.61290  0.60190  Biso   1.000  H
  H39      1.0000 0.38710  0.08580  0.60190  Biso   1.000  H
  H40      1.0000 0.61290  0.69870  0.39810  Biso   1.000  H
  H41      1.0000 0.08580  0.38710  0.39810  Biso   1.000  H
  H42      1.0000 0.30130  0.91420  0.39810  Biso   1.000  H
  H43      1.0000 0.58087  0.63463  0.93523  Biso   1.000  H
  H44      1.0000 0.36537  0.94623  0.93523  Biso   1.000  H
  H45      1.0000 0.05377  0.41913  0.93523  Biso   1.000  H
  H46      1.0000 0.27957  0.03203  0.73143  Biso   1.000  H
  H47      1.0000 0.75247  0.72043  0.73143  Biso   1.000  H
  H48      1.0000 0.96797  0.24753  0.73143  Biso   1.000  H
  H49      1.0000 0.24753  0.96797  0.26857  Biso   1.000  H
  H50      1.0000 0.03203  0.27957  0.26857  Biso   1.000  H
  H51      1.0000 0.72043  0.75247  0.26857  Biso   1.000  H
  H52      1.0000 0.94623  0.36537  0.06477  Biso   1.000  H
  H53      1.0000 0.41913  0.05377  0.06477  Biso   1.000  H
  H54      1.0000 0.63463  0.58087  0.06477  Biso   1.000  H
  C127     1.0000 0.09436  0.64038  0.47101  Biso   1.000  C
  C128     1.0000 0.35962  0.45398  0.47101  Biso   1.000  C
  C129     1.0000 0.54602  0.90564  0.47101  Biso   1.000  C
  C130     1.0000 0.45398  0.35962  0.52899  Biso   1.000  C
  C131     1.0000 0.90564  0.54602  0.52899  Biso   1.000  C
  C132     1.0000 0.64038  0.09436  0.52899  Biso   1.000  C
  C133     1.0000 0.76103  0.97371  0.80434  Biso   1.000  C
  C134     1.0000 0.02629  0.78731  0.80434  Biso   1.000  C
  C135     1.0000 0.21269  0.23897  0.80434  Biso   1.000  C
  C136     1.0000 0.12065  0.69295  0.86232  Biso   1.000  C
  C137     1.0000 0.57231  0.87935  0.86232  Biso   1.000  C
  C138     1.0000 0.30705  0.42769  0.86232  Biso   1.000  C
  C139     1.0000 0.42769  0.30705  0.13768  Biso   1.000  C
  C140     1.0000 0.69295  0.12065  0.13768  Biso   1.000  C
  C141     1.0000 0.87935  0.57231  0.13768  Biso   1.000  C
  C142     1.0000 0.78731  0.02629  0.19566  Biso   1.000  C
  C143     1.0000 0.23897  0.21269  0.19566  Biso   1.000  C
  C144     1.0000 0.97371  0.76103  0.19566  Biso   1.000  C
  C145     1.0000 0.90564  0.35962  0.52899  Biso   1.000  C
  C146     1.0000 0.64038  0.54602  0.52899  Biso   1.000  C
  C147     1.0000 0.45398  0.09436  0.52899  Biso   1.000  C
  C148     1.0000 0.54602  0.64038  0.47101  Biso   1.000  C
  C149     1.0000 0.09436  0.45398  0.47101  Biso   1.000  C
  C150     1.0000 0.35962  0.90564  0.47101  Biso   1.000  C
  C151     1.0000 0.57231  0.69295  0.86232  Biso   1.000  C
  C152     1.0000 0.30705  0.87935  0.86232  Biso   1.000  C
  C153     1.0000 0.12065  0.42769  0.86232  Biso   1.000  C
  C154     1.0000 0.21269  0.97371  0.80434  Biso   1.000  C
  C155     1.0000 0.76103  0.78731  0.80434  Biso   1.000  C
  C156     1.0000 0.02629  0.23897  0.80434  Biso   1.000  C
  C157     1.0000 0.23897  0.02629  0.19566  Biso   1.000  C
  C158     1.0000 0.97371  0.21269  0.19566  Biso   1.000  C
  C159     1.0000 0.78731  0.76103  0.19566  Biso   1.000  C
  C160     1.0000 0.87935  0.30705  0.13768  Biso   1.000  C
  C161     1.0000 0.42769  0.12065  0.13768  Biso   1.000  C
  C162     1.0000 0.69295  0.57231  0.13768  Biso   1.000  C
