data_image0
_cell_length_a       23.773
_cell_length_b       23.773
_cell_length_c       19.072
_cell_angle_alpha    90
_cell_angle_beta     90
_cell_angle_gamma    120

_symmetry_space_group_name_H-M    "P 1"
_symmetry_int_tables_number       1

loop_
  _symmetry_equiv_pos_as_xyz
  'x, y, z'

loop_
  _atom_site_label
  _atom_site_occupancy
  _atom_site_fract_x
  _atom_site_fract_y
  _atom_site_fract_z
  _atom_site_thermal_displace_type
  _atom_site_B_iso_or_equiv
  _atom_site_type_symbol
  Cu1      1.0000 0.26999  0.13499  0.15502  Biso   1.000  Cu
  Cu2      1.0000 0.86501  0.13500  0.15502  Biso   1.000  Cu
  Cu3      1.0000 0.86500  0.73001  0.15502  Biso   1.000  Cu
  Cu4      1.0000 0.13500  0.86501  0.84498  Biso   1.000  Cu
  Cu5      1.0000 0.73001  0.86500  0.84498  Biso   1.000  Cu
  Cu6      1.0000 0.13499  0.26999  0.84498  Biso   1.000  Cu
  Cu7      1.0000 0.93666  0.46832  0.48835  Biso   1.000  Cu
  Cu8      1.0000 0.53168  0.46833  0.48835  Biso   1.000  Cu
  Cu9      1.0000 0.53167  0.06334  0.48835  Biso   1.000  Cu
  Cu10     1.0000 0.80167  0.19834  0.17831  Biso   1.000  Cu
  Cu11     1.0000 0.39668  0.19833  0.17831  Biso   1.000  Cu
  Cu12     1.0000 0.80166  0.60332  0.17831  Biso   1.000  Cu
  Cu13     1.0000 0.60332  0.80166  0.82169  Biso   1.000  Cu
  Cu14     1.0000 0.19834  0.80167  0.82169  Biso   1.000  Cu
  Cu15     1.0000 0.19833  0.39668  0.82169  Biso   1.000  Cu
  Cu16     1.0000 0.46833  0.53168  0.51165  Biso   1.000  Cu
  Cu17     1.0000 0.06334  0.53167  0.51165  Biso   1.000  Cu
  Cu18     1.0000 0.46832  0.93666  0.51165  Biso   1.000  Cu
  O1       1.0000 0.27067  0.19410  0.22680  Biso   1.000  O
  O2       1.0000 0.80590  0.07657  0.22680  Biso   1.000  O
  O3       1.0000 0.92343  0.72933  0.22680  Biso   1.000  O
  O4       1.0000 0.07657  0.80590  0.77320  Biso   1.000  O
  O5       1.0000 0.72933  0.92343  0.77320  Biso   1.000  O
  O6       1.0000 0.19410  0.27067  0.77320  Biso   1.000  O
  O7       1.0000 0.93734  0.52743  0.56013  Biso   1.000  O
  O8       1.0000 0.47257  0.40990  0.56013  Biso   1.000  O
  O9       1.0000 0.59010  0.06266  0.56013  Biso   1.000  O
  O10      1.0000 0.74324  0.13923  0.10653  Biso   1.000  O
  O11      1.0000 0.39600  0.25676  0.10653  Biso   1.000  O
  O12      1.0000 0.86077  0.60400  0.10653  Biso   1.000  O
  O13      1.0000 0.60400  0.86077  0.89347  Biso   1.000  O
  O14      1.0000 0.13923  0.74324  0.89347  Biso   1.000  O
  O15      1.0000 0.25676  0.39600  0.89347  Biso   1.000  O
  O16      1.0000 0.40990  0.47257  0.43987  Biso   1.000  O
  O17      1.0000 0.06266  0.59010  0.43987  Biso   1.000  O
  O18      1.0000 0.52743  0.93734  0.43987  Biso   1.000  O
  O19      1.0000 0.72933  0.80590  0.77320  Biso   1.000  O
  O20      1.0000 0.19410  0.92343  0.77320  Biso   1.000  O
  O21      1.0000 0.07657  0.27067  0.77320  Biso   1.000  O
  O22      1.0000 0.92343  0.19410  0.22680  Biso   1.000  O
  O23      1.0000 0.27067  0.07657  0.22680  Biso   1.000  O
  O24      1.0000 0.80590  0.72933  0.22680  Biso   1.000  O
  O25      1.0000 0.39600  0.13923  0.10653  Biso   1.000  O
  O26      1.0000 0.86077  0.25676  0.10653  Biso   1.000  O
  O27      1.0000 0.74324  0.60400  0.10653  Biso   1.000  O
  O28      1.0000 0.59010  0.52743  0.56013  Biso   1.000  O
  O29      1.0000 0.93734  0.40990  0.56013  Biso   1.000  O
  O30      1.0000 0.47257  0.06266  0.56013  Biso   1.000  O
  O31      1.0000 0.06266  0.47257  0.43987  Biso   1.000  O
  O32      1.0000 0.52743  0.59010  0.43987  Biso   1.000  O
  O33      1.0000 0.40990  0.93734  0.43987  Biso   1.000  O
  O34      1.0000 0.25676  0.86077  0.89347  Biso   1.000  O
  O35      1.0000 0.60400  0.74324  0.89347  Biso   1.000  O
  O36      1.0000 0.13923  0.39600  0.89347  Biso   1.000  O
  C1       1.0000 0.32150  0.23800  0.25350  Biso   1.000  C
  C2       1.0000 0.76200  0.08350  0.25350  Biso   1.000  C
  C3       1.0000 0.91650  0.67850  0.25350  Biso   1.000  C
  C4       1.0000 0.08350  0.76200  0.74650  Biso   1.000  C
  C5       1.0000 0.67850  0.91650  0.74650  Biso   1.000  C
  C6       1.0000 0.23800  0.32150  0.74650  Biso   1.000  C
  C7       1.0000 0.98817  0.57133  0.58683  Biso   1.000  C
  C8       1.0000 0.42867  0.41683  0.58683  Biso   1.000  C
  C9       1.0000 0.58317  0.01183  0.58683  Biso   1.000  C
  C10      1.0000 0.75017  0.09533  0.07983  Biso   1.000  C
  C11      1.0000 0.34517  0.24983  0.07983  Biso   1.000  C
  C12      1.0000 0.90467  0.65483  0.07983  Biso   1.000  C
  C13      1.0000 0.65483  0.90467  0.92017  Biso   1.000  C
  C14      1.0000 0.09533  0.75017  0.92017  Biso   1.000  C
  C15      1.0000 0.24983  0.34517  0.92017  Biso   1.000  C
  C16      1.0000 0.41683  0.42867  0.41317  Biso   1.000  C
  C17      1.0000 0.01183  0.58317  0.41317  Biso   1.000  C
  C18      1.0000 0.57133  0.98817  0.41317  Biso   1.000  C
  C19      1.0000 0.67850  0.76200  0.74650  Biso   1.000  C
  C20      1.0000 0.23800  0.91650  0.74650  Biso   1.000  C
  C21      1.0000 0.08350  0.32150  0.74650  Biso   1.000  C
  C22      1.0000 0.91650  0.23800  0.25350  Biso   1.000  C
  C23      1.0000 0.32150  0.08350  0.25350  Biso   1.000  C
  C24      1.0000 0.76200  0.67850  0.25350  Biso   1.000  C
  C25      1.0000 0.34517  0.09533  0.07983  Biso   1.000  C
  C26      1.0000 0.90467  0.24983  0.07983  Biso   1.000  C
  C27      1.0000 0.75017  0.65483  0.07983  Biso   1.000  C
  C28      1.0000 0.58317  0.57133  0.58683  Biso   1.000  C
  C29      1.0000 0.98817  0.41683  0.58683  Biso   1.000  C
  C30      1.0000 0.42867  0.01183  0.58683  Biso   1.000  C
  C31      1.0000 0.01183  0.42867  0.41317  Biso   1.000  C
  C32      1.0000 0.57133  0.58317  0.41317  Biso   1.000  C
  C33      1.0000 0.41683  0.98817  0.41317  Biso   1.000  C
  C34      1.0000 0.24983  0.90467  0.92017  Biso   1.000  C
  C35      1.0000 0.65483  0.75017  0.92017  Biso   1.000  C
  C36      1.0000 0.09533  0.34517  0.92017  Biso   1.000  C
  O37      1.0000 0.37750  0.24680  0.24670  Biso   1.000  O
  O38      1.0000 0.75320  0.13070  0.24670  Biso   1.000  O
  O39      1.0000 0.86930  0.62250  0.24670  Biso   1.000  O
  O40      1.0000 0.13070  0.75320  0.75330  Biso   1.000  O
  O41      1.0000 0.62250  0.86930  0.75330  Biso   1.000  O
  O42      1.0000 0.24680  0.37750  0.75330  Biso   1.000  O
  O43      1.0000 0.04417  0.58013  0.58003  Biso   1.000  O
  O44      1.0000 0.41987  0.46403  0.58003  Biso   1.000  O
  O45      1.0000 0.53597  0.95583  0.58003  Biso   1.000  O
  O46      1.0000 0.79737  0.08653  0.08663  Biso   1.000  O
  O47      1.0000 0.28917  0.20263  0.08663  Biso   1.000  O
  O48      1.0000 0.91347  0.71083  0.08663  Biso   1.000  O
  O49      1.0000 0.71083  0.91347  0.91337  Biso   1.000  O
  O50      1.0000 0.08653  0.79737  0.91337  Biso   1.000  O
  O51      1.0000 0.20263  0.28917  0.91337  Biso   1.000  O
  O52      1.0000 0.46403  0.41987  0.41997  Biso   1.000  O
  O53      1.0000 0.95583  0.53597  0.41997  Biso   1.000  O
  O54      1.0000 0.58013  0.04417  0.41997  Biso   1.000  O
  O55      1.0000 0.62250  0.75320  0.75330  Biso   1.000  O
  O56      1.0000 0.24680  0.86930  0.75330  Biso   1.000  O
  O57      1.0000 0.13070  0.37750  0.75330  Biso   1.000  O
  O58      1.0000 0.86930  0.24680  0.24670  Biso   1.000  O
  O59      1.0000 0.37750  0.13070  0.24670  Biso   1.000  O
  O60      1.0000 0.75320  0.62250  0.24670  Biso   1.000  O
  O61      1.0000 0.28917  0.08653  0.08663  Biso   1.000  O
  O62      1.0000 0.91347  0.20263  0.08663  Biso   1.000  O
  O63      1.0000 0.79737  0.71083  0.08663  Biso   1.000  O
  O64      1.0000 0.53597  0.58013  0.58003  Biso   1.000  O
  O65      1.0000 0.04417  0.46403  0.58003  Biso   1.000  O
  O66      1.0000 0.41987  0.95583  0.58003  Biso   1.000  O
  O67      1.0000 0.95583  0.41987  0.41997  Biso   1.000  O
  O68      1.0000 0.58013  0.53597  0.41997  Biso   1.000  O
  O69      1.0000 0.46403  0.04417  0.41997  Biso   1.000  O
  O70      1.0000 0.20263  0.91347  0.91337  Biso   1.000  O
  O71      1.0000 0.71083  0.79737  0.91337  Biso   1.000  O
  O72      1.0000 0.08653  0.28917  0.91337  Biso   1.000  O
  C37      1.0000 0.31450  0.28590  0.29660  Biso   1.000  C
  C38      1.0000 0.71410  0.02860  0.29660  Biso   1.000  C
  C39      1.0000 0.97140  0.68550  0.29660  Biso   1.000  C
  C40      1.0000 0.02860  0.71410  0.70340  Biso   1.000  C
  C41      1.0000 0.68550  0.97140  0.70340  Biso   1.000  C
  C42      1.0000 0.28590  0.31450  0.70340  Biso   1.000  C
  C43      1.0000 0.98117  0.61923  0.62993  Biso   1.000  C
  C44      1.0000 0.38077  0.36193  0.62993  Biso   1.000  C
  C45      1.0000 0.63807  0.01883  0.62993  Biso   1.000  C
  C46      1.0000 0.69527  0.04743  0.03673  Biso   1.000  C
  C47      1.0000 0.35217  0.30473  0.03673  Biso   1.000  C
  C48      1.0000 0.95257  0.64783  0.03673  Biso   1.000  C
  C49      1.0000 0.64783  0.95257  0.96327  Biso   1.000  C
  C50      1.0000 0.04743  0.69527  0.96327  Biso   1.000  C
  C51      1.0000 0.30473  0.35217  0.96327  Biso   1.000  C
  C52      1.0000 0.36193  0.38077  0.37007  Biso   1.000  C
  C53      1.0000 0.01883  0.63807  0.37007  Biso   1.000  C
  C54      1.0000 0.61923  0.98117  0.37007  Biso   1.000  C
  C55      1.0000 0.68550  0.71410  0.70340  Biso   1.000  C
  C56      1.0000 0.28590  0.97140  0.70340  Biso   1.000  C
  C57      1.0000 0.02860  0.31450  0.70340  Biso   1.000  C
  C58      1.0000 0.97140  0.28590  0.29660  Biso   1.000  C
  C59      1.0000 0.31450  0.02860  0.29660  Biso   1.000  C
  C60      1.0000 0.71410  0.68550  0.29660  Biso   1.000  C
  C61      1.0000 0.35217  0.04743  0.03673  Biso   1.000  C
  C62      1.0000 0.95257  0.30473  0.03673  Biso   1.000  C
  C63      1.0000 0.69527  0.64783  0.03673  Biso   1.000  C
  C64      1.0000 0.63807  0.61923  0.62993  Biso   1.000  C
  C65      1.0000 0.98117  0.36193  0.62993  Biso   1.000  C
  C66      1.0000 0.38077  0.01883  0.62993  Biso   1.000  C
  C67      1.0000 0.01883  0.38077  0.37007  Biso   1.000  C
  C68      1.0000 0.61923  0.63807  0.37007  Biso   1.000  C
  C69      1.0000 0.36193  0.98117  0.37007  Biso   1.000  C
  C70      1.0000 0.30473  0.95257  0.96327  Biso   1.000  C
  C71      1.0000 0.64783  0.69527  0.96327  Biso   1.000  C
  C72      1.0000 0.04743  0.35217  0.96327  Biso   1.000  C
  O73      1.0000 0.16780  0.08390  0.14390  Biso   1.000  O
  O74      1.0000 0.91610  0.08390  0.14390  Biso   1.000  O
  O75      1.0000 0.91610  0.83220  0.14390  Biso   1.000  O
  O76      1.0000 0.08390  0.91610  0.85610  Biso   1.000  O
  O77      1.0000 0.83220  0.91610  0.85610  Biso   1.000  O
  O78      1.0000 0.08390  0.16780  0.85610  Biso   1.000  O
  O79      1.0000 0.83447  0.41723  0.47723  Biso   1.000  O
  O80      1.0000 0.58277  0.41723  0.47723  Biso   1.000  O
  O81      1.0000 0.58277  0.16553  0.47723  Biso   1.000  O
  O82      1.0000 0.75057  0.24943  0.18943  Biso   1.000  O
  O83      1.0000 0.49887  0.24943  0.18943  Biso   1.000  O
  O84      1.0000 0.75057  0.50113  0.18943  Biso   1.000  O
  O85      1.0000 0.50113  0.75057  0.81057  Biso   1.000  O
  O86      1.0000 0.24943  0.75057  0.81057  Biso   1.000  O
  O87      1.0000 0.24943  0.49887  0.81057  Biso   1.000  O
  O88      1.0000 0.41723  0.58277  0.52277  Biso   1.000  O
  O89      1.0000 0.16553  0.58277  0.52277  Biso   1.000  O
  O90      1.0000 0.41723  0.83447  0.52277  Biso   1.000  O
  C73      1.0000 0.36690  0.33330  0.33330  Biso   1.000  C
  C74      1.0000 0.66670  0.03360  0.33330  Biso   1.000  C
  C75      1.0000 0.96640  0.63310  0.33330  Biso   1.000  C
  C76      1.0000 0.03360  0.66670  0.66670  Biso   1.000  C
  C77      1.0000 0.63310  0.96640  0.66670  Biso   1.000  C
  C78      1.0000 0.33330  0.36690  0.66670  Biso   1.000  C
  C79      1.0000 0.70027  0.00003  0.00003  Biso   1.000  C
  C80      1.0000 0.29977  0.29973  0.00003  Biso   1.000  C
  C81      1.0000 0.99997  0.70023  0.00003  Biso   1.000  C
  C82      1.0000 0.63310  0.66670  0.66670  Biso   1.000  C
  C83      1.0000 0.33330  0.96640  0.66670  Biso   1.000  C
  C84      1.0000 0.03360  0.36690  0.66670  Biso   1.000  C
  C85      1.0000 0.96640  0.33330  0.33330  Biso   1.000  C
  C86      1.0000 0.36690  0.03360  0.33330  Biso   1.000  C
  C87      1.0000 0.66670  0.63310  0.33330  Biso   1.000  C
  C88      1.0000 0.29977  0.00003  0.00003  Biso   1.000  C
  C89      1.0000 0.99997  0.29973  0.00003  Biso   1.000  C
  C90      1.0000 0.70027  0.70023  0.00003  Biso   1.000  C
  H1       1.0000 0.40690  0.33330  0.33330  Biso   1.000  H
  H2       1.0000 0.66670  0.07360  0.33330  Biso   1.000  H
  H3       1.0000 0.92640  0.59310  0.33330  Biso   1.000  H
  H4       1.0000 0.07360  0.66670  0.66670  Biso   1.000  H
  H5       1.0000 0.59310  0.92640  0.66670  Biso   1.000  H
  H6       1.0000 0.33330  0.40690  0.66670  Biso   1.000  H
  H7       1.0000 0.74027  0.00003  0.00003  Biso   1.000  H
  H8       1.0000 0.25977  0.25973  0.00003  Biso   1.000  H
  H9       1.0000 0.99997  0.74023  0.00003  Biso   1.000  H
  H10      1.0000 0.59310  0.66670  0.66670  Biso   1.000  H
  H11      1.0000 0.33330  0.92640  0.66670  Biso   1.000  H
  H12      1.0000 0.07360  0.40690  0.66670  Biso   1.000  H
  H13      1.0000 0.92640  0.33330  0.33330  Biso   1.000  H
  H14      1.0000 0.40690  0.07360  0.33330  Biso   1.000  H
  H15      1.0000 0.66670  0.59310  0.33330  Biso   1.000  H
  H16      1.0000 0.25977  0.00003  0.00003  Biso   1.000  H
  H17      1.0000 0.99997  0.25973  0.00003  Biso   1.000  H
  H18      1.0000 0.74027  0.74023  0.00003  Biso   1.000  H
  C91      1.0000 0.25660  0.28580  0.29660  Biso   1.000  C
  C92      1.0000 0.71420  0.97080  0.29660  Biso   1.000  C
  C93      1.0000 0.02920  0.74340  0.29660  Biso   1.000  C
  C94      1.0000 0.97080  0.71420  0.70340  Biso   1.000  C
  C95      1.0000 0.74340  0.02920  0.70340  Biso   1.000  C
  C96      1.0000 0.28580  0.25660  0.70340  Biso   1.000  C
  C97      1.0000 0.92327  0.61913  0.62993  Biso   1.000  C
  C98      1.0000 0.38087  0.30413  0.62993  Biso   1.000  C
  C99      1.0000 0.69587  0.07673  0.62993  Biso   1.000  C
  C100     1.0000 0.63747  0.04753  0.03673  Biso   1.000  C
  C101     1.0000 0.41007  0.36253  0.03673  Biso   1.000  C
  C102     1.0000 0.95247  0.58993  0.03673  Biso   1.000  C
  C103     1.0000 0.58993  0.95247  0.96327  Biso   1.000  C
  C104     1.0000 0.04753  0.63747  0.96327  Biso   1.000  C
  C105     1.0000 0.36253  0.41007  0.96327  Biso   1.000  C
  C106     1.0000 0.30413  0.38087  0.37007  Biso   1.000  C
  C107     1.0000 0.07673  0.69587  0.37007  Biso   1.000  C
  C108     1.0000 0.61913  0.92327  0.37007  Biso   1.000  C
  C109     1.0000 0.74340  0.71420  0.70340  Biso   1.000  C
  C110     1.0000 0.28580  0.02920  0.70340  Biso   1.000  C
  C111     1.0000 0.97080  0.25660  0.70340  Biso   1.000  C
  C112     1.0000 0.02920  0.28580  0.29660  Biso   1.000  C
  C113     1.0000 0.25660  0.97080  0.29660  Biso   1.000  C
  C114     1.0000 0.71420  0.74340  0.29660  Biso   1.000  C
  C115     1.0000 0.41007  0.04753  0.03673  Biso   1.000  C
  C116     1.0000 0.95247  0.36253  0.03673  Biso   1.000  C
  C117     1.0000 0.63747  0.58993  0.03673  Biso   1.000  C
  C118     1.0000 0.69587  0.61913  0.62993  Biso   1.000  C
  C119     1.0000 0.92327  0.30413  0.62993  Biso   1.000  C
  C120     1.0000 0.38087  0.07673  0.62993  Biso   1.000  C
  C121     1.0000 0.07673  0.38087  0.37007  Biso   1.000  C
  C122     1.0000 0.61913  0.69587  0.37007  Biso   1.000  C
  C123     1.0000 0.30413  0.92327  0.37007  Biso   1.000  C
  C124     1.0000 0.36253  0.95247  0.96327  Biso   1.000  C
  C125     1.0000 0.58993  0.63747  0.96327  Biso   1.000  C
  C126     1.0000 0.04753  0.41007  0.96327  Biso   1.000  C
  H19      1.0000 0.22040  0.25320  0.27150  Biso   1.000  H
  H20      1.0000 0.74680  0.96720  0.27150  Biso   1.000  H
  H21      1.0000 0.03280  0.77960  0.27150  Biso   1.000  H
  H22      1.0000 0.96720  0.74680  0.72850  Biso   1.000  H
  H23      1.0000 0.77960  0.03280  0.72850  Biso   1.000  H
  H24      1.0000 0.25320  0.22040  0.72850  Biso   1.000  H
  H25      1.0000 0.88707  0.58653  0.60483  Biso   1.000  H
  H26      1.0000 0.41347  0.30053  0.60483  Biso   1.000  H
  H27      1.0000 0.69947  0.11293  0.60483  Biso   1.000  H
  H28      1.0000 0.63387  0.08013  0.06183  Biso   1.000  H
  H29      1.0000 0.44627  0.36613  0.06183  Biso   1.000  H
  H30      1.0000 0.91987  0.55373  0.06183  Biso   1.000  H
  H31      1.0000 0.55373  0.91987  0.93817  Biso   1.000  H
  H32      1.0000 0.08013  0.63387  0.93817  Biso   1.000  H
  H33      1.0000 0.36613  0.44627  0.93817  Biso   1.000  H
  H34      1.0000 0.30053  0.41347  0.39517  Biso   1.000  H
  H35      1.0000 0.11293  0.69947  0.39517  Biso   1.000  H
  H36      1.0000 0.58653  0.88707  0.39517  Biso   1.000  H
  H37      1.0000 0.77960  0.74680  0.72850  Biso   1.000  H
  H38      1.0000 0.25320  0.03280  0.72850  Biso   1.000  H
  H39      1.0000 0.96720  0.22040  0.72850  Biso   1.000  H
  H40      1.0000 0.03280  0.25320  0.27150  Biso   1.000  H
  H41      1.0000 0.22040  0.96720  0.27150  Biso   1.000  H
  H42      1.0000 0.74680  0.77960  0.27150  Biso   1.000  H
  H43      1.0000 0.44627  0.08013  0.06183  Biso   1.000  H
  H44      1.0000 0.91987  0.36613  0.06183  Biso   1.000  H
  H45      1.0000 0.63387  0.55373  0.06183  Biso   1.000  H
  H46      1.0000 0.69947  0.58653  0.60483  Biso   1.000  H
  H47      1.0000 0.88707  0.30053  0.60483  Biso   1.000  H
  H48      1.0000 0.41347  0.11293  0.60483  Biso   1.000  H
  H49      1.0000 0.11293  0.41347  0.39517  Biso   1.000  H
  H50      1.0000 0.58653  0.69947  0.39517  Biso   1.000  H
  H51      1.0000 0.30053  0.88707  0.39517  Biso   1.000  H
  H52      1.0000 0.36613  0.91987  0.93817  Biso   1.000  H
  H53      1.0000 0.55373  0.63387  0.93817  Biso   1.000  H
  H54      1.0000 0.08013  0.44627  0.93817  Biso   1.000  H
  C127     1.0000 0.25100  0.33330  0.33330  Biso   1.000  C
  C128     1.0000 0.66670  0.91770  0.33330  Biso   1.000  C
  C129     1.0000 0.08230  0.74900  0.33330  Biso   1.000  C
  C130     1.0000 0.91770  0.66670  0.66670  Biso   1.000  C
  C131     1.0000 0.74900  0.08230  0.66670  Biso   1.000  C
  C132     1.0000 0.33330  0.25100  0.66670  Biso   1.000  C
  C133     1.0000 0.58437  0.00003  0.00003  Biso   1.000  C
  C134     1.0000 0.41567  0.41563  0.00003  Biso   1.000  C
  C135     1.0000 0.99997  0.58433  0.00003  Biso   1.000  C
  C136     1.0000 0.74900  0.66670  0.66670  Biso   1.000  C
  C137     1.0000 0.33330  0.08230  0.66670  Biso   1.000  C
  C138     1.0000 0.91770  0.25100  0.66670  Biso   1.000  C
  C139     1.0000 0.08230  0.33330  0.33330  Biso   1.000  C
  C140     1.0000 0.25100  0.91770  0.33330  Biso   1.000  C
  C141     1.0000 0.66670  0.74900  0.33330  Biso   1.000  C
  C142     1.0000 0.41567  0.00003  0.00003  Biso   1.000  C
  C143     1.0000 0.99997  0.41563  0.00003  Biso   1.000  C
  C144     1.0000 0.58437  0.58433  0.00003  Biso   1.000  C
  C145     1.0000 0.19140  0.33330  0.33330  Biso   1.000  C
  C146     1.0000 0.66670  0.85810  0.33330  Biso   1.000  C
  C147     1.0000 0.14190  0.80860  0.33330  Biso   1.000  C
  C148     1.0000 0.85810  0.66670  0.66670  Biso   1.000  C
  C149     1.0000 0.80860  0.14190  0.66670  Biso   1.000  C
  C150     1.0000 0.33330  0.19140  0.66670  Biso   1.000  C
  C151     1.0000 0.52477  0.00003  0.00003  Biso   1.000  C
  C152     1.0000 0.47527  0.47523  0.00003  Biso   1.000  C
  C153     1.0000 0.99997  0.52473  0.00003  Biso   1.000  C
  C154     1.0000 0.80860  0.66670  0.66670  Biso   1.000  C
  C155     1.0000 0.33330  0.14190  0.66670  Biso   1.000  C
  C156     1.0000 0.85810  0.19140  0.66670  Biso   1.000  C
  C157     1.0000 0.14190  0.33330  0.33330  Biso   1.000  C
  C158     1.0000 0.19140  0.85810  0.33330  Biso   1.000  C
  C159     1.0000 0.66670  0.80860  0.33330  Biso   1.000  C
  C160     1.0000 0.47527  0.00003  0.00003  Biso   1.000  C
  C161     1.0000 0.99997  0.47523  0.00003  Biso   1.000  C
  C162     1.0000 0.52477  0.52473  0.00003  Biso   1.000  C
