data_image0
_cell_length_a       11.361
_cell_length_b       7.095
_cell_length_c       14.575
_cell_angle_alpha    90
_cell_angle_beta     107.63
_cell_angle_gamma    90

_symmetry_space_group_name_H-M    "P 1"
_symmetry_int_tables_number       1

loop_
  _symmetry_equiv_pos_as_xyz
  'x, y, z'

loop_
  _atom_site_label
  _atom_site_occupancy
  _atom_site_fract_x
  _atom_site_fract_y
  _atom_site_fract_z
  _atom_site_thermal_displace_type
  _atom_site_B_iso_or_equiv
  _atom_site_type_symbol
  Cu1      1.0000 0.00000  0.00000  0.00000  Biso   1.000  Cu
  Cu2      1.0000 0.50000  0.50000  0.50000  Biso   1.000  Cu
  Cu3      1.0000 0.00000  0.00000  0.50000  Biso   1.000  Cu
  Cu4      1.0000 0.50000  0.50000  0.00000  Biso   1.000  Cu
  O1       1.0000 0.92540  0.96070  0.61069  Biso   1.000  O
  O2       1.0000 0.57460  0.46070  0.88931  Biso   1.000  O
  O3       1.0000 0.07460  0.03930  0.38931  Biso   1.000  O
  O4       1.0000 0.42540  0.53930  0.11069  Biso   1.000  O
  O5       1.0000 0.72680  0.00600  0.52908  Biso   1.000  O
  O6       1.0000 0.77320  0.50600  0.97092  Biso   1.000  O
  O7       1.0000 0.27320  0.99400  0.47092  Biso   1.000  O
  O8       1.0000 0.22680  0.49400  0.02908  Biso   1.000  O
  O9       1.0000 0.43160  0.13140  0.71446  Biso   1.000  O
  O10      1.0000 0.06840  0.63140  0.78554  Biso   1.000  O
  O11      1.0000 0.56840  0.86860  0.28554  Biso   1.000  O
  O12      1.0000 0.93160  0.36860  0.21446  Biso   1.000  O
  O13      1.0000 0.47470  0.99350  0.85726  Biso   1.000  O
  O14      1.0000 0.02530  0.49350  0.64274  Biso   1.000  O
  O15      1.0000 0.52530  0.00650  0.14274  Biso   1.000  O
  O16      1.0000 0.97470  0.50650  0.35726  Biso   1.000  O
  N1       1.0000 0.85230  0.01120  0.87055  Biso   1.000  N
  N2       1.0000 0.64770  0.51120  0.62945  Biso   1.000  N
  N3       1.0000 0.14770  0.98880  0.12945  Biso   1.000  N
  N4       1.0000 0.35230  0.48880  0.37055  Biso   1.000  N
  C1       1.0000 0.87530  0.00270  0.78620  Biso   1.000  C
  C2       1.0000 0.62470  0.50270  0.71380  Biso   1.000  C
  C3       1.0000 0.12470  0.99730  0.21380  Biso   1.000  C
  C4       1.0000 0.37530  0.49730  0.28620  Biso   1.000  C
  H1       1.0000 0.95720  0.99790  0.78630  Biso   1.000  H
  H2       1.0000 0.54280  0.49790  0.71370  Biso   1.000  H
  H3       1.0000 0.04280  0.00210  0.21370  Biso   1.000  H
  H4       1.0000 0.45720  0.50210  0.28630  Biso   1.000  H
  C5       1.0000 0.78340  0.00050  0.69840  Biso   1.000  C
  C6       1.0000 0.71660  0.50050  0.80160  Biso   1.000  C
  C7       1.0000 0.21660  0.99950  0.30160  Biso   1.000  C
  C8       1.0000 0.28340  0.49950  0.19840  Biso   1.000  C
  C9       1.0000 0.66260  0.01270  0.69820  Biso   1.000  C
  C10      1.0000 0.83740  0.51270  0.80180  Biso   1.000  C
  C11      1.0000 0.33740  0.98730  0.30180  Biso   1.000  C
  C12      1.0000 0.16260  0.48730  0.19820  Biso   1.000  C
  H5       1.0000 0.59910  0.01290  0.64020  Biso   1.000  H
  H6       1.0000 0.90090  0.51290  0.85980  Biso   1.000  H
  H7       1.0000 0.40090  0.98710  0.35980  Biso   1.000  H
  H8       1.0000 0.09910  0.48710  0.14020  Biso   1.000  H
  C13      1.0000 0.63530  0.02480  0.78480  Biso   1.000  C
  C14      1.0000 0.86470  0.52480  0.71520  Biso   1.000  C
  C15      1.0000 0.36470  0.97520  0.21520  Biso   1.000  C
  C16      1.0000 0.13530  0.47520  0.28480  Biso   1.000  C
  C17      1.0000 0.73350  0.02060  0.86910  Biso   1.000  C
  C18      1.0000 0.76650  0.52060  0.63090  Biso   1.000  C
  C19      1.0000 0.26650  0.97940  0.13090  Biso   1.000  C
  C20      1.0000 0.23350  0.47940  0.36910  Biso   1.000  C
  H9       1.0000 0.71630  0.02440  0.92750  Biso   1.000  H
  H10      1.0000 0.78370  0.52440  0.57250  Biso   1.000  H
  H11      1.0000 0.28370  0.97560  0.07250  Biso   1.000  H
  H12      1.0000 0.21630  0.47560  0.42750  Biso   1.000  H
  C21      1.0000 0.81480  0.98840  0.60500  Biso   1.000  C
  C22      1.0000 0.68520  0.48840  0.89500  Biso   1.000  C
  C23      1.0000 0.18520  0.01160  0.39500  Biso   1.000  C
  C24      1.0000 0.31480  0.51160  0.10500  Biso   1.000  C
  C25      1.0000 0.50330  0.05200  0.78490  Biso   1.000  C
  C26      1.0000 0.99670  0.55200  0.71510  Biso   1.000  C
  C27      1.0000 0.49670  0.94800  0.21510  Biso   1.000  C
  C28      1.0000 0.00330  0.44800  0.28490  Biso   1.000  C
  O17      1.0000 0.05750  0.75760  0.95389  Biso   1.000  O
  O18      1.0000 0.44250  0.25760  0.54611  Biso   1.000  O
  O19      1.0000 0.94250  0.24240  0.04611  Biso   1.000  O
  O20      1.0000 0.55750  0.74240  0.45389  Biso   1.000  O
  H13      1.0000 0.12480  0.71720  0.99250  Biso   1.000  H
  H14      1.0000 0.37520  0.21720  0.50750  Biso   1.000  H
  H15      1.0000 0.87520  0.28280  0.00750  Biso   1.000  H
  H16      1.0000 0.62480  0.78280  0.49250  Biso   1.000  H
  H17      1.0000 0.06430  0.76800  0.89760  Biso   1.000  H
  H18      1.0000 0.43570  0.26800  0.60240  Biso   1.000  H
  H19      1.0000 0.93570  0.23200  0.10240  Biso   1.000  H
  H20      1.0000 0.56430  0.73200  0.39760  Biso   1.000  H
  O21      1.0000 0.10640  0.16440  0.93470  Biso   1.000  O
  O22      1.0000 0.39360  0.66440  0.56530  Biso   1.000  O
  O23      1.0000 0.89360  0.83560  0.06530  Biso   1.000  O
  O24      1.0000 0.60640  0.33560  0.43470  Biso   1.000  O
  H21      1.0000 0.14880  0.09610  0.90860  Biso   1.000  H
  H22      1.0000 0.35120  0.59610  0.59140  Biso   1.000  H
  H23      1.0000 0.85120  0.90390  0.09140  Biso   1.000  H
  H24      1.0000 0.64880  0.40390  0.40860  Biso   1.000  H
  H25      1.0000 0.15390  0.23940  0.97460  Biso   1.000  H
  H26      1.0000 0.34610  0.73940  0.52540  Biso   1.000  H
  H27      1.0000 0.84610  0.76060  0.02540  Biso   1.000  H
  H28      1.0000 0.65390  0.26060  0.47460  Biso   1.000  H
  O25      1.0000 0.15426  0.09540  0.60457  Biso   1.000  O
  O26      1.0000 0.34574  0.59540  0.89543  Biso   1.000  O
  O27      1.0000 0.84574  0.90460  0.39543  Biso   1.000  O
  O28      1.0000 0.65426  0.40460  0.10457  Biso   1.000  O
  H29      1.0000 0.21910  0.05800  0.59250  Biso   1.000  H
  H30      1.0000 0.28090  0.55800  0.90750  Biso   1.000  H
  H31      1.0000 0.78090  0.94200  0.40750  Biso   1.000  H
  H32      1.0000 0.71910  0.44200  0.09250  Biso   1.000  H
  H33      1.0000 0.15520  0.05250  0.65920  Biso   1.000  H
  H34      1.0000 0.34480  0.55250  0.84080  Biso   1.000  H
  H35      1.0000 0.84480  0.94750  0.34080  Biso   1.000  H
  H36      1.0000 0.65520  0.44750  0.15920  Biso   1.000  H
  O29      1.0000 0.07380  0.73380  0.51295  Biso   1.000  O
  O30      1.0000 0.42620  0.23380  0.98705  Biso   1.000  O
  O31      1.0000 0.92620  0.26620  0.48705  Biso   1.000  O
  O32      1.0000 0.57380  0.76620  0.01295  Biso   1.000  O
  H37      1.0000 0.04180  0.67080  0.46190  Biso   1.000  H
  H38      1.0000 0.45820  0.17080  0.03810  Biso   1.000  H
  H39      1.0000 0.95820  0.32920  0.53810  Biso   1.000  H
  H40      1.0000 0.54180  0.82920  0.96190  Biso   1.000  H
  H41      1.0000 0.06030  0.67640  0.56000  Biso   1.000  H
  H42      1.0000 0.43970  0.17640  0.94000  Biso   1.000  H
  H43      1.0000 0.93970  0.32360  0.44000  Biso   1.000  H
  H44      1.0000 0.56030  0.82360  0.06000  Biso   1.000  H
  O33      1.0000 0.29280  0.47720  0.69960  Biso   1.000  O
  O34      1.0000 0.20720  0.97720  0.80040  Biso   1.000  O
  O35      1.0000 0.70720  0.52280  0.30040  Biso   1.000  O
  O36      1.0000 0.79280  0.02280  0.19960  Biso   1.000  O
  H45      1.0000 0.21430  0.47600  0.67940  Biso   1.000  H
  H46      1.0000 0.28570  0.97600  0.82060  Biso   1.000  H
  H47      1.0000 0.78570  0.52400  0.32060  Biso   1.000  H
  H48      1.0000 0.71430  0.02400  0.17940  Biso   1.000  H
  H49      1.0000 0.31820  0.36410  0.70950  Biso   1.000  H
  H50      1.0000 0.18180  0.86410  0.79050  Biso   1.000  H
  H51      1.0000 0.68180  0.63590  0.29050  Biso   1.000  H
  H52      1.0000 0.81820  0.13590  0.20950  Biso   1.000  H
