data_image0
_cell_length_a       20.258
_cell_length_b       4.7728
_cell_length_c       21.145
_cell_angle_alpha    90
_cell_angle_beta     90
_cell_angle_gamma    90

_symmetry_space_group_name_H-M    "P 1"
_symmetry_int_tables_number       1

loop_
  _symmetry_equiv_pos_as_xyz
  'x, y, z'

loop_
  _atom_site_label
  _atom_site_occupancy
  _atom_site_fract_x
  _atom_site_fract_y
  _atom_site_fract_z
  _atom_site_thermal_displace_type
  _atom_site_B_iso_or_equiv
  _atom_site_type_symbol
  Cu1      1.0000 0.04648  0.00665  0.22680  Biso   1.000  Cu
  Cu2      1.0000 0.95352  0.99335  0.72680  Biso   1.000  Cu
  Cu3      1.0000 0.54648  0.99335  0.22680  Biso   1.000  Cu
  Cu4      1.0000 0.45352  0.00665  0.72680  Biso   1.000  Cu
  O1       1.0000 0.10191  0.06010  0.30102  Biso   1.000  O
  O2       1.0000 0.89809  0.93990  0.80102  Biso   1.000  O
  O3       1.0000 0.60191  0.93990  0.30102  Biso   1.000  O
  O4       1.0000 0.39809  0.06010  0.80102  Biso   1.000  O
  O5       1.0000 0.19134  0.21150  0.34952  Biso   1.000  O
  O6       1.0000 0.80866  0.78850  0.84952  Biso   1.000  O
  O7       1.0000 0.69134  0.78850  0.34952  Biso   1.000  O
  O8       1.0000 0.30866  0.21150  0.84952  Biso   1.000  O
  O9       1.0000 0.12533  0.04270  0.17245  Biso   1.000  O
  O10      1.0000 0.87467  0.95730  0.67245  Biso   1.000  O
  O11      1.0000 0.62533  0.95730  0.17245  Biso   1.000  O
  O12      1.0000 0.37467  0.04270  0.67245  Biso   1.000  O
  O13      1.0000 0.22465  0.21150  0.15113  Biso   1.000  O
  O14      1.0000 0.77535  0.78850  0.65113  Biso   1.000  O
  O15      1.0000 0.72465  0.78850  0.15113  Biso   1.000  O
  O16      1.0000 0.27535  0.21150  0.65113  Biso   1.000  O
  O17      1.0000 0.99738  0.83570  0.15569  Biso   1.000  O
  O18      1.0000 0.00262  0.16430  0.65569  Biso   1.000  O
  O19      1.0000 0.49738  0.16430  0.15569  Biso   1.000  O
  O20      1.0000 0.50262  0.83570  0.65569  Biso   1.000  O
  O21      1.0000 0.01540  0.43660  0.20625  Biso   1.000  O
  O22      1.0000 0.98460  0.56340  0.70625  Biso   1.000  O
  O23      1.0000 0.51540  0.56340  0.20625  Biso   1.000  O
  O24      1.0000 0.48460  0.43660  0.70625  Biso   1.000  O
  O25      1.0000 0.84707  0.56410  0.15785  Biso   1.000  O
  O26      1.0000 0.15293  0.43590  0.65785  Biso   1.000  O
  O27      1.0000 0.34707  0.43590  0.15785  Biso   1.000  O
  O28      1.0000 0.65293  0.56410  0.65785  Biso   1.000  O
  H1       1.0000 0.81070  0.66000  0.15200  Biso   1.000  H
  H2       1.0000 0.18930  0.34000  0.65200  Biso   1.000  H
  H3       1.0000 0.31070  0.34000  0.15200  Biso   1.000  H
  H4       1.0000 0.68930  0.66000  0.65200  Biso   1.000  H
  O29      1.0000 0.86537  0.70420  0.05905  Biso   1.000  O
  O30      1.0000 0.13463  0.29580  0.55905  Biso   1.000  O
  O31      1.0000 0.36537  0.29580  0.05905  Biso   1.000  O
  O32      1.0000 0.63463  0.70420  0.55905  Biso   1.000  O
  N1       1.0000 0.97245  0.91760  0.28655  Biso   1.000  N
  N2       1.0000 0.02755  0.08240  0.78655  Biso   1.000  N
  N3       1.0000 0.47245  0.08240  0.28655  Biso   1.000  N
  N4       1.0000 0.52755  0.91760  0.78655  Biso   1.000  N
  N5       1.0000 0.81255  0.63010  0.39350  Biso   1.000  N
  N6       1.0000 0.18745  0.36990  0.89350  Biso   1.000  N
  N7       1.0000 0.31255  0.36990  0.39350  Biso   1.000  N
  N8       1.0000 0.68745  0.63010  0.89350  Biso   1.000  N
  H5       1.0000 0.77580  0.68300  0.37530  Biso   1.000  H
  H6       1.0000 0.22420  0.31700  0.87530  Biso   1.000  H
  H7       1.0000 0.27580  0.31700  0.37530  Biso   1.000  H
  H8       1.0000 0.72420  0.68300  0.87530  Biso   1.000  H
  N9       1.0000 0.79046  0.13280  0.55124  Biso   1.000  N
  N10      1.0000 0.20954  0.86720  0.05124  Biso   1.000  N
  N11      1.0000 0.29046  0.86720  0.55124  Biso   1.000  N
  N12      1.0000 0.70954  0.13280  0.05124  Biso   1.000  N
  H9       1.0000 0.78600  0.03200  0.58200  Biso   1.000  H
  H10      1.0000 0.21400  0.96800  0.08200  Biso   1.000  H
  H11      1.0000 0.28600  0.96800  0.58200  Biso   1.000  H
  H12      1.0000 0.71400  0.03200  0.08200  Biso   1.000  H
  C1       1.0000 0.91155  0.02490  0.28070  Biso   1.000  C
  C2       1.0000 0.08845  0.97510  0.78070  Biso   1.000  C
  C3       1.0000 0.41155  0.97510  0.28070  Biso   1.000  C
  C4       1.0000 0.58845  0.02490  0.78070  Biso   1.000  C
  H13      1.0000 0.90430  0.16660  0.24990  Biso   1.000  H
  H14      1.0000 0.09570  0.83340  0.74990  Biso   1.000  H
  H15      1.0000 0.40430  0.83340  0.24990  Biso   1.000  H
  H16      1.0000 0.59570  0.16660  0.74990  Biso   1.000  H
  C5       1.0000 0.85917  0.93910  0.31721  Biso   1.000  C
  C6       1.0000 0.14083  0.06090  0.81721  Biso   1.000  C
  C7       1.0000 0.35917  0.06090  0.31721  Biso   1.000  C
  C8       1.0000 0.64083  0.93910  0.81721  Biso   1.000  C
  H17      1.0000 0.81690  0.02220  0.31180  Biso   1.000  H
  H18      1.0000 0.18310  0.97780  0.81180  Biso   1.000  H
  H19      1.0000 0.31690  0.97780  0.31180  Biso   1.000  H
  H20      1.0000 0.68310  0.02220  0.81180  Biso   1.000  H
  C9       1.0000 0.86832  0.72930  0.36231  Biso   1.000  C
  C10      1.0000 0.13168  0.27070  0.86231  Biso   1.000  C
  C11      1.0000 0.36832  0.27070  0.36231  Biso   1.000  C
  C12      1.0000 0.63168  0.72930  0.86231  Biso   1.000  C
  C13      1.0000 0.93210  0.61790  0.36916  Biso   1.000  C
  C14      1.0000 0.06790  0.38210  0.86916  Biso   1.000  C
  C15      1.0000 0.43210  0.38210  0.36916  Biso   1.000  C
  C16      1.0000 0.56790  0.61790  0.86916  Biso   1.000  C
  H21      1.0000 0.94100  0.47520  0.39930  Biso   1.000  H
  H22      1.0000 0.05900  0.52480  0.89930  Biso   1.000  H
  H23      1.0000 0.44100  0.52480  0.39930  Biso   1.000  H
  H24      1.0000 0.55900  0.47520  0.89930  Biso   1.000  H
  C17      1.0000 0.98145  0.72150  0.33088  Biso   1.000  C
  C18      1.0000 0.01855  0.27850  0.83088  Biso   1.000  C
  C19      1.0000 0.48145  0.27850  0.33088  Biso   1.000  C
  C20      1.0000 0.51855  0.72150  0.83088  Biso   1.000  C
  H25      1.0000 0.02470  0.64880  0.33630  Biso   1.000  H
  H26      1.0000 0.97530  0.35120  0.83630  Biso   1.000  H
  H27      1.0000 0.52470  0.35120  0.33630  Biso   1.000  H
  H28      1.0000 0.47530  0.64880  0.83630  Biso   1.000  H
  C21      1.0000 0.74058  0.16200  0.50927  Biso   1.000  C
  C22      1.0000 0.25942  0.83800  0.00927  Biso   1.000  C
  C23      1.0000 0.24058  0.83800  0.50927  Biso   1.000  C
  C24      1.0000 0.75942  0.16200  0.00927  Biso   1.000  C
  H29      1.0000 0.70010  0.06610  0.51610  Biso   1.000  H
  H30      1.0000 0.29990  0.93390  0.01610  Biso   1.000  H
  H31      1.0000 0.20010  0.93390  0.51610  Biso   1.000  H
  H32      1.0000 0.79990  0.06610  0.01610  Biso   1.000  H
  C25      1.0000 0.74776  0.32700  0.45747  Biso   1.000  C
  C26      1.0000 0.25224  0.67300  0.95747  Biso   1.000  C
  C27      1.0000 0.24776  0.67300  0.45747  Biso   1.000  C
  C28      1.0000 0.75224  0.32700  0.95747  Biso   1.000  C
  H33      1.0000 0.71200  0.34900  0.42880  Biso   1.000  H
  H34      1.0000 0.28800  0.65100  0.92880  Biso   1.000  H
  H35      1.0000 0.21200  0.65100  0.42880  Biso   1.000  H
  H36      1.0000 0.78800  0.34900  0.92880  Biso   1.000  H
  C29      1.0000 0.80761  0.46510  0.44609  Biso   1.000  C
  C30      1.0000 0.19239  0.53490  0.94609  Biso   1.000  C
  C31      1.0000 0.30761  0.53490  0.44609  Biso   1.000  C
  C32      1.0000 0.69239  0.46510  0.94609  Biso   1.000  C
  C33      1.0000 0.85741  0.43480  0.49157  Biso   1.000  C
  C34      1.0000 0.14259  0.56520  0.99157  Biso   1.000  C
  C35      1.0000 0.35741  0.56520  0.49157  Biso   1.000  C
  C36      1.0000 0.64259  0.43480  0.99157  Biso   1.000  C
  H37      1.0000 0.89810  0.53090  0.48660  Biso   1.000  H
  H38      1.0000 0.10190  0.46910  0.98660  Biso   1.000  H
  H39      1.0000 0.39810  0.46910  0.48660  Biso   1.000  H
  H40      1.0000 0.60190  0.53090  0.98660  Biso   1.000  H
  C37      1.0000 0.84739  0.26730  0.54286  Biso   1.000  C
  C38      1.0000 0.15261  0.73270  0.04286  Biso   1.000  C
  C39      1.0000 0.34739  0.73270  0.54286  Biso   1.000  C
  C40      1.0000 0.65261  0.26730  0.04286  Biso   1.000  C
  H41      1.0000 0.88160  0.24610  0.57320  Biso   1.000  H
  H42      1.0000 0.11840  0.75390  0.07320  Biso   1.000  H
  H43      1.0000 0.38160  0.75390  0.57320  Biso   1.000  H
  H44      1.0000 0.61840  0.24610  0.07320  Biso   1.000  H
  C41      1.0000 0.15416  0.20650  0.30287  Biso   1.000  C
  C42      1.0000 0.84584  0.79350  0.80287  Biso   1.000  C
  C43      1.0000 0.65416  0.79350  0.30287  Biso   1.000  C
  C44      1.0000 0.34584  0.20650  0.80287  Biso   1.000  C
  C45      1.0000 0.17054  0.38570  0.24427  Biso   1.000  C
  C46      1.0000 0.82946  0.61430  0.74427  Biso   1.000  C
  C47      1.0000 0.67054  0.61430  0.24427  Biso   1.000  C
  C48      1.0000 0.32946  0.38570  0.74427  Biso   1.000  C
  H45      1.0000 0.13210  0.51400  0.23790  Biso   1.000  H
  H46      1.0000 0.86790  0.48600  0.73790  Biso   1.000  H
  H47      1.0000 0.63210  0.48600  0.23790  Biso   1.000  H
  H48      1.0000 0.36790  0.51400  0.73790  Biso   1.000  H
  C49      1.0000 0.17405  0.20110  0.18563  Biso   1.000  C
  C50      1.0000 0.82595  0.79890  0.68563  Biso   1.000  C
  C51      1.0000 0.67405  0.79890  0.18563  Biso   1.000  C
  C52      1.0000 0.32595  0.20110  0.68563  Biso   1.000  C
  C53      1.0000 0.23064  0.57310  0.25352  Biso   1.000  C
  C54      1.0000 0.76936  0.42690  0.75352  Biso   1.000  C
  C55      1.0000 0.73064  0.42690  0.25352  Biso   1.000  C
  C56      1.0000 0.26936  0.57310  0.75352  Biso   1.000  C
  H49      1.0000 0.22520  0.68380  0.29220  Biso   1.000  H
  H50      1.0000 0.77480  0.31620  0.79220  Biso   1.000  H
  H51      1.0000 0.72520  0.31620  0.29220  Biso   1.000  H
  H52      1.0000 0.27480  0.68380  0.79220  Biso   1.000  H
  H53      1.0000 0.23510  0.69920  0.21720  Biso   1.000  H
  H54      1.0000 0.76490  0.30080  0.71720  Biso   1.000  H
  H55      1.0000 0.73510  0.30080  0.21720  Biso   1.000  H
  H56      1.0000 0.26490  0.69920  0.71720  Biso   1.000  H
  H57      1.0000 0.27030  0.45680  0.25710  Biso   1.000  H
  H58      1.0000 0.72970  0.54320  0.75710  Biso   1.000  H
  H59      1.0000 0.77030  0.54320  0.25710  Biso   1.000  H
  H60      1.0000 0.22970  0.45680  0.75710  Biso   1.000  H
  C57      1.0000 0.98962  0.57200  0.16261  Biso   1.000  C
  C58      1.0000 0.01038  0.42800  0.66261  Biso   1.000  C
  C59      1.0000 0.48962  0.42800  0.16261  Biso   1.000  C
  C60      1.0000 0.51038  0.57200  0.66261  Biso   1.000  C
  C61      1.0000 0.94706  0.42530  0.11362  Biso   1.000  C
  C62      1.0000 0.05294  0.57470  0.61362  Biso   1.000  C
  C63      1.0000 0.44706  0.57470  0.11362  Biso   1.000  C
  C64      1.0000 0.55294  0.42530  0.61362  Biso   1.000  C
  H61      1.0000 0.93670  0.23340  0.12980  Biso   1.000  H
  H62      1.0000 0.06330  0.76660  0.62980  Biso   1.000  H
  H63      1.0000 0.43670  0.76660  0.12980  Biso   1.000  H
  H64      1.0000 0.56330  0.23340  0.62980  Biso   1.000  H
  C65      1.0000 0.88256  0.58130  0.10593  Biso   1.000  C
  C66      1.0000 0.11744  0.41870  0.60593  Biso   1.000  C
  C67      1.0000 0.38256  0.41870  0.10593  Biso   1.000  C
  C68      1.0000 0.61744  0.58130  0.60593  Biso   1.000  C
  C69      1.0000 0.98509  0.39330  0.05221  Biso   1.000  C
  C70      1.0000 0.01491  0.60670  0.55221  Biso   1.000  C
  C71      1.0000 0.48509  0.60670  0.05221  Biso   1.000  C
  C72      1.0000 0.51491  0.39330  0.55221  Biso   1.000  C
  H65      1.0000 0.02590  0.28870  0.06010  Biso   1.000  H
  H66      1.0000 0.97410  0.71130  0.56010  Biso   1.000  H
  H67      1.0000 0.52590  0.71130  0.06010  Biso   1.000  H
  H68      1.0000 0.47410  0.28870  0.56010  Biso   1.000  H
  H69      1.0000 0.99590  0.57900  0.03540  Biso   1.000  H
  H70      1.0000 0.00410  0.42100  0.53540  Biso   1.000  H
  H71      1.0000 0.49590  0.42100  0.03540  Biso   1.000  H
  H72      1.0000 0.50410  0.57900  0.53540  Biso   1.000  H
  H73      1.0000 0.95800  0.29150  0.02150  Biso   1.000  H
  H74      1.0000 0.04200  0.70850  0.52150  Biso   1.000  H
  H75      1.0000 0.45800  0.70850  0.02150  Biso   1.000  H
  H76      1.0000 0.54200  0.29150  0.52150  Biso   1.000  H
  O33      1.0000 0.94350  0.83400  0.93400  Biso   1.000  O
  O34      1.0000 0.05650  0.16600  0.43400  Biso   1.000  O
  O35      1.0000 0.44350  0.16600  0.93400  Biso   1.000  O
  O36      1.0000 0.55650  0.83400  0.43400  Biso   1.000  O
  H77      1.0000 0.90700  0.86500  0.96110  Biso   1.000  H
  H78      1.0000 0.09300  0.13500  0.46110  Biso   1.000  H
  H79      1.0000 0.40700  0.13500  0.96110  Biso   1.000  H
  H80      1.0000 0.59300  0.86500  0.46110  Biso   1.000  H
  H81      1.0000 0.93120  0.98270  0.90980  Biso   1.000  H
  H82      1.0000 0.06880  0.01730  0.40980  Biso   1.000  H
  H83      1.0000 0.43120  0.01730  0.90980  Biso   1.000  H
  H84      1.0000 0.56880  0.98270  0.40980  Biso   1.000  H
