data_image0
_cell_length_a       22.8333
_cell_length_b       25.7253
_cell_length_c       6.42264
_cell_angle_alpha    90
_cell_angle_beta     105.895
_cell_angle_gamma    90

_symmetry_space_group_name_H-M    "P 1"
_symmetry_int_tables_number       1

loop_
  _symmetry_equiv_pos_as_xyz
  'x, y, z'

loop_
  _atom_site_label
  _atom_site_occupancy
  _atom_site_fract_x
  _atom_site_fract_y
  _atom_site_fract_z
  _atom_site_thermal_displace_type
  _atom_site_B_iso_or_equiv
  _atom_site_type_symbol
  Cu1      1.0000 0.50000  0.50000  0.50000  Biso   1.000  Cu
  Cu2      1.0000 0.00000  0.00000  0.50000  Biso   1.000  Cu
  N1       1.0000 0.43868  0.50000  0.67030  Biso   1.000  N
  N2       1.0000 0.56132  0.50000  0.32970  Biso   1.000  N
  N3       1.0000 0.93868  0.00000  0.67030  Biso   1.000  N
  N4       1.0000 0.06132  0.00000  0.32970  Biso   1.000  N
  N5       1.0000 0.50000  0.42264  0.50000  Biso   1.000  N
  N6       1.0000 0.00000  0.92264  0.50000  Biso   1.000  N
  N7       1.0000 0.50000  0.57736  0.50000  Biso   1.000  N
  N8       1.0000 0.00000  0.07736  0.50000  Biso   1.000  N
  C1       1.0000 0.36790  0.47393  0.84600  Biso   1.000  C
  C2       1.0000 0.63210  0.47393  0.15400  Biso   1.000  C
  C3       1.0000 0.86790  0.97393  0.84600  Biso   1.000  C
  C4       1.0000 0.13210  0.97393  0.15400  Biso   1.000  C
  C5       1.0000 0.63210  0.52607  0.15400  Biso   1.000  C
  C6       1.0000 0.36790  0.52607  0.84600  Biso   1.000  C
  C7       1.0000 0.13210  0.02607  0.15400  Biso   1.000  C
  C8       1.0000 0.86790  0.02607  0.84600  Biso   1.000  C
  H1       1.0000 0.34350  0.45200  0.90720  Biso   1.000  H
  H2       1.0000 0.65650  0.45200  0.09280  Biso   1.000  H
  H3       1.0000 0.84350  0.95200  0.90720  Biso   1.000  H
  H4       1.0000 0.15650  0.95200  0.09280  Biso   1.000  H
  H5       1.0000 0.65650  0.54800  0.09280  Biso   1.000  H
  H6       1.0000 0.34350  0.54800  0.90720  Biso   1.000  H
  H7       1.0000 0.15650  0.04800  0.09280  Biso   1.000  H
  H8       1.0000 0.84350  0.04800  0.90720  Biso   1.000  H
  C9       1.0000 0.41178  0.45730  0.73620  Biso   1.000  C
  C10      1.0000 0.58822  0.45730  0.26380  Biso   1.000  C
  C11      1.0000 0.91178  0.95730  0.73620  Biso   1.000  C
  C12      1.0000 0.08822  0.95730  0.26380  Biso   1.000  C
  C13      1.0000 0.58822  0.54270  0.26380  Biso   1.000  C
  C14      1.0000 0.41178  0.54270  0.73620  Biso   1.000  C
  C15      1.0000 0.08822  0.04270  0.26380  Biso   1.000  C
  C16      1.0000 0.91178  0.04270  0.73620  Biso   1.000  C
  C17      1.0000 0.42295  0.40594  0.69560  Biso   1.000  C
  C18      1.0000 0.57705  0.40594  0.30440  Biso   1.000  C
  C19      1.0000 0.92295  0.90594  0.69560  Biso   1.000  C
  C20      1.0000 0.07705  0.90594  0.30440  Biso   1.000  C
  C21      1.0000 0.57705  0.59406  0.30440  Biso   1.000  C
  C22      1.0000 0.42295  0.59406  0.69560  Biso   1.000  C
  C23      1.0000 0.07705  0.09406  0.30440  Biso   1.000  C
  C24      1.0000 0.92295  0.09406  0.69560  Biso   1.000  C
  C25      1.0000 0.46452  0.38982  0.58580  Biso   1.000  C
  C26      1.0000 0.53548  0.38982  0.41420  Biso   1.000  C
  C27      1.0000 0.96452  0.88982  0.58580  Biso   1.000  C
  C28      1.0000 0.03548  0.88982  0.41420  Biso   1.000  C
  C29      1.0000 0.53548  0.61018  0.41420  Biso   1.000  C
  C30      1.0000 0.46452  0.61018  0.58580  Biso   1.000  C
  C31      1.0000 0.03548  0.11018  0.41420  Biso   1.000  C
  C32      1.0000 0.96452  0.11018  0.58580  Biso   1.000  C
  C33      1.0000 0.47813  0.33663  0.55270  Biso   1.000  C
  C34      1.0000 0.52187  0.33663  0.44730  Biso   1.000  C
  C35      1.0000 0.97813  0.83663  0.55270  Biso   1.000  C
  C36      1.0000 0.02187  0.83663  0.44730  Biso   1.000  C
  C37      1.0000 0.52187  0.66337  0.44730  Biso   1.000  C
  C38      1.0000 0.47813  0.66337  0.55270  Biso   1.000  C
  C39      1.0000 0.02187  0.16337  0.44730  Biso   1.000  C
  C40      1.0000 0.97813  0.16337  0.55270  Biso   1.000  C
  H9       1.0000 0.45990  0.30690  0.59670  Biso   1.000  H
  H10      1.0000 0.54010  0.30690  0.40330  Biso   1.000  H
  H11      1.0000 0.95990  0.80690  0.59670  Biso   1.000  H
  H12      1.0000 0.04010  0.80690  0.40330  Biso   1.000  H
  H13      1.0000 0.54010  0.69310  0.40330  Biso   1.000  H
  H14      1.0000 0.45990  0.69310  0.59670  Biso   1.000  H
  H15      1.0000 0.04010  0.19310  0.40330  Biso   1.000  H
  H16      1.0000 0.95990  0.19310  0.59670  Biso   1.000  H
  N9       1.0000 0.31118  0.29311  0.89620  Biso   1.000  N
  N10      1.0000 0.68882  0.29311  0.10380  Biso   1.000  N
  N11      1.0000 0.81118  0.79311  0.89620  Biso   1.000  N
  N12      1.0000 0.18882  0.79311  0.10380  Biso   1.000  N
  N13      1.0000 0.68882  0.70689  0.10380  Biso   1.000  N
  N14      1.0000 0.31118  0.70689  0.89620  Biso   1.000  N
  N15      1.0000 0.18882  0.20689  0.10380  Biso   1.000  N
  N16      1.0000 0.81118  0.20689  0.89620  Biso   1.000  N
  C41      1.0000 0.30210  0.30601  0.68740  Biso   1.000  C
  C42      1.0000 0.69790  0.30601  0.31260  Biso   1.000  C
  C43      1.0000 0.80210  0.80601  0.68740  Biso   1.000  C
  C44      1.0000 0.19790  0.80601  0.31260  Biso   1.000  C
  C45      1.0000 0.69790  0.69399  0.31260  Biso   1.000  C
  C46      1.0000 0.30210  0.69399  0.68740  Biso   1.000  C
  C47      1.0000 0.19790  0.19399  0.31260  Biso   1.000  C
  C48      1.0000 0.80210  0.19399  0.68740  Biso   1.000  C
  H17      1.0000 0.26940  0.29020  0.58250  Biso   1.000  H
  H18      1.0000 0.73060  0.29020  0.41750  Biso   1.000  H
  H19      1.0000 0.76940  0.79020  0.58250  Biso   1.000  H
  H20      1.0000 0.23060  0.79020  0.41750  Biso   1.000  H
  H21      1.0000 0.73060  0.70980  0.41750  Biso   1.000  H
  H22      1.0000 0.26940  0.70980  0.58250  Biso   1.000  H
  H23      1.0000 0.23060  0.20980  0.41750  Biso   1.000  H
  H24      1.0000 0.76940  0.20980  0.58250  Biso   1.000  H
  C49      1.0000 0.33830  0.34125  0.61850  Biso   1.000  C
  C50      1.0000 0.66170  0.34125  0.38150  Biso   1.000  C
  C51      1.0000 0.83830  0.84125  0.61850  Biso   1.000  C
  C52      1.0000 0.16170  0.84125  0.38150  Biso   1.000  C
  C53      1.0000 0.66170  0.65875  0.38150  Biso   1.000  C
  C54      1.0000 0.33830  0.65875  0.61850  Biso   1.000  C
  C55      1.0000 0.16170  0.15875  0.38150  Biso   1.000  C
  C56      1.0000 0.83830  0.15875  0.61850  Biso   1.000  C
  H25      1.0000 0.33050  0.34890  0.46860  Biso   1.000  H
  H26      1.0000 0.66950  0.34890  0.53140  Biso   1.000  H
  H27      1.0000 0.83050  0.84890  0.46860  Biso   1.000  H
  H28      1.0000 0.16950  0.84890  0.53140  Biso   1.000  H
  H29      1.0000 0.66950  0.65110  0.53140  Biso   1.000  H
  H30      1.0000 0.33050  0.65110  0.46860  Biso   1.000  H
  H31      1.0000 0.16950  0.15110  0.53140  Biso   1.000  H
  H32      1.0000 0.83050  0.15110  0.46860  Biso   1.000  H
  C57      1.0000 0.38592  0.36541  0.76660  Biso   1.000  C
  C58      1.0000 0.61408  0.36541  0.23340  Biso   1.000  C
  C59      1.0000 0.88592  0.86541  0.76660  Biso   1.000  C
  C60      1.0000 0.11408  0.86541  0.23340  Biso   1.000  C
  C61      1.0000 0.61408  0.63459  0.23340  Biso   1.000  C
  C62      1.0000 0.38592  0.63459  0.76660  Biso   1.000  C
  C63      1.0000 0.11408  0.13459  0.23340  Biso   1.000  C
  C64      1.0000 0.88592  0.13459  0.76660  Biso   1.000  C
  C65      1.0000 0.39614  0.35106  0.98180  Biso   1.000  C
  C66      1.0000 0.60386  0.35106  0.01820  Biso   1.000  C
  C67      1.0000 0.89614  0.85106  0.98180  Biso   1.000  C
  C68      1.0000 0.10386  0.85106  0.01820  Biso   1.000  C
  C69      1.0000 0.60386  0.64894  0.01820  Biso   1.000  C
  C70      1.0000 0.39614  0.64894  0.98180  Biso   1.000  C
  C71      1.0000 0.10386  0.14894  0.01820  Biso   1.000  C
  C72      1.0000 0.89614  0.14894  0.98180  Biso   1.000  C
  H33      1.0000 0.42900  0.36590  0.08930  Biso   1.000  H
  H34      1.0000 0.57100  0.36590  0.91070  Biso   1.000  H
  H35      1.0000 0.92900  0.86590  0.08930  Biso   1.000  H
  H36      1.0000 0.07100  0.86590  0.91070  Biso   1.000  H
  H37      1.0000 0.57100  0.63410  0.91070  Biso   1.000  H
  H38      1.0000 0.42900  0.63410  0.08930  Biso   1.000  H
  H39      1.0000 0.07100  0.13410  0.91070  Biso   1.000  H
  H40      1.0000 0.92900  0.13410  0.08930  Biso   1.000  H
  C73      1.0000 0.35848  0.31524  0.03940  Biso   1.000  C
  C74      1.0000 0.64152  0.31524  0.96060  Biso   1.000  C
  C75      1.0000 0.85848  0.81524  0.03940  Biso   1.000  C
  C76      1.0000 0.14152  0.81524  0.96060  Biso   1.000  C
  C77      1.0000 0.64152  0.68476  0.96060  Biso   1.000  C
  C78      1.0000 0.35848  0.68476  0.03940  Biso   1.000  C
  C79      1.0000 0.14152  0.18476  0.96060  Biso   1.000  C
  C80      1.0000 0.85848  0.18476  0.03940  Biso   1.000  C
  H41      1.0000 0.36640  0.30580  0.18760  Biso   1.000  H
  H42      1.0000 0.63360  0.30580  0.81240  Biso   1.000  H
  H43      1.0000 0.86640  0.80580  0.18760  Biso   1.000  H
  H44      1.0000 0.13360  0.80580  0.81240  Biso   1.000  H
  H45      1.0000 0.63360  0.69420  0.81240  Biso   1.000  H
  H46      1.0000 0.36640  0.69420  0.18760  Biso   1.000  H
  H47      1.0000 0.13360  0.19420  0.81240  Biso   1.000  H
  H48      1.0000 0.86640  0.19420  0.18760  Biso   1.000  H
  Cu3      1.0000 0.25000  0.25000  0.00000  Biso   1.000  Cu
  Cu4      1.0000 0.75000  0.25000  0.00000  Biso   1.000  Cu
  Cu5      1.0000 0.75000  0.75000  0.00000  Biso   1.000  Cu
  Cu6      1.0000 0.25000  0.75000  0.00000  Biso   1.000  Cu
  F1       1.0000 0.43824  0.21308  0.48930  Biso   1.000  F
  F2       1.0000 0.56176  0.21308  0.51070  Biso   1.000  F
  F3       1.0000 0.93824  0.71308  0.48930  Biso   1.000  F
  F4       1.0000 0.06176  0.71308  0.51070  Biso   1.000  F
  F5       1.0000 0.56176  0.78692  0.51070  Biso   1.000  F
  F6       1.0000 0.43824  0.78692  0.48930  Biso   1.000  F
  F7       1.0000 0.06176  0.28692  0.51070  Biso   1.000  F
  F8       1.0000 0.93824  0.28692  0.48930  Biso   1.000  F
  F9       1.0000 0.37255  0.19441  0.65120  Biso   1.000  F
  F10      1.0000 0.62745  0.19441  0.34880  Biso   1.000  F
  F11      1.0000 0.87255  0.69441  0.65120  Biso   1.000  F
  F12      1.0000 0.12745  0.69441  0.34880  Biso   1.000  F
  F13      1.0000 0.62745  0.80559  0.34880  Biso   1.000  F
  F14      1.0000 0.37255  0.80559  0.65120  Biso   1.000  F
  F15      1.0000 0.12745  0.30559  0.34880  Biso   1.000  F
  F16      1.0000 0.87255  0.30559  0.65120  Biso   1.000  F
  F17      1.0000 0.41929  0.13432  0.53370  Biso   1.000  F
  F18      1.0000 0.58071  0.13432  0.46630  Biso   1.000  F
  F19      1.0000 0.91929  0.63432  0.53370  Biso   1.000  F
  F20      1.0000 0.08071  0.63432  0.46630  Biso   1.000  F
  F21      1.0000 0.58071  0.86568  0.46630  Biso   1.000  F
  F22      1.0000 0.41929  0.86568  0.53370  Biso   1.000  F
  F23      1.0000 0.08071  0.36568  0.46630  Biso   1.000  F
  F24      1.0000 0.91929  0.36568  0.53370  Biso   1.000  F
  F25      1.0000 0.28664  0.09520  0.59580  Biso   1.000  F
  F26      1.0000 0.71336  0.09520  0.40420  Biso   1.000  F
  F27      1.0000 0.78664  0.59520  0.59580  Biso   1.000  F
  F28      1.0000 0.21336  0.59520  0.40420  Biso   1.000  F
  F29      1.0000 0.71336  0.90480  0.40420  Biso   1.000  F
  F30      1.0000 0.28664  0.90480  0.59580  Biso   1.000  F
  F31      1.0000 0.21336  0.40480  0.40420  Biso   1.000  F
  F32      1.0000 0.78664  0.40480  0.59580  Biso   1.000  F
  F33      1.0000 0.23780  0.06595  0.80670  Biso   1.000  F
  F34      1.0000 0.76220  0.06595  0.19330  Biso   1.000  F
  F35      1.0000 0.73780  0.56595  0.80670  Biso   1.000  F
  F36      1.0000 0.26220  0.56595  0.19330  Biso   1.000  F
  F37      1.0000 0.76220  0.93405  0.19330  Biso   1.000  F
  F38      1.0000 0.23780  0.93405  0.80670  Biso   1.000  F
  F39      1.0000 0.26220  0.43405  0.19330  Biso   1.000  F
  F40      1.0000 0.73780  0.43405  0.80670  Biso   1.000  F
  F41      1.0000 0.33550  0.05589  0.87910  Biso   1.000  F
  F42      1.0000 0.66450  0.05589  0.12090  Biso   1.000  F
  F43      1.0000 0.83550  0.55589  0.87910  Biso   1.000  F
  F44      1.0000 0.16450  0.55589  0.12090  Biso   1.000  F
  F45      1.0000 0.66450  0.94411  0.12090  Biso   1.000  F
  F46      1.0000 0.33550  0.94411  0.87910  Biso   1.000  F
  F47      1.0000 0.16450  0.44411  0.12090  Biso   1.000  F
  F48      1.0000 0.83550  0.44411  0.87910  Biso   1.000  F
  O1       1.0000 0.31709  0.22635  0.24850  Biso   1.000  O
  O2       1.0000 0.68291  0.22635  0.75150  Biso   1.000  O
  O3       1.0000 0.81709  0.72635  0.24850  Biso   1.000  O
  O4       1.0000 0.18291  0.72635  0.75150  Biso   1.000  O
  O5       1.0000 0.68291  0.77365  0.75150  Biso   1.000  O
  O6       1.0000 0.31709  0.77365  0.24850  Biso   1.000  O
  O7       1.0000 0.18291  0.27365  0.75150  Biso   1.000  O
  O8       1.0000 0.81709  0.27365  0.24850  Biso   1.000  O
  O9       1.0000 0.26454  0.17557  0.82950  Biso   1.000  O
  O10      1.0000 0.73546  0.17557  0.17050  Biso   1.000  O
  O11      1.0000 0.76454  0.67557  0.82950  Biso   1.000  O
  O12      1.0000 0.23546  0.67557  0.17050  Biso   1.000  O
  O13      1.0000 0.73546  0.82443  0.17050  Biso   1.000  O
  O14      1.0000 0.26454  0.82443  0.82950  Biso   1.000  O
  O15      1.0000 0.23546  0.32443  0.17050  Biso   1.000  O
  O16      1.0000 0.76454  0.32443  0.82950  Biso   1.000  O
  C81      1.0000 0.39346  0.18097  0.49100  Biso   1.000  C
  C82      1.0000 0.60654  0.18097  0.50900  Biso   1.000  C
  C83      1.0000 0.89346  0.68097  0.49100  Biso   1.000  C
  C84      1.0000 0.10654  0.68097  0.50900  Biso   1.000  C
  C85      1.0000 0.60654  0.81903  0.50900  Biso   1.000  C
  C86      1.0000 0.39346  0.81903  0.49100  Biso   1.000  C
  C87      1.0000 0.10654  0.31903  0.50900  Biso   1.000  C
  C88      1.0000 0.89346  0.31903  0.49100  Biso   1.000  C
  C89      1.0000 0.34433  0.18307  0.27410  Biso   1.000  C
  C90      1.0000 0.65567  0.18307  0.72590  Biso   1.000  C
  C91      1.0000 0.84433  0.68307  0.27410  Biso   1.000  C
  C92      1.0000 0.15567  0.68307  0.72590  Biso   1.000  C
  C93      1.0000 0.65567  0.81693  0.72590  Biso   1.000  C
  C94      1.0000 0.34433  0.81693  0.27410  Biso   1.000  C
  C95      1.0000 0.15567  0.31693  0.72590  Biso   1.000  C
  C96      1.0000 0.84433  0.31693  0.27410  Biso   1.000  C
  C97      1.0000 0.33669  0.14084  0.13770  Biso   1.000  C
  C98      1.0000 0.66331  0.14084  0.86230  Biso   1.000  C
  C99      1.0000 0.83669  0.64084  0.13770  Biso   1.000  C
  C100     1.0000 0.16331  0.64084  0.86230  Biso   1.000  C
  C101     1.0000 0.66331  0.85916  0.86230  Biso   1.000  C
  C102     1.0000 0.33669  0.85916  0.13770  Biso   1.000  C
  C103     1.0000 0.16331  0.35916  0.86230  Biso   1.000  C
  C104     1.0000 0.83669  0.35916  0.13770  Biso   1.000  C
  H49      1.0000 0.35990  0.11050  0.18820  Biso   1.000  H
  H50      1.0000 0.64010  0.11050  0.81180  Biso   1.000  H
  H51      1.0000 0.85990  0.61050  0.18820  Biso   1.000  H
  H52      1.0000 0.14010  0.61050  0.81180  Biso   1.000  H
  H53      1.0000 0.64010  0.88950  0.81180  Biso   1.000  H
  H54      1.0000 0.35990  0.88950  0.18820  Biso   1.000  H
  H55      1.0000 0.14010  0.38950  0.81180  Biso   1.000  H
  H56      1.0000 0.85990  0.38950  0.18820  Biso   1.000  H
  C105     1.0000 0.29695  0.13998  0.93010  Biso   1.000  C
  C106     1.0000 0.70305  0.13998  0.06990  Biso   1.000  C
  C107     1.0000 0.79695  0.63998  0.93010  Biso   1.000  C
  C108     1.0000 0.20305  0.63998  0.06990  Biso   1.000  C
  C109     1.0000 0.70305  0.86002  0.06990  Biso   1.000  C
  C110     1.0000 0.29695  0.86002  0.93010  Biso   1.000  C
  C111     1.0000 0.20305  0.36002  0.06990  Biso   1.000  C
  C112     1.0000 0.79695  0.36002  0.93010  Biso   1.000  C
  C113     1.0000 0.29000  0.08786  0.80410  Biso   1.000  C
  C114     1.0000 0.71000  0.08786  0.19590  Biso   1.000  C
  C115     1.0000 0.79000  0.58786  0.80410  Biso   1.000  C
  C116     1.0000 0.21000  0.58786  0.19590  Biso   1.000  C
  C117     1.0000 0.71000  0.91214  0.19590  Biso   1.000  C
  C118     1.0000 0.29000  0.91214  0.80410  Biso   1.000  C
  C119     1.0000 0.21000  0.41214  0.19590  Biso   1.000  C
  C120     1.0000 0.79000  0.41214  0.80410  Biso   1.000  C
