data_image0
_cell_length_a       8.0756
_cell_length_b       7.5872
_cell_length_c       7.41
_cell_angle_alpha    90
_cell_angle_beta     116.319
_cell_angle_gamma    90

_symmetry_space_group_name_H-M    "P 1"
_symmetry_int_tables_number       1

loop_
  _symmetry_equiv_pos_as_xyz
  'x, y, z'

loop_
  _atom_site_label
  _atom_site_occupancy
  _atom_site_fract_x
  _atom_site_fract_y
  _atom_site_fract_z
  _atom_site_thermal_displace_type
  _atom_site_B_iso_or_equiv
  _atom_site_type_symbol
  Cu1      1.0000 0.94490  0.81100  0.90880  Biso   1.000  Cu
  Cu2      1.0000 0.05510  0.31100  0.59120  Biso   1.000  Cu
  Cu3      1.0000 0.05510  0.18900  0.09120  Biso   1.000  Cu
  Cu4      1.0000 0.94490  0.68900  0.40880  Biso   1.000  Cu
  P1       1.0000 0.21490  0.55130  0.26340  Biso   1.000  P
  P2       1.0000 0.78510  0.05130  0.23660  Biso   1.000  P
  P3       1.0000 0.78510  0.44870  0.73660  Biso   1.000  P
  P4       1.0000 0.21490  0.94870  0.76340  Biso   1.000  P
  O1       1.0000 0.21320  0.40000  0.11760  Biso   1.000  O
  O2       1.0000 0.78680  0.90000  0.38240  Biso   1.000  O
  O3       1.0000 0.78680  0.60000  0.88240  Biso   1.000  O
  O4       1.0000 0.21320  0.10000  0.61760  Biso   1.000  O
  O5       1.0000 0.10150  0.51190  0.37100  Biso   1.000  O
  O6       1.0000 0.89850  0.01190  0.12900  Biso   1.000  O
  O7       1.0000 0.89850  0.48810  0.62900  Biso   1.000  O
  O8       1.0000 0.10150  0.98810  0.87100  Biso   1.000  O
  O9       1.0000 0.15990  0.72770  0.14640  Biso   1.000  O
  O10      1.0000 0.84010  0.22770  0.35360  Biso   1.000  O
  O11      1.0000 0.84010  0.27230  0.85360  Biso   1.000  O
  O12      1.0000 0.15990  0.77230  0.64640  Biso   1.000  O
  O13      1.0000 0.27120  0.05890  0.30570  Biso   1.000  O
  O14      1.0000 0.72880  0.55890  0.19430  Biso   1.000  O
  O15      1.0000 0.72880  0.94110  0.69430  Biso   1.000  O
  O16      1.0000 0.27120  0.44110  0.80570  Biso   1.000  O
  C1       1.0000 0.45820  0.58520  0.44450  Biso   1.000  C
  C2       1.0000 0.54180  0.08520  0.05550  Biso   1.000  C
  C3       1.0000 0.54180  0.41480  0.55550  Biso   1.000  C
  C4       1.0000 0.45820  0.91480  0.94450  Biso   1.000  C
