data_image0
_cell_length_a       8.067
_cell_length_b       7.5889
_cell_length_c       7.3997
_cell_angle_alpha    90
_cell_angle_beta     116.281
_cell_angle_gamma    90

_symmetry_space_group_name_H-M    "P 1"
_symmetry_int_tables_number       1

loop_
  _symmetry_equiv_pos_as_xyz
  'x, y, z'

loop_
  _atom_site_label
  _atom_site_occupancy
  _atom_site_fract_x
  _atom_site_fract_y
  _atom_site_fract_z
  _atom_site_thermal_displace_type
  _atom_site_B_iso_or_equiv
  _atom_site_type_symbol
  Cu1      1.0000 0.05690  0.18960  0.09090  Biso   1.000  Cu
  Cu2      1.0000 0.94310  0.68960  0.40910  Biso   1.000  Cu
  Cu3      1.0000 0.94310  0.81040  0.90910  Biso   1.000  Cu
  Cu4      1.0000 0.05690  0.31040  0.59090  Biso   1.000  Cu
  P1       1.0000 0.78250  0.44890  0.73780  Biso   1.000  P
  P2       1.0000 0.21750  0.94890  0.76220  Biso   1.000  P
  P3       1.0000 0.21750  0.55110  0.26220  Biso   1.000  P
  P4       1.0000 0.78250  0.05110  0.23780  Biso   1.000  P
  O1       1.0000 0.79130  0.60420  0.87470  Biso   1.000  O
  O2       1.0000 0.20870  0.10420  0.62530  Biso   1.000  O
  O3       1.0000 0.20870  0.39580  0.12530  Biso   1.000  O
  O4       1.0000 0.79130  0.89580  0.37470  Biso   1.000  O
  O5       1.0000 0.84260  0.27550  0.85460  Biso   1.000  O
  O6       1.0000 0.15740  0.77550  0.64540  Biso   1.000  O
  O7       1.0000 0.15740  0.72450  0.14540  Biso   1.000  O
  O8       1.0000 0.84260  0.22450  0.35460  Biso   1.000  O
  O9       1.0000 0.89730  0.49230  0.62410  Biso   1.000  O
  O10      1.0000 0.10270  0.99230  0.87590  Biso   1.000  O
  O11      1.0000 0.10270  0.50770  0.37590  Biso   1.000  O
  O12      1.0000 0.89730  0.00770  0.12410  Biso   1.000  O
  O13      1.0000 0.27110  0.06150  0.30310  Biso   1.000  O
  O14      1.0000 0.72890  0.56150  0.19690  Biso   1.000  O
  O15      1.0000 0.72890  0.93850  0.69690  Biso   1.000  O
  O16      1.0000 0.27110  0.43850  0.80310  Biso   1.000  O
  C1       1.0000 0.54510  0.41700  0.56030  Biso   1.000  C
  C2       1.0000 0.45490  0.91700  0.93970  Biso   1.000  C
  C3       1.0000 0.45490  0.58300  0.43970  Biso   1.000  C
  C4       1.0000 0.54510  0.08300  0.06030  Biso   1.000  C
  H1       1.0000 0.53810  0.32370  0.46760  Biso   1.000  H
  H2       1.0000 0.46190  0.82370  0.03240  Biso   1.000  H
  H3       1.0000 0.46190  0.67630  0.53240  Biso   1.000  H
  H4       1.0000 0.53810  0.17630  0.96760  Biso   1.000  H
  H5       1.0000 0.47590  0.37900  0.63230  Biso   1.000  H
  H6       1.0000 0.52410  0.87900  0.86770  Biso   1.000  H
  H7       1.0000 0.52410  0.62100  0.36770  Biso   1.000  H
  H8       1.0000 0.47590  0.12100  0.13230  Biso   1.000  H
