data_image0
_cell_length_a       15.0906
_cell_length_b       13.9216
_cell_length_c       13.7673
_cell_angle_alpha    90
_cell_angle_beta     121.3
_cell_angle_gamma    90

_symmetry_space_group_name_H-M    "P 1"
_symmetry_int_tables_number       1

loop_
  _symmetry_equiv_pos_as_xyz
  'x, y, z'

loop_
  _atom_site_label
  _atom_site_occupancy
  _atom_site_fract_x
  _atom_site_fract_y
  _atom_site_fract_z
  _atom_site_thermal_displace_type
  _atom_site_B_iso_or_equiv
  _atom_site_type_symbol
  Cu1      1.0000 0.49313  0.09895  0.95707  Biso   1.000  Cu
  Cu2      1.0000 0.50687  0.09895  0.54293  Biso   1.000  Cu
  Cu3      1.0000 0.99313  0.59895  0.95707  Biso   1.000  Cu
  Cu4      1.0000 0.00687  0.59895  0.54293  Biso   1.000  Cu
  Cu5      1.0000 0.50687  0.90105  0.04293  Biso   1.000  Cu
  Cu6      1.0000 0.49313  0.90105  0.45707  Biso   1.000  Cu
  Cu7      1.0000 0.00687  0.40105  0.04293  Biso   1.000  Cu
  Cu8      1.0000 0.99313  0.40105  0.45707  Biso   1.000  Cu
  N1       1.0000 0.35790  0.17430  0.87830  Biso   1.000  N
  N2       1.0000 0.64210  0.17430  0.62170  Biso   1.000  N
  N3       1.0000 0.85790  0.67430  0.87830  Biso   1.000  N
  N4       1.0000 0.14210  0.67430  0.62170  Biso   1.000  N
  N5       1.0000 0.64210  0.82570  0.12170  Biso   1.000  N
  N6       1.0000 0.35790  0.82570  0.37830  Biso   1.000  N
  N7       1.0000 0.14210  0.32570  0.12170  Biso   1.000  N
  N8       1.0000 0.85790  0.32570  0.37830  Biso   1.000  N
  H1       1.0000 0.37230  0.23820  0.89070  Biso   1.000  H
  H2       1.0000 0.62770  0.23820  0.60930  Biso   1.000  H
  H3       1.0000 0.87230  0.73820  0.89070  Biso   1.000  H
  H4       1.0000 0.12770  0.73820  0.60930  Biso   1.000  H
  H5       1.0000 0.62770  0.76180  0.10930  Biso   1.000  H
  H6       1.0000 0.37230  0.76180  0.39070  Biso   1.000  H
  H7       1.0000 0.12770  0.26180  0.10930  Biso   1.000  H
  H8       1.0000 0.87230  0.26180  0.39070  Biso   1.000  H
  N9       1.0000 0.42550  0.18120  0.58970  Biso   1.000  N
  N10      1.0000 0.57450  0.18120  0.91030  Biso   1.000  N
  N11      1.0000 0.92550  0.68120  0.58970  Biso   1.000  N
  N12      1.0000 0.07450  0.68120  0.91030  Biso   1.000  N
  N13      1.0000 0.57450  0.81880  0.41030  Biso   1.000  N
  N14      1.0000 0.42550  0.81880  0.08970  Biso   1.000  N
  N15      1.0000 0.07450  0.31880  0.41030  Biso   1.000  N
  N16      1.0000 0.92550  0.31880  0.08970  Biso   1.000  N
  O1       1.0000 0.41900  0.01430  0.99930  Biso   1.000  O
  O2       1.0000 0.58100  0.01430  0.50070  Biso   1.000  O
  O3       1.0000 0.91900  0.51430  0.99930  Biso   1.000  O
  O4       1.0000 0.08100  0.51430  0.50070  Biso   1.000  O
  O5       1.0000 0.58100  0.98570  0.00070  Biso   1.000  O
  O6       1.0000 0.41900  0.98570  0.49930  Biso   1.000  O
  O7       1.0000 0.08100  0.48570  0.00070  Biso   1.000  O
  O8       1.0000 0.91900  0.48570  0.49930  Biso   1.000  O
  C1       1.0000 0.31240  0.03480  0.95030  Biso   1.000  C
  C2       1.0000 0.68760  0.03480  0.54970  Biso   1.000  C
  C3       1.0000 0.81240  0.53480  0.95030  Biso   1.000  C
  C4       1.0000 0.18760  0.53480  0.54970  Biso   1.000  C
  C5       1.0000 0.68760  0.96520  0.04970  Biso   1.000  C
  C6       1.0000 0.31240  0.96520  0.45030  Biso   1.000  C
  C7       1.0000 0.18760  0.46520  0.04970  Biso   1.000  C
  C8       1.0000 0.81240  0.46520  0.45030  Biso   1.000  C
  H9       1.0000 0.28820  0.01350  0.99970  Biso   1.000  H
  H10      1.0000 0.71180  0.01350  0.50030  Biso   1.000  H
  H11      1.0000 0.78820  0.51350  0.99970  Biso   1.000  H
  H12      1.0000 0.21180  0.51350  0.50030  Biso   1.000  H
  H13      1.0000 0.71180  0.98650  0.00030  Biso   1.000  H
  H14      1.0000 0.28820  0.98650  0.49970  Biso   1.000  H
  H15      1.0000 0.21180  0.48650  0.00030  Biso   1.000  H
  H16      1.0000 0.78820  0.48650  0.49970  Biso   1.000  H
  H17      1.0000 0.27170  0.00320  0.87720  Biso   1.000  H
  H18      1.0000 0.72830  0.00320  0.62280  Biso   1.000  H
  H19      1.0000 0.77170  0.50320  0.87720  Biso   1.000  H
  H20      1.0000 0.22830  0.50320  0.62280  Biso   1.000  H
  H21      1.0000 0.72830  0.99680  0.12280  Biso   1.000  H
  H22      1.0000 0.27170  0.99680  0.37720  Biso   1.000  H
  H23      1.0000 0.22830  0.49680  0.12280  Biso   1.000  H
  H24      1.0000 0.77170  0.49680  0.37720  Biso   1.000  H
  C9       1.0000 0.30430  0.14330  0.93660  Biso   1.000  C
  C10      1.0000 0.69570  0.14330  0.56340  Biso   1.000  C
  C11      1.0000 0.80430  0.64330  0.93660  Biso   1.000  C
  C12      1.0000 0.19570  0.64330  0.56340  Biso   1.000  C
  C13      1.0000 0.69570  0.85670  0.06340  Biso   1.000  C
  C14      1.0000 0.30430  0.85670  0.43660  Biso   1.000  C
  C15      1.0000 0.19570  0.35670  0.06340  Biso   1.000  C
  C16      1.0000 0.80430  0.35670  0.43660  Biso   1.000  C
  H25      1.0000 0.23190  0.16220  0.89260  Biso   1.000  H
  H26      1.0000 0.76810  0.16220  0.60740  Biso   1.000  H
  H27      1.0000 0.73190  0.66220  0.89260  Biso   1.000  H
  H28      1.0000 0.26810  0.66220  0.60740  Biso   1.000  H
  H29      1.0000 0.76810  0.83780  0.10740  Biso   1.000  H
  H30      1.0000 0.23190  0.83780  0.39260  Biso   1.000  H
  H31      1.0000 0.26810  0.33780  0.10740  Biso   1.000  H
  H32      1.0000 0.73190  0.33780  0.39260  Biso   1.000  H
  H33      1.0000 0.33560  0.17370  0.01060  Biso   1.000  H
  H34      1.0000 0.66440  0.17370  0.48940  Biso   1.000  H
  H35      1.0000 0.83560  0.67370  0.01060  Biso   1.000  H
  H36      1.0000 0.16440  0.67370  0.48940  Biso   1.000  H
  H37      1.0000 0.66440  0.82630  0.98940  Biso   1.000  H
  H38      1.0000 0.33560  0.82630  0.51060  Biso   1.000  H
  H39      1.0000 0.16440  0.32630  0.98940  Biso   1.000  H
  H40      1.0000 0.83560  0.32630  0.51060  Biso   1.000  H
  C17      1.0000 0.29020  0.15650  0.75220  Biso   1.000  C
  C18      1.0000 0.70980  0.15650  0.74780  Biso   1.000  C
  C19      1.0000 0.79020  0.65650  0.75220  Biso   1.000  C
  C20      1.0000 0.20980  0.65650  0.74780  Biso   1.000  C
  C21      1.0000 0.70980  0.84350  0.24780  Biso   1.000  C
  C22      1.0000 0.29020  0.84350  0.25220  Biso   1.000  C
  C23      1.0000 0.20980  0.34350  0.24780  Biso   1.000  C
  C24      1.0000 0.79020  0.34350  0.25220  Biso   1.000  C
  H41      1.0000 0.28230  0.08790  0.73830  Biso   1.000  H
  H42      1.0000 0.71770  0.08790  0.76170  Biso   1.000  H
  H43      1.0000 0.78230  0.58790  0.73830  Biso   1.000  H
  H44      1.0000 0.21770  0.58790  0.76170  Biso   1.000  H
  H45      1.0000 0.71770  0.91210  0.26170  Biso   1.000  H
  H46      1.0000 0.28230  0.91210  0.23830  Biso   1.000  H
  H47      1.0000 0.21770  0.41210  0.26170  Biso   1.000  H
  H48      1.0000 0.78230  0.41210  0.23830  Biso   1.000  H
  H49      1.0000 0.22200  0.18340  0.72500  Biso   1.000  H
  H50      1.0000 0.77800  0.18340  0.77500  Biso   1.000  H
  H51      1.0000 0.72200  0.68340  0.72500  Biso   1.000  H
  H52      1.0000 0.27800  0.68340  0.77500  Biso   1.000  H
  H53      1.0000 0.77800  0.81660  0.27500  Biso   1.000  H
  H54      1.0000 0.22200  0.81660  0.22500  Biso   1.000  H
  H55      1.0000 0.27800  0.31660  0.27500  Biso   1.000  H
  H56      1.0000 0.72200  0.31660  0.22500  Biso   1.000  H
  C25      1.0000 0.33500  0.20050  0.68700  Biso   1.000  C
  C26      1.0000 0.66500  0.20050  0.81300  Biso   1.000  C
  C27      1.0000 0.83500  0.70050  0.68700  Biso   1.000  C
  C28      1.0000 0.16500  0.70050  0.81300  Biso   1.000  C
  C29      1.0000 0.66500  0.79950  0.31300  Biso   1.000  C
  C30      1.0000 0.33500  0.79950  0.18700  Biso   1.000  C
  C31      1.0000 0.16500  0.29950  0.31300  Biso   1.000  C
  C32      1.0000 0.83500  0.29950  0.18700  Biso   1.000  C
  C33      1.0000 0.32650  0.29880  0.66250  Biso   1.000  C
  C34      1.0000 0.67350  0.29880  0.83750  Biso   1.000  C
  C35      1.0000 0.82650  0.79880  0.66250  Biso   1.000  C
  C36      1.0000 0.17350  0.79880  0.83750  Biso   1.000  C
  C37      1.0000 0.67350  0.70120  0.33750  Biso   1.000  C
  C38      1.0000 0.32650  0.70120  0.16250  Biso   1.000  C
  C39      1.0000 0.17350  0.20120  0.33750  Biso   1.000  C
  C40      1.0000 0.82650  0.20120  0.16250  Biso   1.000  C
  H57      1.0000 0.29180  0.33890  0.68600  Biso   1.000  H
  H58      1.0000 0.70820  0.33890  0.81400  Biso   1.000  H
  H59      1.0000 0.79180  0.83890  0.68600  Biso   1.000  H
  H60      1.0000 0.20820  0.83890  0.81400  Biso   1.000  H
  H61      1.0000 0.70820  0.66110  0.31400  Biso   1.000  H
  H62      1.0000 0.29180  0.66110  0.18600  Biso   1.000  H
  H63      1.0000 0.20820  0.16110  0.31400  Biso   1.000  H
  H64      1.0000 0.79180  0.16110  0.18600  Biso   1.000  H
  C41      1.0000 0.36940  0.33580  0.60390  Biso   1.000  C
  C42      1.0000 0.63060  0.33580  0.89610  Biso   1.000  C
  C43      1.0000 0.86940  0.83580  0.60390  Biso   1.000  C
  C44      1.0000 0.13060  0.83580  0.89610  Biso   1.000  C
  C45      1.0000 0.63060  0.66420  0.39610  Biso   1.000  C
  C46      1.0000 0.36940  0.66420  0.10390  Biso   1.000  C
  C47      1.0000 0.13060  0.16420  0.39610  Biso   1.000  C
  C48      1.0000 0.86940  0.16420  0.10390  Biso   1.000  C
  H65      1.0000 0.36600  0.40130  0.58950  Biso   1.000  H
  H66      1.0000 0.63400  0.40130  0.91050  Biso   1.000  H
  H67      1.0000 0.86600  0.90130  0.58950  Biso   1.000  H
  H68      1.0000 0.13400  0.90130  0.91050  Biso   1.000  H
  H69      1.0000 0.63400  0.59870  0.41050  Biso   1.000  H
  H70      1.0000 0.36600  0.59870  0.08950  Biso   1.000  H
  H71      1.0000 0.13400  0.09870  0.41050  Biso   1.000  H
  H72      1.0000 0.86600  0.09870  0.08950  Biso   1.000  H
  C49      1.0000 0.41780  0.27480  0.56620  Biso   1.000  C
  C50      1.0000 0.58220  0.27480  0.93380  Biso   1.000  C
  C51      1.0000 0.91780  0.77480  0.56620  Biso   1.000  C
  C52      1.0000 0.08220  0.77480  0.93380  Biso   1.000  C
  C53      1.0000 0.58220  0.72520  0.43380  Biso   1.000  C
  C54      1.0000 0.41780  0.72520  0.06620  Biso   1.000  C
  C55      1.0000 0.08220  0.22520  0.43380  Biso   1.000  C
  C56      1.0000 0.91780  0.22520  0.06620  Biso   1.000  C
  H73      1.0000 0.44520  0.29930  0.52440  Biso   1.000  H
  H74      1.0000 0.55480  0.29930  0.97560  Biso   1.000  H
  H75      1.0000 0.94520  0.79930  0.52440  Biso   1.000  H
  H76      1.0000 0.05480  0.79930  0.97560  Biso   1.000  H
  H77      1.0000 0.55480  0.70070  0.47560  Biso   1.000  H
  H78      1.0000 0.44520  0.70070  0.02440  Biso   1.000  H
  H79      1.0000 0.05480  0.20070  0.47560  Biso   1.000  H
  H80      1.0000 0.94520  0.20070  0.02440  Biso   1.000  H
  C57      1.0000 0.38610  0.14590  0.64750  Biso   1.000  C
  C58      1.0000 0.61390  0.14590  0.85250  Biso   1.000  C
  C59      1.0000 0.88610  0.64590  0.64750  Biso   1.000  C
  C60      1.0000 0.11390  0.64590  0.85250  Biso   1.000  C
  C61      1.0000 0.61390  0.85410  0.35250  Biso   1.000  C
  C62      1.0000 0.38610  0.85410  0.14750  Biso   1.000  C
  C63      1.0000 0.11390  0.35410  0.35250  Biso   1.000  C
  C64      1.0000 0.88610  0.35410  0.14750  Biso   1.000  C
  H81      1.0000 0.39300  0.08040  0.66280  Biso   1.000  H
  H82      1.0000 0.60700  0.08040  0.83720  Biso   1.000  H
  H83      1.0000 0.89300  0.58040  0.66280  Biso   1.000  H
  H84      1.0000 0.10700  0.58040  0.83720  Biso   1.000  H
  H85      1.0000 0.60700  0.91960  0.33720  Biso   1.000  H
  H86      1.0000 0.39300  0.91960  0.16280  Biso   1.000  H
  H87      1.0000 0.10700  0.41960  0.33720  Biso   1.000  H
  H88      1.0000 0.89300  0.41960  0.16280  Biso   1.000  H
  O9       1.0000 0.57180  0.17960  0.13190  Biso   1.000  O
  O10      1.0000 0.42820  0.17960  0.36810  Biso   1.000  O
  O11      1.0000 0.07180  0.67960  0.13190  Biso   1.000  O
  O12      1.0000 0.92820  0.67960  0.36810  Biso   1.000  O
  O13      1.0000 0.42820  0.82040  0.86810  Biso   1.000  O
  O14      1.0000 0.57180  0.82040  0.63190  Biso   1.000  O
  O15      1.0000 0.92820  0.32040  0.86810  Biso   1.000  O
  O16      1.0000 0.07180  0.32040  0.63190  Biso   1.000  O
  N17      1.0000 0.58800  0.13410  0.21830  Biso   1.000  N
  N18      1.0000 0.41200  0.13410  0.28170  Biso   1.000  N
  N19      1.0000 0.08800  0.63410  0.21830  Biso   1.000  N
  N20      1.0000 0.91200  0.63410  0.28170  Biso   1.000  N
  N21      1.0000 0.41200  0.86590  0.78170  Biso   1.000  N
  N22      1.0000 0.58800  0.86590  0.71830  Biso   1.000  N
  N23      1.0000 0.91200  0.36590  0.78170  Biso   1.000  N
  N24      1.0000 0.08800  0.36590  0.71830  Biso   1.000  N
