data_image0
_cell_length_a       10.732
_cell_length_b       7.6759
_cell_length_c       15.0672
_cell_angle_alpha    90
_cell_angle_beta     103.09
_cell_angle_gamma    90

_symmetry_space_group_name_H-M    "P 1"
_symmetry_int_tables_number       1

loop_
  _symmetry_equiv_pos_as_xyz
  'x, y, z'

loop_
  _atom_site_label
  _atom_site_occupancy
  _atom_site_fract_x
  _atom_site_fract_y
  _atom_site_fract_z
  _atom_site_thermal_displace_type
  _atom_site_B_iso_or_equiv
  _atom_site_type_symbol
  Cu1      1.0000 0.74699  0.12791  0.78888  Biso   1.000  Cu
  Cu2      1.0000 0.25301  0.62791  0.71112  Biso   1.000  Cu
  Cu3      1.0000 0.25301  0.87209  0.21112  Biso   1.000  Cu
  Cu4      1.0000 0.74699  0.37209  0.28888  Biso   1.000  Cu
  N1       1.0000 0.77220  0.28890  0.89770  Biso   1.000  N
  N2       1.0000 0.22780  0.78890  0.60230  Biso   1.000  N
  N3       1.0000 0.22780  0.71110  0.10230  Biso   1.000  N
  N4       1.0000 0.77220  0.21110  0.39770  Biso   1.000  N
  H1       1.0000 0.82230  0.23180  0.94560  Biso   1.000  H
  H2       1.0000 0.17770  0.73180  0.55440  Biso   1.000  H
  H3       1.0000 0.17770  0.76820  0.05440  Biso   1.000  H
  H4       1.0000 0.82230  0.26820  0.44560  Biso   1.000  H
  N5       1.0000 0.71220  0.48990  0.16880  Biso   1.000  N
  N6       1.0000 0.28780  0.98990  0.33120  Biso   1.000  N
  N7       1.0000 0.28780  0.51010  0.83120  Biso   1.000  N
  N8       1.0000 0.71220  0.01010  0.66880  Biso   1.000  N
  O1       1.0000 0.86300  0.29840  0.74880  Biso   1.000  O
  O2       1.0000 0.13700  0.79840  0.75120  Biso   1.000  O
  O3       1.0000 0.13700  0.70160  0.25120  Biso   1.000  O
  O4       1.0000 0.86300  0.20160  0.24880  Biso   1.000  O
  H5       1.0000 0.88800  0.29200  0.70900  Biso   1.000  H
  H6       1.0000 0.11200  0.79200  0.79100  Biso   1.000  H
  H7       1.0000 0.11200  0.70800  0.29100  Biso   1.000  H
  H8       1.0000 0.88800  0.20800  0.20900  Biso   1.000  H
  C1       1.0000 0.93720  0.39180  0.82380  Biso   1.000  C
  C2       1.0000 0.06280  0.89180  0.67620  Biso   1.000  C
  C3       1.0000 0.06280  0.60820  0.17620  Biso   1.000  C
  C4       1.0000 0.93720  0.10820  0.32380  Biso   1.000  C
  H9       1.0000 0.97680  0.49290  0.80300  Biso   1.000  H
  H10      1.0000 0.02320  0.99290  0.69700  Biso   1.000  H
  H11      1.0000 0.02320  0.50710  0.19700  Biso   1.000  H
  H12      1.0000 0.97680  0.00710  0.30300  Biso   1.000  H
  H13      1.0000 0.00370  0.31820  0.85920  Biso   1.000  H
  H14      1.0000 0.99630  0.81820  0.64080  Biso   1.000  H
  H15      1.0000 0.99630  0.68180  0.14080  Biso   1.000  H
  H16      1.0000 0.00370  0.18180  0.35920  Biso   1.000  H
  C5       1.0000 0.84460  0.44630  0.87950  Biso   1.000  C
  C6       1.0000 0.15540  0.94630  0.62050  Biso   1.000  C
  C7       1.0000 0.15540  0.55370  0.12050  Biso   1.000  C
  C8       1.0000 0.84460  0.05370  0.37950  Biso   1.000  C
  H17      1.0000 0.89030  0.49710  0.93660  Biso   1.000  H
  H18      1.0000 0.10970  0.99710  0.56340  Biso   1.000  H
  H19      1.0000 0.10970  0.50290  0.06340  Biso   1.000  H
  H20      1.0000 0.89030  0.00290  0.43660  Biso   1.000  H
  H21      1.0000 0.78590  0.53280  0.84680  Biso   1.000  H
  H22      1.0000 0.21410  0.03280  0.65320  Biso   1.000  H
  H23      1.0000 0.21410  0.46720  0.15320  Biso   1.000  H
  H24      1.0000 0.78590  0.96720  0.34680  Biso   1.000  H
  C9       1.0000 0.65140  0.33910  0.92530  Biso   1.000  C
  C10      1.0000 0.34860  0.83910  0.57470  Biso   1.000  C
  C11      1.0000 0.34860  0.66090  0.07470  Biso   1.000  C
  C12      1.0000 0.65140  0.16090  0.42530  Biso   1.000  C
  H25      1.0000 0.60990  0.23410  0.93990  Biso   1.000  H
  H26      1.0000 0.39010  0.73410  0.56010  Biso   1.000  H
  H27      1.0000 0.39010  0.76590  0.06010  Biso   1.000  H
  H28      1.0000 0.60990  0.26590  0.43990  Biso   1.000  H
  H29      1.0000 0.59410  0.39390  0.87380  Biso   1.000  H
  H30      1.0000 0.40590  0.89390  0.62620  Biso   1.000  H
  H31      1.0000 0.40590  0.60610  0.12620  Biso   1.000  H
  H32      1.0000 0.59410  0.10610  0.37380  Biso   1.000  H
  C13      1.0000 0.67060  0.46090  0.00560  Biso   1.000  C
  C14      1.0000 0.32940  0.96090  0.49440  Biso   1.000  C
  C15      1.0000 0.32940  0.53910  0.99440  Biso   1.000  C
  C16      1.0000 0.67060  0.03910  0.50560  Biso   1.000  C
  C17      1.0000 0.66640  0.64070  0.99670  Biso   1.000  C
  C18      1.0000 0.33360  0.14070  0.50330  Biso   1.000  C
  C19      1.0000 0.33360  0.35930  0.00330  Biso   1.000  C
  C20      1.0000 0.66640  0.85930  0.49670  Biso   1.000  C
  H33      1.0000 0.64990  0.69200  0.93930  Biso   1.000  H
  H34      1.0000 0.35010  0.19200  0.56070  Biso   1.000  H
  H35      1.0000 0.35010  0.30800  0.06070  Biso   1.000  H
  H36      1.0000 0.64990  0.80800  0.43930  Biso   1.000  H
  C21      1.0000 0.68730  0.74280  0.07430  Biso   1.000  C
  C22      1.0000 0.31270  0.24280  0.42570  Biso   1.000  C
  C23      1.0000 0.31270  0.25720  0.92570  Biso   1.000  C
  C24      1.0000 0.68730  0.75720  0.57430  Biso   1.000  C
  H37      1.0000 0.68630  0.86360  0.06980  Biso   1.000  H
  H38      1.0000 0.31370  0.36360  0.43020  Biso   1.000  H
  H39      1.0000 0.31370  0.13640  0.93020  Biso   1.000  H
  H40      1.0000 0.68630  0.63640  0.56980  Biso   1.000  H
  C25      1.0000 0.70940  0.66350  0.15820  Biso   1.000  C
  C26      1.0000 0.29060  0.16350  0.34180  Biso   1.000  C
  C27      1.0000 0.29060  0.33650  0.84180  Biso   1.000  C
  C28      1.0000 0.70940  0.83650  0.65820  Biso   1.000  C
  H41      1.0000 0.72300  0.73330  0.20990  Biso   1.000  H
  H42      1.0000 0.27700  0.23330  0.29010  Biso   1.000  H
  H43      1.0000 0.27700  0.26670  0.79010  Biso   1.000  H
  H44      1.0000 0.72300  0.76670  0.70990  Biso   1.000  H
  C29      1.0000 0.69220  0.39220  0.09190  Biso   1.000  C
  C30      1.0000 0.30780  0.89220  0.40810  Biso   1.000  C
  C31      1.0000 0.30780  0.60780  0.90810  Biso   1.000  C
  C32      1.0000 0.69220  0.10780  0.59190  Biso   1.000  C
  H45      1.0000 0.69310  0.27160  0.09800  Biso   1.000  H
  H46      1.0000 0.30690  0.77160  0.40200  Biso   1.000  H
  H47      1.0000 0.30690  0.72840  0.90200  Biso   1.000  H
  H48      1.0000 0.69310  0.22840  0.59800  Biso   1.000  H
  N9       1.0000 0.95820  0.86620  0.90550  Biso   1.000  N
  N10      1.0000 0.04180  0.36620  0.59450  Biso   1.000  N
  N11      1.0000 0.04180  0.13380  0.09450  Biso   1.000  N
  N12      1.0000 0.95820  0.63380  0.40550  Biso   1.000  N
  O5       1.0000 0.92080  0.95110  0.83340  Biso   1.000  O
  O6       1.0000 0.07920  0.45110  0.66660  Biso   1.000  O
  O7       1.0000 0.07920  0.04890  0.16660  Biso   1.000  O
  O8       1.0000 0.92080  0.54890  0.33340  Biso   1.000  O
  O9       1.0000 0.90260  0.87050  0.96780  Biso   1.000  O
  O10      1.0000 0.09740  0.37050  0.53220  Biso   1.000  O
  O11      1.0000 0.09740  0.12950  0.03220  Biso   1.000  O
  O12      1.0000 0.90260  0.62950  0.46780  Biso   1.000  O
  O13      1.0000 0.05790  0.77260  0.91170  Biso   1.000  O
  O14      1.0000 0.94210  0.27260  0.58830  Biso   1.000  O
  O15      1.0000 0.94210  0.22740  0.08830  Biso   1.000  O
  O16      1.0000 0.05790  0.72740  0.41170  Biso   1.000  O
  N13      1.0000 0.51730  0.00240  0.81030  Biso   1.000  N
  N14      1.0000 0.48270  0.50240  0.68970  Biso   1.000  N
  N15      1.0000 0.48270  0.99760  0.18970  Biso   1.000  N
  N16      1.0000 0.51730  0.49760  0.31030  Biso   1.000  N
  O17      1.0000 0.63630  0.96950  0.84020  Biso   1.000  O
  O18      1.0000 0.36370  0.46950  0.65980  Biso   1.000  O
  O19      1.0000 0.36370  0.03050  0.15980  Biso   1.000  O
  O20      1.0000 0.63630  0.53050  0.34020  Biso   1.000  O
  O21      1.0000 0.48610  0.11480  0.75000  Biso   1.000  O
  O22      1.0000 0.51390  0.61480  0.75000  Biso   1.000  O
  O23      1.0000 0.51390  0.88520  0.25000  Biso   1.000  O
  O24      1.0000 0.48610  0.38520  0.25000  Biso   1.000  O
  O25      1.0000 0.43800  0.92350  0.84050  Biso   1.000  O
  O26      1.0000 0.56200  0.42350  0.65950  Biso   1.000  O
  O27      1.0000 0.56200  0.07650  0.15950  Biso   1.000  O
  O28      1.0000 0.43800  0.57650  0.34050  Biso   1.000  O
