data_image0
_cell_length_a       3.7606
_cell_length_b       8.8887
_cell_length_c       13.649
_cell_angle_alpha    86.21
_cell_angle_beta     86.88
_cell_angle_gamma    78.56

_symmetry_space_group_name_H-M    "P 1"
_symmetry_int_tables_number       1

loop_
  _symmetry_equiv_pos_as_xyz
  'x, y, z'

loop_
  _atom_site_label
  _atom_site_occupancy
  _atom_site_fract_x
  _atom_site_fract_y
  _atom_site_fract_z
  _atom_site_thermal_displace_type
  _atom_site_B_iso_or_equiv
  _atom_site_type_symbol
  Cu1      1.0000 0.50160  0.49899  0.25004  Biso   1.000  Cu
  Cu2      1.0000 0.49840  0.50101  0.74996  Biso   1.000  Cu
  Cl1      1.0000 0.11740  0.39420  0.36525  Biso   1.000  Cl
  Cl2      1.0000 0.88260  0.60580  0.63475  Biso   1.000  Cl
  Cl3      1.0000 0.85870  0.61509  0.13428  Biso   1.000  Cl
  Cl4      1.0000 0.14130  0.38491  0.86572  Biso   1.000  Cl
  N1       1.0000 0.40650  0.68720  0.32300  Biso   1.000  N
  N2       1.0000 0.59350  0.31280  0.67700  Biso   1.000  N
  C1       1.0000 0.20960  0.82580  0.30200  Biso   1.000  C
  C2       1.0000 0.79040  0.17420  0.69800  Biso   1.000  C
  H1       1.0000 0.09520  0.85660  0.24160  Biso   1.000  H
  H2       1.0000 0.90480  0.14340  0.75840  Biso   1.000  H
  N3       1.0000 0.51390  0.69060  0.41580  Biso   1.000  N
  N4       1.0000 0.48610  0.30940  0.58420  Biso   1.000  N
  H3       1.0000 0.64700  0.61220  0.44800  Biso   1.000  H
  H4       1.0000 0.35300  0.38780  0.55200  Biso   1.000  H
  C3       1.0000 0.39210  0.82820  0.45220  Biso   1.000  C
  C4       1.0000 0.60790  0.17180  0.54780  Biso   1.000  C
  H5       1.0000 0.43400  0.85750  0.51560  Biso   1.000  H
  H6       1.0000 0.56600  0.14250  0.48440  Biso   1.000  H
  C5       1.0000 0.19320  0.92000  0.38030  Biso   1.000  C
  C6       1.0000 0.80680  0.08000  0.61970  Biso   1.000  C
  H7       1.0000 0.07240  0.02420  0.38380  Biso   1.000  H
  H8       1.0000 0.92760  0.97580  0.61620  Biso   1.000  H
  N5       1.0000 0.59160  0.31100  0.17660  Biso   1.000  N
  N6       1.0000 0.40840  0.68900  0.82340  Biso   1.000  N
  N7       1.0000 0.71970  0.30750  0.08290  Biso   1.000  N
  N8       1.0000 0.28030  0.69250  0.91710  Biso   1.000  N
  H9       1.0000 0.78280  0.38660  0.04920  Biso   1.000  H
  H10      1.0000 0.21720  0.61340  0.95080  Biso   1.000  H
  C7       1.0000 0.52740  0.17100  0.20000  Biso   1.000  C
  C8       1.0000 0.47260  0.82900  0.80000  Biso   1.000  C
  H11      1.0000 0.43130  0.13970  0.26210  Biso   1.000  H
  H12      1.0000 0.56870  0.86030  0.73790  Biso   1.000  H
  C9       1.0000 0.61980  0.07560  0.12110  Biso   1.000  C
  C10      1.0000 0.38020  0.92440  0.87890  Biso   1.000  C
  H13      1.0000 0.60380  0.97050  0.11910  Biso   1.000  H
  H14      1.0000 0.39620  0.02950  0.88090  Biso   1.000  H
  C11      1.0000 0.74020  0.16960  0.04660  Biso   1.000  C
  C12      1.0000 0.25980  0.83040  0.95340  Biso   1.000  C
  H15      1.0000 0.82170  0.14150  0.98200  Biso   1.000  H
  H16      1.0000 0.17830  0.85850  0.01800  Biso   1.000  H
