data_image0
_cell_length_a       15.7237
_cell_length_b       15.7237
_cell_length_c       14.9552
_cell_angle_alpha    90
_cell_angle_beta     90
_cell_angle_gamma    90

_symmetry_space_group_name_H-M    "P 1"
_symmetry_int_tables_number       1

loop_
  _symmetry_equiv_pos_as_xyz
  'x, y, z'

loop_
  _atom_site_label
  _atom_site_occupancy
  _atom_site_fract_x
  _atom_site_fract_y
  _atom_site_fract_z
  _atom_site_thermal_displace_type
  _atom_site_B_iso_or_equiv
  _atom_site_type_symbol
  Cu1      1.0000 0.50000  0.50000  0.19269  Biso   1.000  Cu
  Cu2      1.0000 0.00000  0.00000  0.69269  Biso   1.000  Cu
  Cu3      1.0000 0.50000  0.50000  0.80731  Biso   1.000  Cu
  Cu4      1.0000 0.00000  0.00000  0.30731  Biso   1.000  Cu
  Cl1      1.0000 0.50000  0.50000  0.00000  Biso   1.000  Cl
  Cl2      1.0000 0.00000  0.00000  0.50000  Biso   1.000  Cl
  N1       1.0000 0.60714  0.57150  0.19320  Biso   1.000  N
  N2       1.0000 0.39286  0.42850  0.19320  Biso   1.000  N
  N3       1.0000 0.42850  0.60714  0.19320  Biso   1.000  N
  N4       1.0000 0.57150  0.39286  0.19320  Biso   1.000  N
  N5       1.0000 0.10714  0.07150  0.69320  Biso   1.000  N
  N6       1.0000 0.89286  0.92850  0.69320  Biso   1.000  N
  N7       1.0000 0.92850  0.10714  0.69320  Biso   1.000  N
  N8       1.0000 0.07150  0.89286  0.69320  Biso   1.000  N
  N9       1.0000 0.39286  0.42850  0.80680  Biso   1.000  N
  N10      1.0000 0.60714  0.57150  0.80680  Biso   1.000  N
  N11      1.0000 0.57150  0.39286  0.80680  Biso   1.000  N
  N12      1.0000 0.42850  0.60714  0.80680  Biso   1.000  N
  N13      1.0000 0.89286  0.92850  0.30680  Biso   1.000  N
  N14      1.0000 0.10714  0.07150  0.30680  Biso   1.000  N
  N15      1.0000 0.07150  0.89286  0.30680  Biso   1.000  N
  N16      1.0000 0.92850  0.10714  0.30680  Biso   1.000  N
  N17      1.0000 0.79897  0.59570  0.32740  Biso   1.000  N
  N18      1.0000 0.20103  0.40430  0.32740  Biso   1.000  N
  N19      1.0000 0.40430  0.79897  0.32740  Biso   1.000  N
  N20      1.0000 0.59570  0.20103  0.32740  Biso   1.000  N
  N21      1.0000 0.29897  0.09570  0.82740  Biso   1.000  N
  N22      1.0000 0.70103  0.90430  0.82740  Biso   1.000  N
  N23      1.0000 0.90430  0.29897  0.82740  Biso   1.000  N
  N24      1.0000 0.09570  0.70103  0.82740  Biso   1.000  N
  N25      1.0000 0.20103  0.40430  0.67260  Biso   1.000  N
  N26      1.0000 0.79897  0.59570  0.67260  Biso   1.000  N
  N27      1.0000 0.59570  0.20103  0.67260  Biso   1.000  N
  N28      1.0000 0.40430  0.79897  0.67260  Biso   1.000  N
  N29      1.0000 0.70103  0.90430  0.17260  Biso   1.000  N
  N30      1.0000 0.29897  0.09570  0.17260  Biso   1.000  N
  N31      1.0000 0.09570  0.70103  0.17260  Biso   1.000  N
  N32      1.0000 0.90430  0.29897  0.17260  Biso   1.000  N
  O1       1.0000 0.91958  0.65140  0.26634  Biso   1.000  O
  O2       1.0000 0.08042  0.34860  0.26634  Biso   1.000  O
  O3       1.0000 0.34860  0.91958  0.26634  Biso   1.000  O
  O4       1.0000 0.65140  0.08042  0.26634  Biso   1.000  O
  O5       1.0000 0.41958  0.15140  0.76634  Biso   1.000  O
  O6       1.0000 0.58042  0.84860  0.76634  Biso   1.000  O
  O7       1.0000 0.84860  0.41958  0.76634  Biso   1.000  O
  O8       1.0000 0.15140  0.58042  0.76634  Biso   1.000  O
  O9       1.0000 0.08042  0.34860  0.73366  Biso   1.000  O
  O10      1.0000 0.91958  0.65140  0.73366  Biso   1.000  O
  O11      1.0000 0.65140  0.08042  0.73366  Biso   1.000  O
  O12      1.0000 0.34860  0.91958  0.73366  Biso   1.000  O
  O13      1.0000 0.58042  0.84860  0.23366  Biso   1.000  O
  O14      1.0000 0.41958  0.15140  0.23366  Biso   1.000  O
  O15      1.0000 0.15140  0.58042  0.23366  Biso   1.000  O
  O16      1.0000 0.84860  0.41958  0.23366  Biso   1.000  O
  C1       1.0000 0.66840  0.56040  0.25460  Biso   1.000  C
  C2       1.0000 0.33160  0.43960  0.25460  Biso   1.000  C
  C3       1.0000 0.43960  0.66840  0.25460  Biso   1.000  C
  C4       1.0000 0.56040  0.33160  0.25460  Biso   1.000  C
  C5       1.0000 0.16840  0.06040  0.75460  Biso   1.000  C
  C6       1.0000 0.83160  0.93960  0.75460  Biso   1.000  C
  C7       1.0000 0.93960  0.16840  0.75460  Biso   1.000  C
  C8       1.0000 0.06040  0.83160  0.75460  Biso   1.000  C
  C9       1.0000 0.33160  0.43960  0.74540  Biso   1.000  C
  C10      1.0000 0.66840  0.56040  0.74540  Biso   1.000  C
  C11      1.0000 0.56040  0.33160  0.74540  Biso   1.000  C
  C12      1.0000 0.43960  0.66840  0.74540  Biso   1.000  C
  C13      1.0000 0.83160  0.93960  0.24540  Biso   1.000  C
  C14      1.0000 0.16840  0.06040  0.24540  Biso   1.000  C
  C15      1.0000 0.06040  0.83160  0.24540  Biso   1.000  C
  C16      1.0000 0.93960  0.16840  0.24540  Biso   1.000  C
  O17      1.0000 0.50000  0.50000  0.35840  Biso   1.000  O
  O18      1.0000 0.00000  0.00000  0.85840  Biso   1.000  O
  O19      1.0000 0.50000  0.50000  0.64160  Biso   1.000  O
  O20      1.0000 0.00000  0.00000  0.14160  Biso   1.000  O
  C17      1.0000 0.74320  0.60780  0.25560  Biso   1.000  C
  C18      1.0000 0.25680  0.39220  0.25560  Biso   1.000  C
  C19      1.0000 0.39220  0.74320  0.25560  Biso   1.000  C
  C20      1.0000 0.60780  0.25680  0.25560  Biso   1.000  C
  C21      1.0000 0.24320  0.10780  0.75560  Biso   1.000  C
  C22      1.0000 0.75680  0.89220  0.75560  Biso   1.000  C
  C23      1.0000 0.89220  0.24320  0.75560  Biso   1.000  C
  C24      1.0000 0.10780  0.75680  0.75560  Biso   1.000  C
  C25      1.0000 0.25680  0.39220  0.74440  Biso   1.000  C
  C26      1.0000 0.74320  0.60780  0.74440  Biso   1.000  C
  C27      1.0000 0.60780  0.25680  0.74440  Biso   1.000  C
  C28      1.0000 0.39220  0.74320  0.74440  Biso   1.000  C
  C29      1.0000 0.75680  0.89220  0.24440  Biso   1.000  C
  C30      1.0000 0.24320  0.10780  0.24440  Biso   1.000  C
  C31      1.0000 0.10780  0.75680  0.24440  Biso   1.000  C
  C32      1.0000 0.89220  0.24320  0.24440  Biso   1.000  C
  C33      1.0000 0.75640  0.66720  0.18810  Biso   1.000  C
  C34      1.0000 0.24360  0.33280  0.18810  Biso   1.000  C
  C35      1.0000 0.33280  0.75640  0.18810  Biso   1.000  C
  C36      1.0000 0.66720  0.24360  0.18810  Biso   1.000  C
  C37      1.0000 0.25640  0.16720  0.68810  Biso   1.000  C
  C38      1.0000 0.74360  0.83280  0.68810  Biso   1.000  C
  C39      1.0000 0.83280  0.25640  0.68810  Biso   1.000  C
  C40      1.0000 0.16720  0.74360  0.68810  Biso   1.000  C
  C41      1.0000 0.24360  0.33280  0.81190  Biso   1.000  C
  C42      1.0000 0.75640  0.66720  0.81190  Biso   1.000  C
  C43      1.0000 0.66720  0.24360  0.81190  Biso   1.000  C
  C44      1.0000 0.33280  0.75640  0.81190  Biso   1.000  C
  C45      1.0000 0.74360  0.83280  0.31190  Biso   1.000  C
  C46      1.0000 0.25640  0.16720  0.31190  Biso   1.000  C
  C47      1.0000 0.16720  0.74360  0.31190  Biso   1.000  C
  C48      1.0000 0.83280  0.25640  0.31190  Biso   1.000  C
  C49      1.0000 0.69220  0.67820  0.12500  Biso   1.000  C
  C50      1.0000 0.30780  0.32180  0.12500  Biso   1.000  C
  C51      1.0000 0.32180  0.69220  0.12500  Biso   1.000  C
  C52      1.0000 0.67820  0.30780  0.12500  Biso   1.000  C
  C53      1.0000 0.19220  0.17820  0.62500  Biso   1.000  C
  C54      1.0000 0.80780  0.82180  0.62500  Biso   1.000  C
  C55      1.0000 0.82180  0.19220  0.62500  Biso   1.000  C
  C56      1.0000 0.17820  0.80780  0.62500  Biso   1.000  C
  C57      1.0000 0.30780  0.32180  0.87500  Biso   1.000  C
  C58      1.0000 0.69220  0.67820  0.87500  Biso   1.000  C
  C59      1.0000 0.67820  0.30780  0.87500  Biso   1.000  C
  C60      1.0000 0.32180  0.69220  0.87500  Biso   1.000  C
  C61      1.0000 0.80780  0.82180  0.37500  Biso   1.000  C
  C62      1.0000 0.19220  0.17820  0.37500  Biso   1.000  C
  C63      1.0000 0.17820  0.80780  0.37500  Biso   1.000  C
  C64      1.0000 0.82180  0.19220  0.37500  Biso   1.000  C
  C65      1.0000 0.61860  0.63080  0.12950  Biso   1.000  C
  C66      1.0000 0.38140  0.36920  0.12950  Biso   1.000  C
  C67      1.0000 0.36920  0.61860  0.12950  Biso   1.000  C
  C68      1.0000 0.63080  0.38140  0.12950  Biso   1.000  C
  C69      1.0000 0.11860  0.13080  0.62950  Biso   1.000  C
  C70      1.0000 0.88140  0.86920  0.62950  Biso   1.000  C
  C71      1.0000 0.86920  0.11860  0.62950  Biso   1.000  C
  C72      1.0000 0.13080  0.88140  0.62950  Biso   1.000  C
  C73      1.0000 0.38140  0.36920  0.87050  Biso   1.000  C
  C74      1.0000 0.61860  0.63080  0.87050  Biso   1.000  C
  C75      1.0000 0.63080  0.38140  0.87050  Biso   1.000  C
  C76      1.0000 0.36920  0.61860  0.87050  Biso   1.000  C
  C77      1.0000 0.88140  0.86920  0.37050  Biso   1.000  C
  C78      1.0000 0.11860  0.13080  0.37050  Biso   1.000  C
  C79      1.0000 0.13080  0.88140  0.37050  Biso   1.000  C
  C80      1.0000 0.86920  0.11860  0.37050  Biso   1.000  C
  C81      1.0000 0.88250  0.62170  0.33060  Biso   1.000  C
  C82      1.0000 0.11750  0.37830  0.33060  Biso   1.000  C
  C83      1.0000 0.37830  0.88250  0.33060  Biso   1.000  C
  C84      1.0000 0.62170  0.11750  0.33060  Biso   1.000  C
  C85      1.0000 0.38250  0.12170  0.83060  Biso   1.000  C
  C86      1.0000 0.61750  0.87830  0.83060  Biso   1.000  C
  C87      1.0000 0.87830  0.38250  0.83060  Biso   1.000  C
  C88      1.0000 0.12170  0.61750  0.83060  Biso   1.000  C
  C89      1.0000 0.11750  0.37830  0.66940  Biso   1.000  C
  C90      1.0000 0.88250  0.62170  0.66940  Biso   1.000  C
  C91      1.0000 0.62170  0.11750  0.66940  Biso   1.000  C
  C92      1.0000 0.37830  0.88250  0.66940  Biso   1.000  C
  C93      1.0000 0.61750  0.87830  0.16940  Biso   1.000  C
  C94      1.0000 0.38250  0.12170  0.16940  Biso   1.000  C
  C95      1.0000 0.12170  0.61750  0.16940  Biso   1.000  C
  C96      1.0000 0.87830  0.38250  0.16940  Biso   1.000  C
  C97      1.0000 0.92510  0.61260  0.41920  Biso   1.000  C
  C98      1.0000 0.07490  0.38740  0.41920  Biso   1.000  C
  C99      1.0000 0.38740  0.92510  0.41920  Biso   1.000  C
  C100     1.0000 0.61260  0.07490  0.41920  Biso   1.000  C
  C101     1.0000 0.42510  0.11260  0.91920  Biso   1.000  C
  C102     1.0000 0.57490  0.88740  0.91920  Biso   1.000  C
  C103     1.0000 0.88740  0.42510  0.91920  Biso   1.000  C
  C104     1.0000 0.11260  0.57490  0.91920  Biso   1.000  C
  C105     1.0000 0.07490  0.38740  0.58080  Biso   1.000  C
  C106     1.0000 0.92510  0.61260  0.58080  Biso   1.000  C
  C107     1.0000 0.61260  0.07490  0.58080  Biso   1.000  C
  C108     1.0000 0.38740  0.92510  0.58080  Biso   1.000  C
  C109     1.0000 0.57490  0.88740  0.08080  Biso   1.000  C
  C110     1.0000 0.42510  0.11260  0.08080  Biso   1.000  C
  C111     1.0000 0.11260  0.57490  0.08080  Biso   1.000  C
  C112     1.0000 0.88740  0.42510  0.08080  Biso   1.000  C
  C113     1.0000 0.88120  0.61540  0.50000  Biso   1.000  C
  C114     1.0000 0.11880  0.38460  0.50000  Biso   1.000  C
  C115     1.0000 0.38460  0.88120  0.50000  Biso   1.000  C
  C116     1.0000 0.61540  0.11880  0.50000  Biso   1.000  C
  C117     1.0000 0.38120  0.11540  0.00000  Biso   1.000  C
  C118     1.0000 0.61880  0.88460  0.00000  Biso   1.000  C
  C119     1.0000 0.88460  0.38120  0.00000  Biso   1.000  C
  C120     1.0000 0.11540  0.61880  0.00000  Biso   1.000  C
  C121     1.0000 0.01350  0.60680  0.41940  Biso   1.000  C
  C122     1.0000 0.98650  0.39320  0.41940  Biso   1.000  C
  C123     1.0000 0.39320  0.01350  0.41940  Biso   1.000  C
  C124     1.0000 0.60680  0.98650  0.41940  Biso   1.000  C
  C125     1.0000 0.51350  0.10680  0.91940  Biso   1.000  C
  C126     1.0000 0.48650  0.89320  0.91940  Biso   1.000  C
  C127     1.0000 0.89320  0.51350  0.91940  Biso   1.000  C
  C128     1.0000 0.10680  0.48650  0.91940  Biso   1.000  C
  C129     1.0000 0.98650  0.39320  0.58060  Biso   1.000  C
  C130     1.0000 0.01350  0.60680  0.58060  Biso   1.000  C
  C131     1.0000 0.60680  0.98650  0.58060  Biso   1.000  C
  C132     1.0000 0.39320  0.01350  0.58060  Biso   1.000  C
  C133     1.0000 0.48650  0.89320  0.08060  Biso   1.000  C
  C134     1.0000 0.51350  0.10680  0.08060  Biso   1.000  C
  C135     1.0000 0.10680  0.48650  0.08060  Biso   1.000  C
  C136     1.0000 0.89320  0.51350  0.08060  Biso   1.000  C
  C137     1.0000 0.05710  0.60330  0.50000  Biso   1.000  C
  C138     1.0000 0.94290  0.39670  0.50000  Biso   1.000  C
  C139     1.0000 0.39670  0.05710  0.50000  Biso   1.000  C
  C140     1.0000 0.60330  0.94290  0.50000  Biso   1.000  C
  C141     1.0000 0.55710  0.10330  0.00000  Biso   1.000  C
  C142     1.0000 0.44290  0.89670  0.00000  Biso   1.000  C
  C143     1.0000 0.89670  0.55710  0.00000  Biso   1.000  C
  C144     1.0000 0.10330  0.44290  0.00000  Biso   1.000  C
  Cl3      1.0000 0.59401  0.68864  0.50000  Biso   1.000  Cl
  Cl4      1.0000 0.40599  0.31136  0.50000  Biso   1.000  Cl
  Cl5      1.0000 0.31136  0.59401  0.50000  Biso   1.000  Cl
  Cl6      1.0000 0.68864  0.40599  0.50000  Biso   1.000  Cl
  Cl7      1.0000 0.09401  0.18864  0.00000  Biso   1.000  Cl
  Cl8      1.0000 0.90599  0.81136  0.00000  Biso   1.000  Cl
  Cl9      1.0000 0.81136  0.09401  0.00000  Biso   1.000  Cl
  Cl10     1.0000 0.18864  0.90599  0.00000  Biso   1.000  Cl
  O21      1.0000 0.68050  0.71130  0.50000  Biso   1.000  O
  O22      1.0000 0.31950  0.28870  0.50000  Biso   1.000  O
  O23      1.0000 0.28870  0.68050  0.50000  Biso   1.000  O
  O24      1.0000 0.71130  0.31950  0.50000  Biso   1.000  O
  O25      1.0000 0.18050  0.21130  0.00000  Biso   1.000  O
  O26      1.0000 0.81950  0.78870  0.00000  Biso   1.000  O
  O27      1.0000 0.78870  0.18050  0.00000  Biso   1.000  O
  O28      1.0000 0.21130  0.81950  0.00000  Biso   1.000  O
  O29      1.0000 0.58690  0.60080  0.50000  Biso   1.000  O
  O30      1.0000 0.41310  0.39920  0.50000  Biso   1.000  O
  O31      1.0000 0.39920  0.58690  0.50000  Biso   1.000  O
  O32      1.0000 0.60080  0.41310  0.50000  Biso   1.000  O
  O33      1.0000 0.08690  0.10080  0.00000  Biso   1.000  O
  O34      1.0000 0.91310  0.89920  0.00000  Biso   1.000  O
  O35      1.0000 0.89920  0.08690  0.00000  Biso   1.000  O
  O36      1.0000 0.10080  0.91310  0.00000  Biso   1.000  O
  O37      1.0000 0.55840  0.72760  0.42310  Biso   1.000  O
  O38      1.0000 0.44160  0.27240  0.42310  Biso   1.000  O
  O39      1.0000 0.27240  0.55840  0.42310  Biso   1.000  O
  O40      1.0000 0.72760  0.44160  0.42310  Biso   1.000  O
  O41      1.0000 0.05840  0.22760  0.92310  Biso   1.000  O
  O42      1.0000 0.94160  0.77240  0.92310  Biso   1.000  O
  O43      1.0000 0.77240  0.05840  0.92310  Biso   1.000  O
  O44      1.0000 0.22760  0.94160  0.92310  Biso   1.000  O
  O45      1.0000 0.44160  0.27240  0.57690  Biso   1.000  O
  O46      1.0000 0.55840  0.72760  0.57690  Biso   1.000  O
  O47      1.0000 0.72760  0.44160  0.57690  Biso   1.000  O
  O48      1.0000 0.27240  0.55840  0.57690  Biso   1.000  O
  O49      1.0000 0.94160  0.77240  0.07690  Biso   1.000  O
  O50      1.0000 0.05840  0.22760  0.07690  Biso   1.000  O
  O51      1.0000 0.22760  0.94160  0.07690  Biso   1.000  O
  O52      1.0000 0.77240  0.05840  0.07690  Biso   1.000  O
  H1       1.0000 0.65700  0.52100  0.29800  Biso   1.000  H
  H2       1.0000 0.34300  0.47900  0.29800  Biso   1.000  H
  H3       1.0000 0.47900  0.65700  0.29800  Biso   1.000  H
  H4       1.0000 0.52100  0.34300  0.29800  Biso   1.000  H
  H5       1.0000 0.15700  0.02100  0.79800  Biso   1.000  H
  H6       1.0000 0.84300  0.97900  0.79800  Biso   1.000  H
  H7       1.0000 0.97900  0.15700  0.79800  Biso   1.000  H
  H8       1.0000 0.02100  0.84300  0.79800  Biso   1.000  H
  H9       1.0000 0.34300  0.47900  0.70200  Biso   1.000  H
  H10      1.0000 0.65700  0.52100  0.70200  Biso   1.000  H
  H11      1.0000 0.52100  0.34300  0.70200  Biso   1.000  H
  H12      1.0000 0.47900  0.65700  0.70200  Biso   1.000  H
  H13      1.0000 0.84300  0.97900  0.20200  Biso   1.000  H
  H14      1.0000 0.15700  0.02100  0.20200  Biso   1.000  H
  H15      1.0000 0.02100  0.84300  0.20200  Biso   1.000  H
  H16      1.0000 0.97900  0.15700  0.20200  Biso   1.000  H
  H17      1.0000 0.80600  0.70000  0.18500  Biso   1.000  H
  H18      1.0000 0.19400  0.30000  0.18500  Biso   1.000  H
  H19      1.0000 0.30000  0.80600  0.18500  Biso   1.000  H
  H20      1.0000 0.70000  0.19400  0.18500  Biso   1.000  H
  H21      1.0000 0.30600  0.20000  0.68500  Biso   1.000  H
  H22      1.0000 0.69400  0.80000  0.68500  Biso   1.000  H
  H23      1.0000 0.80000  0.30600  0.68500  Biso   1.000  H
  H24      1.0000 0.20000  0.69400  0.68500  Biso   1.000  H
  H25      1.0000 0.19400  0.30000  0.81500  Biso   1.000  H
  H26      1.0000 0.80600  0.70000  0.81500  Biso   1.000  H
  H27      1.0000 0.70000  0.19400  0.81500  Biso   1.000  H
  H28      1.0000 0.30000  0.80600  0.81500  Biso   1.000  H
  H29      1.0000 0.69400  0.80000  0.31500  Biso   1.000  H
  H30      1.0000 0.30600  0.20000  0.31500  Biso   1.000  H
  H31      1.0000 0.20000  0.69400  0.31500  Biso   1.000  H
  H32      1.0000 0.80000  0.30600  0.31500  Biso   1.000  H
  H33      1.0000 0.69900  0.72000  0.08100  Biso   1.000  H
  H34      1.0000 0.30100  0.28000  0.08100  Biso   1.000  H
  H35      1.0000 0.28000  0.69900  0.08100  Biso   1.000  H
  H36      1.0000 0.72000  0.30100  0.08100  Biso   1.000  H
  H37      1.0000 0.19900  0.22000  0.58100  Biso   1.000  H
  H38      1.0000 0.80100  0.78000  0.58100  Biso   1.000  H
  H39      1.0000 0.78000  0.19900  0.58100  Biso   1.000  H
  H40      1.0000 0.22000  0.80100  0.58100  Biso   1.000  H
  H41      1.0000 0.30100  0.28000  0.91900  Biso   1.000  H
  H42      1.0000 0.69900  0.72000  0.91900  Biso   1.000  H
  H43      1.0000 0.72000  0.30100  0.91900  Biso   1.000  H
  H44      1.0000 0.28000  0.69900  0.91900  Biso   1.000  H
  H45      1.0000 0.80100  0.78000  0.41900  Biso   1.000  H
  H46      1.0000 0.19900  0.22000  0.41900  Biso   1.000  H
  H47      1.0000 0.22000  0.80100  0.41900  Biso   1.000  H
  H48      1.0000 0.78000  0.19900  0.41900  Biso   1.000  H
  H49      1.0000 0.04200  0.60300  0.36200  Biso   1.000  H
  H50      1.0000 0.95800  0.39700  0.36200  Biso   1.000  H
  H51      1.0000 0.39700  0.04200  0.36200  Biso   1.000  H
  H52      1.0000 0.60300  0.95800  0.36200  Biso   1.000  H
  H53      1.0000 0.54200  0.10300  0.86200  Biso   1.000  H
  H54      1.0000 0.45800  0.89700  0.86200  Biso   1.000  H
  H55      1.0000 0.89700  0.54200  0.86200  Biso   1.000  H
  H56      1.0000 0.10300  0.45800  0.86200  Biso   1.000  H
  H57      1.0000 0.95800  0.39700  0.63800  Biso   1.000  H
  H58      1.0000 0.04200  0.60300  0.63800  Biso   1.000  H
  H59      1.0000 0.60300  0.95800  0.63800  Biso   1.000  H
  H60      1.0000 0.39700  0.04200  0.63800  Biso   1.000  H
  H61      1.0000 0.45800  0.89700  0.13800  Biso   1.000  H
  H62      1.0000 0.54200  0.10300  0.13800  Biso   1.000  H
  H63      1.0000 0.10300  0.45800  0.13800  Biso   1.000  H
  H64      1.0000 0.89700  0.54200  0.13800  Biso   1.000  H
  H65      1.0000 0.57600  0.63700  0.09700  Biso   1.000  H
  H66      1.0000 0.42400  0.36300  0.09700  Biso   1.000  H
  H67      1.0000 0.36300  0.57600  0.09700  Biso   1.000  H
  H68      1.0000 0.63700  0.42400  0.09700  Biso   1.000  H
  H69      1.0000 0.07600  0.13700  0.59700  Biso   1.000  H
  H70      1.0000 0.92400  0.86300  0.59700  Biso   1.000  H
  H71      1.0000 0.86300  0.07600  0.59700  Biso   1.000  H
  H72      1.0000 0.13700  0.92400  0.59700  Biso   1.000  H
  H73      1.0000 0.42400  0.36300  0.90300  Biso   1.000  H
  H74      1.0000 0.57600  0.63700  0.90300  Biso   1.000  H
  H75      1.0000 0.63700  0.42400  0.90300  Biso   1.000  H
  H76      1.0000 0.36300  0.57600  0.90300  Biso   1.000  H
  H77      1.0000 0.92400  0.86300  0.40300  Biso   1.000  H
  H78      1.0000 0.07600  0.13700  0.40300  Biso   1.000  H
  H79      1.0000 0.13700  0.92400  0.40300  Biso   1.000  H
  H80      1.0000 0.86300  0.07600  0.40300  Biso   1.000  H
  H81      1.0000 0.81900  0.62800  0.50000  Biso   1.000  H
  H82      1.0000 0.18100  0.37200  0.50000  Biso   1.000  H
  H83      1.0000 0.37200  0.81900  0.50000  Biso   1.000  H
  H84      1.0000 0.62800  0.18100  0.50000  Biso   1.000  H
  H85      1.0000 0.31900  0.12800  0.00000  Biso   1.000  H
  H86      1.0000 0.68100  0.87200  0.00000  Biso   1.000  H
  H87      1.0000 0.87200  0.31900  0.00000  Biso   1.000  H
  H88      1.0000 0.12800  0.68100  0.00000  Biso   1.000  H
  H89      1.0000 0.11400  0.59300  0.50000  Biso   1.000  H
  H90      1.0000 0.88600  0.40700  0.50000  Biso   1.000  H
  H91      1.0000 0.40700  0.11400  0.50000  Biso   1.000  H
  H92      1.0000 0.59300  0.88600  0.50000  Biso   1.000  H
  H93      1.0000 0.61400  0.09300  0.00000  Biso   1.000  H
  H94      1.0000 0.38600  0.90700  0.00000  Biso   1.000  H
  H95      1.0000 0.90700  0.61400  0.00000  Biso   1.000  H
  H96      1.0000 0.09300  0.38600  0.00000  Biso   1.000  H
  H97      1.0000 0.78600  0.56900  0.36800  Biso   1.000  H
  H98      1.0000 0.21400  0.43100  0.36800  Biso   1.000  H
  H99      1.0000 0.43100  0.78600  0.36800  Biso   1.000  H
  H100     1.0000 0.56900  0.21400  0.36800  Biso   1.000  H
  H101     1.0000 0.28600  0.06900  0.86800  Biso   1.000  H
  H102     1.0000 0.71400  0.93100  0.86800  Biso   1.000  H
  H103     1.0000 0.93100  0.28600  0.86800  Biso   1.000  H
  H104     1.0000 0.06900  0.71400  0.86800  Biso   1.000  H
  H105     1.0000 0.21400  0.43100  0.63200  Biso   1.000  H
  H106     1.0000 0.78600  0.56900  0.63200  Biso   1.000  H
  H107     1.0000 0.56900  0.21400  0.63200  Biso   1.000  H
  H108     1.0000 0.43100  0.78600  0.63200  Biso   1.000  H
  H109     1.0000 0.71400  0.93100  0.13200  Biso   1.000  H
  H110     1.0000 0.28600  0.06900  0.13200  Biso   1.000  H
  H111     1.0000 0.06900  0.71400  0.13200  Biso   1.000  H
  H112     1.0000 0.93100  0.28600  0.13200  Biso   1.000  H
  H113     1.0000 0.47500  0.46700  0.39900  Biso   1.000  H
  H114     1.0000 0.52500  0.53300  0.39900  Biso   1.000  H
  H115     1.0000 0.53300  0.47500  0.39900  Biso   1.000  H
  H116     1.0000 0.46700  0.52500  0.39900  Biso   1.000  H
  H117     1.0000 0.97500  0.96700  0.89900  Biso   1.000  H
  H118     1.0000 0.02500  0.03300  0.89900  Biso   1.000  H
  H119     1.0000 0.03300  0.97500  0.89900  Biso   1.000  H
  H120     1.0000 0.96700  0.02500  0.89900  Biso   1.000  H
  H121     1.0000 0.52500  0.53300  0.60100  Biso   1.000  H
  H122     1.0000 0.47500  0.46700  0.60100  Biso   1.000  H
  H123     1.0000 0.46700  0.52500  0.60100  Biso   1.000  H
  H124     1.0000 0.53300  0.47500  0.60100  Biso   1.000  H
  H125     1.0000 0.02500  0.03300  0.10100  Biso   1.000  H
  H126     1.0000 0.97500  0.96700  0.10100  Biso   1.000  H
  H127     1.0000 0.96700  0.02500  0.10100  Biso   1.000  H
  H128     1.0000 0.03300  0.97500  0.10100  Biso   1.000  H
