data_image0
_cell_length_a       13.3131
_cell_length_b       21.518
_cell_length_c       8.2174
_cell_angle_alpha    90
_cell_angle_beta     122.982
_cell_angle_gamma    90

_symmetry_space_group_name_H-M    "P 1"
_symmetry_int_tables_number       1

loop_
  _symmetry_equiv_pos_as_xyz
  'x, y, z'

loop_
  _atom_site_label
  _atom_site_occupancy
  _atom_site_fract_x
  _atom_site_fract_y
  _atom_site_fract_z
  _atom_site_thermal_displace_type
  _atom_site_B_iso_or_equiv
  _atom_site_type_symbol
  Cu1      1.0000 0.91822  0.50000  0.99289  Biso   1.000  Cu
  Cu2      1.0000 0.41822  0.00000  0.99289  Biso   1.000  Cu
  N1       1.0000 0.03820  0.56562  0.02950  Biso   1.000  N
  N2       1.0000 0.03820  0.43438  0.02950  Biso   1.000  N
  N3       1.0000 0.53820  0.06562  0.02950  Biso   1.000  N
  N4       1.0000 0.53820  0.93438  0.02950  Biso   1.000  N
  C1       1.0000 0.05300  0.58171  0.88550  Biso   1.000  C
  C2       1.0000 0.05300  0.41829  0.88550  Biso   1.000  C
  C3       1.0000 0.55300  0.08171  0.88550  Biso   1.000  C
  C4       1.0000 0.55300  0.91829  0.88550  Biso   1.000  C
  H1       1.0000 0.00490  0.56320  0.76440  Biso   1.000  H
  H2       1.0000 0.00490  0.43680  0.76440  Biso   1.000  H
  H3       1.0000 0.50490  0.06320  0.76440  Biso   1.000  H
  H4       1.0000 0.50490  0.93680  0.76440  Biso   1.000  H
  C5       1.0000 0.13620  0.62431  0.91170  Biso   1.000  C
  C6       1.0000 0.13620  0.37569  0.91170  Biso   1.000  C
  C7       1.0000 0.63620  0.12431  0.91170  Biso   1.000  C
  C8       1.0000 0.63620  0.87569  0.91170  Biso   1.000  C
  H5       1.0000 0.14370  0.63510  0.80920  Biso   1.000  H
  H6       1.0000 0.14370  0.36490  0.80920  Biso   1.000  H
  H7       1.0000 0.64370  0.13510  0.80920  Biso   1.000  H
  H8       1.0000 0.64370  0.86490  0.80920  Biso   1.000  H
  C9       1.0000 0.20930  0.65138  0.09130  Biso   1.000  C
  C10      1.0000 0.20930  0.34862  0.09130  Biso   1.000  C
  C11      1.0000 0.70930  0.15138  0.09130  Biso   1.000  C
  C12      1.0000 0.70930  0.84862  0.09130  Biso   1.000  C
  H9       1.0000 0.26710  0.68030  0.11180  Biso   1.000  H
  H10      1.0000 0.26710  0.31970  0.11180  Biso   1.000  H
  H11      1.0000 0.76710  0.18030  0.11180  Biso   1.000  H
  H12      1.0000 0.76710  0.81970  0.11180  Biso   1.000  H
  C13      1.0000 0.19530  0.63482  0.24150  Biso   1.000  C
  C14      1.0000 0.19530  0.36518  0.24150  Biso   1.000  C
  C15      1.0000 0.69530  0.13482  0.24150  Biso   1.000  C
  C16      1.0000 0.69530  0.86518  0.24150  Biso   1.000  C
  C17      1.0000 0.10730  0.59243  0.20440  Biso   1.000  C
  C18      1.0000 0.10730  0.40757  0.20440  Biso   1.000  C
  C19      1.0000 0.60730  0.09243  0.20440  Biso   1.000  C
  C20      1.0000 0.60730  0.90757  0.20440  Biso   1.000  C
  H13      1.0000 0.09560  0.58220  0.30290  Biso   1.000  H
  H14      1.0000 0.09560  0.41780  0.30290  Biso   1.000  H
  H15      1.0000 0.59560  0.08220  0.30290  Biso   1.000  H
  H16      1.0000 0.59560  0.91780  0.30290  Biso   1.000  H
  N5       1.0000 0.26820  0.66280  0.42450  Biso   1.000  N
  N6       1.0000 0.26820  0.33720  0.42450  Biso   1.000  N
  N7       1.0000 0.76820  0.16280  0.42450  Biso   1.000  N
  N8       1.0000 0.76820  0.83720  0.42450  Biso   1.000  N
  H17      1.0000 0.29450  0.69970  0.42940  Biso   1.000  H
  H18      1.0000 0.29450  0.30030  0.42940  Biso   1.000  H
  H19      1.0000 0.79450  0.19970  0.42940  Biso   1.000  H
  H20      1.0000 0.79450  0.80030  0.42940  Biso   1.000  H
  C21      1.0000 0.29980  0.63438  0.59590  Biso   1.000  C
  C22      1.0000 0.29980  0.36562  0.59590  Biso   1.000  C
  C23      1.0000 0.79980  0.13438  0.59590  Biso   1.000  C
  C24      1.0000 0.79980  0.86562  0.59590  Biso   1.000  C
  O1       1.0000 0.27150  0.58187  0.60300  Biso   1.000  O
  O2       1.0000 0.27150  0.41813  0.60300  Biso   1.000  O
  O3       1.0000 0.77150  0.08187  0.60300  Biso   1.000  O
  O4       1.0000 0.77150  0.91813  0.60300  Biso   1.000  O
  C25      1.0000 0.37290  0.67279  0.77520  Biso   1.000  C
  C26      1.0000 0.37290  0.32721  0.77520  Biso   1.000  C
  C27      1.0000 0.87290  0.17279  0.77520  Biso   1.000  C
  C28      1.0000 0.87290  0.82721  0.77520  Biso   1.000  C
  C29      1.0000 0.37120  0.73646  0.77420  Biso   1.000  C
  C30      1.0000 0.37120  0.26354  0.77420  Biso   1.000  C
  C31      1.0000 0.87120  0.23646  0.77420  Biso   1.000  C
  C32      1.0000 0.87120  0.76354  0.77420  Biso   1.000  C
  H21      1.0000 0.32590  0.75780  0.65750  Biso   1.000  H
  H22      1.0000 0.32590  0.24220  0.65750  Biso   1.000  H
  H23      1.0000 0.82590  0.25780  0.65750  Biso   1.000  H
  H24      1.0000 0.82590  0.74220  0.65750  Biso   1.000  H
  C33      1.0000 0.43730  0.76921  0.94810  Biso   1.000  C
  C34      1.0000 0.43730  0.23079  0.94810  Biso   1.000  C
  C35      1.0000 0.93730  0.26921  0.94810  Biso   1.000  C
  C36      1.0000 0.93730  0.73079  0.94810  Biso   1.000  C
  H25      1.0000 0.43620  0.81240  0.94760  Biso   1.000  H
  H26      1.0000 0.43620  0.18760  0.94760  Biso   1.000  H
  H27      1.0000 0.93620  0.31240  0.94760  Biso   1.000  H
  H28      1.0000 0.93620  0.68760  0.94760  Biso   1.000  H
  C37      1.0000 0.50530  0.73693  0.12340  Biso   1.000  C
  C38      1.0000 0.50530  0.26307  0.12340  Biso   1.000  C
  C39      1.0000 0.00530  0.23693  0.12340  Biso   1.000  C
  C40      1.0000 0.00530  0.76307  0.12340  Biso   1.000  C
  H29      1.0000 0.54930  0.75860  0.23980  Biso   1.000  H
  H30      1.0000 0.54930  0.24140  0.23980  Biso   1.000  H
  H31      1.0000 0.04930  0.25860  0.23980  Biso   1.000  H
  H32      1.0000 0.04930  0.74140  0.23980  Biso   1.000  H
  C41      1.0000 0.50700  0.67287  0.12290  Biso   1.000  C
  C42      1.0000 0.50700  0.32713  0.12290  Biso   1.000  C
  C43      1.0000 0.00700  0.17287  0.12290  Biso   1.000  C
  C44      1.0000 0.00700  0.82713  0.12290  Biso   1.000  C
  C45      1.0000 0.44120  0.64051  0.95030  Biso   1.000  C
  C46      1.0000 0.44120  0.35949  0.95030  Biso   1.000  C
  C47      1.0000 0.94120  0.14051  0.95030  Biso   1.000  C
  C48      1.0000 0.94120  0.85949  0.95030  Biso   1.000  C
  H33      1.0000 0.44230  0.59730  0.95060  Biso   1.000  H
  H34      1.0000 0.44230  0.40270  0.95060  Biso   1.000  H
  H35      1.0000 0.94230  0.09730  0.95060  Biso   1.000  H
  H36      1.0000 0.94230  0.90270  0.95060  Biso   1.000  H
  C49      1.0000 0.58150  0.63611  0.30520  Biso   1.000  C
  C50      1.0000 0.58150  0.36389  0.30520  Biso   1.000  C
  C51      1.0000 0.08150  0.13611  0.30520  Biso   1.000  C
  C52      1.0000 0.08150  0.86389  0.30520  Biso   1.000  C
  O5       1.0000 0.62540  0.58601  0.30590  Biso   1.000  O
  O6       1.0000 0.62540  0.41399  0.30590  Biso   1.000  O
  O7       1.0000 0.12540  0.08601  0.30590  Biso   1.000  O
  O8       1.0000 0.12540  0.91399  0.30590  Biso   1.000  O
  N9       1.0000 0.59340  0.66246  0.46560  Biso   1.000  N
  N10      1.0000 0.59340  0.33754  0.46560  Biso   1.000  N
  N11      1.0000 0.09340  0.16246  0.46560  Biso   1.000  N
  N12      1.0000 0.09340  0.83754  0.46560  Biso   1.000  N
  H37      1.0000 0.55600  0.69700  0.44740  Biso   1.000  H
  H38      1.0000 0.55600  0.30300  0.44740  Biso   1.000  H
  H39      1.0000 0.05600  0.19700  0.44740  Biso   1.000  H
  H40      1.0000 0.05600  0.80300  0.44740  Biso   1.000  H
  C53      1.0000 0.65960  0.64001  0.65800  Biso   1.000  C
  C54      1.0000 0.65960  0.35999  0.65800  Biso   1.000  C
  C55      1.0000 0.15960  0.14001  0.65800  Biso   1.000  C
  C56      1.0000 0.15960  0.85999  0.65800  Biso   1.000  C
  C57      1.0000 0.65030  0.67281  0.79440  Biso   1.000  C
  C58      1.0000 0.65030  0.32719  0.79440  Biso   1.000  C
  C59      1.0000 0.15030  0.17281  0.79440  Biso   1.000  C
  C60      1.0000 0.15030  0.82719  0.79440  Biso   1.000  C
  H41      1.0000 0.60100  0.70750  0.75800  Biso   1.000  H
  H42      1.0000 0.60100  0.29250  0.75800  Biso   1.000  H
  H43      1.0000 0.10100  0.20750  0.75800  Biso   1.000  H
  H44      1.0000 0.10100  0.79250  0.75800  Biso   1.000  H
  C61      1.0000 0.71550  0.65311  0.98600  Biso   1.000  C
  C62      1.0000 0.71550  0.34689  0.98600  Biso   1.000  C
  C63      1.0000 0.21550  0.15311  0.98600  Biso   1.000  C
  C64      1.0000 0.21550  0.84689  0.98600  Biso   1.000  C
  H45      1.0000 0.71070  0.67470  0.07960  Biso   1.000  H
  H46      1.0000 0.71070  0.32530  0.07960  Biso   1.000  H
  H47      1.0000 0.21070  0.17470  0.07960  Biso   1.000  H
  H48      1.0000 0.21070  0.82530  0.07960  Biso   1.000  H
  C65      1.0000 0.78690  0.60181  0.03610  Biso   1.000  C
  C66      1.0000 0.78690  0.39819  0.03610  Biso   1.000  C
  C67      1.0000 0.28690  0.10181  0.03610  Biso   1.000  C
  C68      1.0000 0.28690  0.89819  0.03610  Biso   1.000  C
  H49      1.0000 0.83110  0.58920  0.16510  Biso   1.000  H
  H50      1.0000 0.83110  0.41080  0.16510  Biso   1.000  H
  H51      1.0000 0.33110  0.08920  0.16510  Biso   1.000  H
  H52      1.0000 0.33110  0.91080  0.16510  Biso   1.000  H
  N13      1.0000 0.79520  0.56915  0.90570  Biso   1.000  N
  N14      1.0000 0.79520  0.43085  0.90570  Biso   1.000  N
  N15      1.0000 0.29520  0.06915  0.90570  Biso   1.000  N
  N16      1.0000 0.29520  0.93085  0.90570  Biso   1.000  N
  C69      1.0000 0.73300  0.58787  0.71810  Biso   1.000  C
  C70      1.0000 0.73300  0.41213  0.71810  Biso   1.000  C
  C71      1.0000 0.23300  0.08787  0.71810  Biso   1.000  C
  C72      1.0000 0.23300  0.91213  0.71810  Biso   1.000  C
  H53      1.0000 0.73950  0.56540  0.62760  Biso   1.000  H
  H54      1.0000 0.73950  0.43460  0.62760  Biso   1.000  H
  H55      1.0000 0.23950  0.06540  0.62760  Biso   1.000  H
  H56      1.0000 0.23950  0.93460  0.62760  Biso   1.000  H
  O9       1.0000 0.96460  0.50000  0.30250  Biso   1.000  O
  O10      1.0000 0.46460  0.00000  0.30250  Biso   1.000  O
  H57      1.0000 0.95300  0.53470  0.33010  Biso   1.000  H
  H58      1.0000 0.95300  0.46530  0.33010  Biso   1.000  H
  H59      1.0000 0.45300  0.03470  0.33010  Biso   1.000  H
  H60      1.0000 0.45300  0.96530  0.33010  Biso   1.000  H
  N17      1.0000 0.44030  0.19093  0.45220  Biso   1.000  N
  N18      1.0000 0.44030  0.80907  0.45220  Biso   1.000  N
  N19      1.0000 0.94030  0.69093  0.45220  Biso   1.000  N
  N20      1.0000 0.94030  0.30907  0.45220  Biso   1.000  N
  O11      1.0000 0.53130  0.16892  0.47060  Biso   1.000  O
  O12      1.0000 0.53130  0.83108  0.47060  Biso   1.000  O
  O13      1.0000 0.03130  0.66892  0.47060  Biso   1.000  O
  O14      1.0000 0.03130  0.33108  0.47060  Biso   1.000  O
  O15      1.0000 0.36830  0.15802  0.46350  Biso   1.000  O
  O16      1.0000 0.36830  0.84198  0.46350  Biso   1.000  O
  O17      1.0000 0.86830  0.65802  0.46350  Biso   1.000  O
  O18      1.0000 0.86830  0.34198  0.46350  Biso   1.000  O
  O19      1.0000 0.42010  0.24803  0.42050  Biso   1.000  O
  O20      1.0000 0.42010  0.75197  0.42050  Biso   1.000  O
  O21      1.0000 0.92010  0.74803  0.42050  Biso   1.000  O
  O22      1.0000 0.92010  0.25197  0.42050  Biso   1.000  O
  O23      1.0000 0.30900  0.00000  0.42100  Biso   1.000  O
  O24      1.0000 0.80900  0.50000  0.42100  Biso   1.000  O
  O25      1.0000 0.64700  0.00000  0.67720  Biso   1.000  O
  O26      1.0000 0.14700  0.50000  0.67720  Biso   1.000  O
