data_image0
_cell_length_a       7.1978
_cell_length_b       16.6218
_cell_length_c       20.5689
_cell_angle_alpha    90
_cell_angle_beta     96.226
_cell_angle_gamma    90

_symmetry_space_group_name_H-M    "P 1"
_symmetry_int_tables_number       1

loop_
  _symmetry_equiv_pos_as_xyz
  'x, y, z'

loop_
  _atom_site_label
  _atom_site_occupancy
  _atom_site_fract_x
  _atom_site_fract_y
  _atom_site_fract_z
  _atom_site_thermal_displace_type
  _atom_site_B_iso_or_equiv
  _atom_site_type_symbol
  Cu1      1.0000 0.98602  0.00019  0.23767  Biso   1.000  Cu
  Cu2      1.0000 0.01398  0.50019  0.26233  Biso   1.000  Cu
  Cu3      1.0000 0.01398  0.99981  0.76233  Biso   1.000  Cu
  Cu4      1.0000 0.98602  0.49981  0.73767  Biso   1.000  Cu
  S1       1.0000 0.28433  0.24509  0.32137  Biso   1.000  S
  S2       1.0000 0.71567  0.74509  0.17863  Biso   1.000  S
  S3       1.0000 0.71567  0.75491  0.67863  Biso   1.000  S
  S4       1.0000 0.28433  0.25491  0.82137  Biso   1.000  S
  N1       1.0000 0.90670  0.01821  0.14155  Biso   1.000  N
  N2       1.0000 0.09330  0.51821  0.35845  Biso   1.000  N
  N3       1.0000 0.09330  0.98179  0.85845  Biso   1.000  N
  N4       1.0000 0.90670  0.48179  0.64155  Biso   1.000  N
  C1       1.0000 0.92760  0.08892  0.11219  Biso   1.000  C
  C2       1.0000 0.07240  0.58892  0.38781  Biso   1.000  C
  C3       1.0000 0.07240  0.91108  0.88781  Biso   1.000  C
  C4       1.0000 0.92760  0.41108  0.61219  Biso   1.000  C
  H1       1.0000 0.98520  0.13100  0.13640  Biso   1.000  H
  H2       1.0000 0.01480  0.63100  0.36360  Biso   1.000  H
  H3       1.0000 0.01480  0.86900  0.86360  Biso   1.000  H
  H4       1.0000 0.98520  0.36900  0.63640  Biso   1.000  H
  C5       1.0000 0.86650  0.10133  0.04713  Biso   1.000  C
  C6       1.0000 0.13350  0.60133  0.45287  Biso   1.000  C
  C7       1.0000 0.13350  0.89867  0.95287  Biso   1.000  C
  C8       1.0000 0.86650  0.39867  0.54713  Biso   1.000  C
  H5       1.0000 0.88150  0.15150  0.02830  Biso   1.000  H
  H6       1.0000 0.11850  0.65150  0.47170  Biso   1.000  H
  H7       1.0000 0.11850  0.84850  0.97170  Biso   1.000  H
  H8       1.0000 0.88150  0.34850  0.52830  Biso   1.000  H
  C9       1.0000 0.78270  0.03937  0.00967  Biso   1.000  C
  C10      1.0000 0.21730  0.53937  0.49033  Biso   1.000  C
  C11      1.0000 0.21730  0.96063  0.99033  Biso   1.000  C
  C12      1.0000 0.78270  0.46063  0.50967  Biso   1.000  C
  H9       1.0000 0.74140  0.04690  0.96570  Biso   1.000  H
  H10      1.0000 0.25860  0.54690  0.53430  Biso   1.000  H
  H11      1.0000 0.25860  0.95310  0.03430  Biso   1.000  H
  H12      1.0000 0.74140  0.45310  0.46570  Biso   1.000  H
  C13      1.0000 0.76220  0.96525  0.03992  Biso   1.000  C
  C14      1.0000 0.23780  0.46525  0.46008  Biso   1.000  C
  C15      1.0000 0.23780  0.03475  0.96008  Biso   1.000  C
  C16      1.0000 0.76220  0.53475  0.53992  Biso   1.000  C
  C17      1.0000 0.82510  0.95773  0.10608  Biso   1.000  C
  C18      1.0000 0.17490  0.45773  0.39392  Biso   1.000  C
  C19      1.0000 0.17490  0.04227  0.89392  Biso   1.000  C
  C20      1.0000 0.82510  0.54227  0.60608  Biso   1.000  C
  H13      1.0000 0.80980  0.90860  0.12650  Biso   1.000  H
  H14      1.0000 0.19020  0.40860  0.37350  Biso   1.000  H
  H15      1.0000 0.19020  0.09140  0.87350  Biso   1.000  H
  H16      1.0000 0.80980  0.59140  0.62650  Biso   1.000  H
  N5       1.0000 0.68480  0.89534  0.00880  Biso   1.000  N
  N6       1.0000 0.31520  0.39534  0.49120  Biso   1.000  N
  N7       1.0000 0.31520  0.10466  0.99120  Biso   1.000  N
  N8       1.0000 0.68480  0.60466  0.50880  Biso   1.000  N
  H17      1.0000 0.67160  0.85430  0.03330  Biso   1.000  H
  H18      1.0000 0.32840  0.35430  0.46670  Biso   1.000  H
  H19      1.0000 0.32840  0.14570  0.96670  Biso   1.000  H
  H20      1.0000 0.67160  0.64570  0.53330  Biso   1.000  H
  C21      1.0000 0.62900  0.88657  0.94360  Biso   1.000  C
  C22      1.0000 0.37100  0.38657  0.55640  Biso   1.000  C
  C23      1.0000 0.37100  0.11343  0.05640  Biso   1.000  C
  C24      1.0000 0.62900  0.61343  0.44360  Biso   1.000  C
  O1       1.0000 0.62560  0.94320  0.90519  Biso   1.000  O
  O2       1.0000 0.37440  0.44320  0.59481  Biso   1.000  O
  O3       1.0000 0.37440  0.05680  0.09481  Biso   1.000  O
  O4       1.0000 0.62560  0.55680  0.40519  Biso   1.000  O
  C25      1.0000 0.57250  0.80382  0.92021  Biso   1.000  C
  C26      1.0000 0.42750  0.30382  0.57979  Biso   1.000  C
  C27      1.0000 0.42750  0.19618  0.07979  Biso   1.000  C
  C28      1.0000 0.57250  0.69618  0.42021  Biso   1.000  C
  C29      1.0000 0.46450  0.79760  0.85997  Biso   1.000  C
  C30      1.0000 0.53550  0.29760  0.64003  Biso   1.000  C
  C31      1.0000 0.53550  0.20240  0.14003  Biso   1.000  C
  C32      1.0000 0.46450  0.70240  0.35997  Biso   1.000  C
  H21      1.0000 0.42550  0.84390  0.83710  Biso   1.000  H
  H22      1.0000 0.57450  0.34390  0.66290  Biso   1.000  H
  H23      1.0000 0.57450  0.15610  0.16290  Biso   1.000  H
  H24      1.0000 0.42550  0.65610  0.33710  Biso   1.000  H
  C33      1.0000 0.41490  0.72296  0.83415  Biso   1.000  C
  C34      1.0000 0.58510  0.22296  0.66585  Biso   1.000  C
  C35      1.0000 0.58510  0.27704  0.16585  Biso   1.000  C
  C36      1.0000 0.41490  0.77704  0.33415  Biso   1.000  C
  H25      1.0000 0.34290  0.71920  0.79390  Biso   1.000  H
  H26      1.0000 0.65710  0.21920  0.70610  Biso   1.000  H
  H27      1.0000 0.65710  0.28080  0.20610  Biso   1.000  H
  H28      1.0000 0.34290  0.78080  0.29390  Biso   1.000  H
  C37      1.0000 0.47220  0.65380  0.86800  Biso   1.000  C
  C38      1.0000 0.52780  0.15380  0.63200  Biso   1.000  C
  C39      1.0000 0.52780  0.34620  0.13200  Biso   1.000  C
  C40      1.0000 0.47220  0.84620  0.36800  Biso   1.000  C
  H29      1.0000 0.43900  0.60370  0.85020  Biso   1.000  H
  H30      1.0000 0.56100  0.10370  0.64980  Biso   1.000  H
  H31      1.0000 0.56100  0.39630  0.14980  Biso   1.000  H
  H32      1.0000 0.43900  0.89630  0.35020  Biso   1.000  H
  C41      1.0000 0.57930  0.65869  0.92863  Biso   1.000  C
  C42      1.0000 0.42070  0.15869  0.57137  Biso   1.000  C
  C43      1.0000 0.42070  0.34131  0.07137  Biso   1.000  C
  C44      1.0000 0.57930  0.84131  0.42863  Biso   1.000  C
  C45      1.0000 0.63020  0.73406  0.95446  Biso   1.000  C
  C46      1.0000 0.36980  0.23406  0.54554  Biso   1.000  C
  C47      1.0000 0.36980  0.26594  0.04554  Biso   1.000  C
  C48      1.0000 0.63020  0.76594  0.45446  Biso   1.000  C
  H33      1.0000 0.70270  0.73790  0.99460  Biso   1.000  H
  H34      1.0000 0.29730  0.23790  0.50540  Biso   1.000  H
  H35      1.0000 0.29730  0.26210  0.00540  Biso   1.000  H
  H36      1.0000 0.70270  0.76210  0.49460  Biso   1.000  H
  C49      1.0000 0.64090  0.58095  0.96078  Biso   1.000  C
  C50      1.0000 0.35910  0.08095  0.53922  Biso   1.000  C
  C51      1.0000 0.35910  0.41905  0.03922  Biso   1.000  C
  C52      1.0000 0.64090  0.91905  0.46078  Biso   1.000  C
  O5       1.0000 0.62400  0.51775  0.93031  Biso   1.000  O
  O6       1.0000 0.37600  0.01775  0.56969  Biso   1.000  O
  O7       1.0000 0.37600  0.48225  0.06969  Biso   1.000  O
  O8       1.0000 0.62400  0.98225  0.43031  Biso   1.000  O
  N9       1.0000 0.71650  0.58400  0.02460  Biso   1.000  N
  N10      1.0000 0.28350  0.08400  0.47540  Biso   1.000  N
  N11      1.0000 0.28350  0.41600  0.97540  Biso   1.000  N
  N12      1.0000 0.71650  0.91600  0.52460  Biso   1.000  N
  H37      1.0000 0.71090  0.62930  0.04450  Biso   1.000  H
  H38      1.0000 0.28910  0.12930  0.45550  Biso   1.000  H
  H39      1.0000 0.28910  0.37070  0.95550  Biso   1.000  H
  H40      1.0000 0.71090  0.87070  0.54450  Biso   1.000  H
  C53      1.0000 0.80290  0.51942  0.06069  Biso   1.000  C
  C54      1.0000 0.19710  0.01942  0.43931  Biso   1.000  C
  C55      1.0000 0.19710  0.48058  0.93931  Biso   1.000  C
  C56      1.0000 0.80290  0.98058  0.56069  Biso   1.000  C
  C57      1.0000 0.84540  0.44480  0.03489  Biso   1.000  C
  C58      1.0000 0.15460  0.94480  0.46511  Biso   1.000  C
  C59      1.0000 0.15460  0.55520  0.96511  Biso   1.000  C
  C60      1.0000 0.84540  0.05520  0.53489  Biso   1.000  C
  H41      1.0000 0.81090  0.43290  0.99110  Biso   1.000  H
  H42      1.0000 0.18910  0.93290  0.50890  Biso   1.000  H
  H43      1.0000 0.18910  0.56710  0.00890  Biso   1.000  H
  H44      1.0000 0.81090  0.06710  0.49110  Biso   1.000  H
  C61      1.0000 0.93990  0.38905  0.07583  Biso   1.000  C
  C62      1.0000 0.06010  0.88905  0.42417  Biso   1.000  C
  C63      1.0000 0.06010  0.61095  0.92417  Biso   1.000  C
  C64      1.0000 0.93990  0.11095  0.57583  Biso   1.000  C
  H45      1.0000 0.96920  0.33890  0.05960  Biso   1.000  H
  H46      1.0000 0.03080  0.83890  0.44040  Biso   1.000  H
  H47      1.0000 0.03080  0.66110  0.94040  Biso   1.000  H
  H48      1.0000 0.96920  0.16110  0.55960  Biso   1.000  H
  C65      1.0000 0.99090  0.40728  0.14053  Biso   1.000  C
  C66      1.0000 0.00910  0.90728  0.35947  Biso   1.000  C
  C67      1.0000 0.00910  0.59272  0.85947  Biso   1.000  C
  C68      1.0000 0.99090  0.09272  0.64053  Biso   1.000  C
  H49      1.0000 0.05780  0.36960  0.16710  Biso   1.000  H
  H50      1.0000 0.94220  0.86960  0.33290  Biso   1.000  H
  H51      1.0000 0.94220  0.63040  0.83290  Biso   1.000  H
  H52      1.0000 0.05780  0.13040  0.66710  Biso   1.000  H
  N13      1.0000 0.94660  0.47818  0.16635  Biso   1.000  N
  N14      1.0000 0.05340  0.97818  0.33365  Biso   1.000  N
  N15      1.0000 0.05340  0.52182  0.83365  Biso   1.000  N
  N16      1.0000 0.94660  0.02182  0.66635  Biso   1.000  N
  C69      1.0000 0.85380  0.53258  0.12679  Biso   1.000  C
  C70      1.0000 0.14620  0.03258  0.37321  Biso   1.000  C
  C71      1.0000 0.14620  0.46742  0.87321  Biso   1.000  C
  C72      1.0000 0.85380  0.96742  0.62679  Biso   1.000  C
  H53      1.0000 0.82230  0.58150  0.14470  Biso   1.000  H
  H54      1.0000 0.17770  0.08150  0.35530  Biso   1.000  H
  H55      1.0000 0.17770  0.41850  0.85530  Biso   1.000  H
  H56      1.0000 0.82230  0.91850  0.64470  Biso   1.000  H
  O9       1.0000 0.30210  0.04326  0.22457  Biso   1.000  O
  O10      1.0000 0.69790  0.54326  0.27543  Biso   1.000  O
  O11      1.0000 0.69790  0.95674  0.77543  Biso   1.000  O
  O12      1.0000 0.30210  0.45674  0.72457  Biso   1.000  O
  O13      1.0000 0.08000  0.89076  0.22044  Biso   1.000  O
  O14      1.0000 0.92000  0.39076  0.27956  Biso   1.000  O
  O15      1.0000 0.92000  0.10924  0.77956  Biso   1.000  O
  O16      1.0000 0.08000  0.60924  0.72044  Biso   1.000  O
  O17      1.0000 0.67800  0.96016  0.25387  Biso   1.000  O
  O18      1.0000 0.32200  0.46016  0.24613  Biso   1.000  O
  O19      1.0000 0.32200  0.03984  0.74613  Biso   1.000  O
  O20      1.0000 0.67800  0.53984  0.75387  Biso   1.000  O
  O21      1.0000 0.89980  0.11170  0.25636  Biso   1.000  O
  O22      1.0000 0.10020  0.61170  0.24364  Biso   1.000  O
  O23      1.0000 0.10020  0.88830  0.74364  Biso   1.000  O
  O24      1.0000 0.89980  0.38830  0.75636  Biso   1.000  O
  O25      1.0000 0.27700  0.86171  0.12278  Biso   1.000  O
  O26      1.0000 0.72300  0.36171  0.37722  Biso   1.000  O
  O27      1.0000 0.72300  0.13829  0.87722  Biso   1.000  O
  O28      1.0000 0.27700  0.63829  0.62278  Biso   1.000  O
  O29      1.0000 0.90890  0.23091  0.43840  Biso   1.000  O
  O30      1.0000 0.09110  0.73091  0.06160  Biso   1.000  O
  O31      1.0000 0.09110  0.76909  0.56160  Biso   1.000  O
  O32      1.0000 0.90890  0.26909  0.93840  Biso   1.000  O
  O33      1.0000 0.70600  0.11565  0.36031  Biso   1.000  O
  O34      1.0000 0.29400  0.61565  0.13969  Biso   1.000  O
  O35      1.0000 0.29400  0.88435  0.63969  Biso   1.000  O
  O36      1.0000 0.70600  0.38435  0.86031  Biso   1.000  O
  O37      1.0000 0.38940  0.31859  0.31136  Biso   1.000  O
  O38      1.0000 0.61060  0.81859  0.18864  Biso   1.000  O
  O39      1.0000 0.61060  0.68141  0.68864  Biso   1.000  O
  O40      1.0000 0.38940  0.18141  0.81136  Biso   1.000  O
  O41      1.0000 0.38670  0.17350  0.30247  Biso   1.000  O
  O42      1.0000 0.61330  0.67350  0.19753  Biso   1.000  O
  O43      1.0000 0.61330  0.82650  0.69753  Biso   1.000  O
  O44      1.0000 0.38670  0.32650  0.80247  Biso   1.000  O
  O45      1.0000 0.10120  0.24837  0.28065  Biso   1.000  O
  O46      1.0000 0.89880  0.74837  0.21935  Biso   1.000  O
  O47      1.0000 0.89880  0.75163  0.71935  Biso   1.000  O
  O48      1.0000 0.10120  0.25163  0.78065  Biso   1.000  O
  O49      1.0000 0.25460  0.23881  0.39127  Biso   1.000  O
  O50      1.0000 0.74540  0.73881  0.10873  Biso   1.000  O
  O51      1.0000 0.74540  0.76119  0.60873  Biso   1.000  O
  O52      1.0000 0.25460  0.26119  0.89127  Biso   1.000  O
  H57      1.0000 0.32100  0.08520  0.24370  Biso   1.000  H
  H58      1.0000 0.67900  0.58520  0.25630  Biso   1.000  H
  H59      1.0000 0.67900  0.91480  0.75630  Biso   1.000  H
  H60      1.0000 0.32100  0.41480  0.74370  Biso   1.000  H
  H61      1.0000 0.32200  0.04790  0.18750  Biso   1.000  H
  H62      1.0000 0.67800  0.54790  0.31250  Biso   1.000  H
  H63      1.0000 0.67800  0.95210  0.81250  Biso   1.000  H
  H64      1.0000 0.32200  0.45210  0.68750  Biso   1.000  H
  H65      1.0000 0.14200  0.88750  0.19190  Biso   1.000  H
  H66      1.0000 0.85800  0.38750  0.30810  Biso   1.000  H
  H67      1.0000 0.85800  0.11250  0.80810  Biso   1.000  H
  H68      1.0000 0.14200  0.61250  0.69190  Biso   1.000  H
  H69      1.0000 0.02500  0.85600  0.22170  Biso   1.000  H
  H70      1.0000 0.97500  0.35600  0.27830  Biso   1.000  H
  H71      1.0000 0.97500  0.14400  0.77830  Biso   1.000  H
  H72      1.0000 0.02500  0.64400  0.72170  Biso   1.000  H
  H73      1.0000 0.58700  0.98580  0.24900  Biso   1.000  H
  H74      1.0000 0.41300  0.48580  0.25100  Biso   1.000  H
  H75      1.0000 0.41300  0.01420  0.75100  Biso   1.000  H
  H76      1.0000 0.58700  0.51420  0.74900  Biso   1.000  H
  H77      1.0000 0.65700  0.91570  0.23950  Biso   1.000  H
  H78      1.0000 0.34300  0.41570  0.26050  Biso   1.000  H
  H79      1.0000 0.34300  0.08430  0.76050  Biso   1.000  H
  H80      1.0000 0.65700  0.58430  0.73950  Biso   1.000  H
  H81      1.0000 0.96400  0.15140  0.26290  Biso   1.000  H
  H82      1.0000 0.03600  0.65140  0.23710  Biso   1.000  H
  H83      1.0000 0.03600  0.84860  0.73710  Biso   1.000  H
  H84      1.0000 0.96400  0.34860  0.76290  Biso   1.000  H
  H85      1.0000 0.84500  0.11000  0.28400  Biso   1.000  H
  H86      1.0000 0.15500  0.61000  0.21600  Biso   1.000  H
  H87      1.0000 0.15500  0.89000  0.71600  Biso   1.000  H
  H88      1.0000 0.84500  0.39000  0.78400  Biso   1.000  H
  H89      1.0000 0.38100  0.84870  0.13830  Biso   1.000  H
  H90      1.0000 0.61900  0.34870  0.36170  Biso   1.000  H
  H91      1.0000 0.61900  0.15130  0.86170  Biso   1.000  H
  H92      1.0000 0.38100  0.65130  0.63830  Biso   1.000  H
  H93      1.0000 0.23400  0.82620  0.10520  Biso   1.000  H
  H94      1.0000 0.76600  0.32620  0.39480  Biso   1.000  H
  H95      1.0000 0.76600  0.17380  0.89480  Biso   1.000  H
  H96      1.0000 0.23400  0.67380  0.60520  Biso   1.000  H
  H97      1.0000 0.00600  0.23630  0.42080  Biso   1.000  H
  H98      1.0000 0.99400  0.73630  0.07920  Biso   1.000  H
  H99      1.0000 0.99400  0.76370  0.57920  Biso   1.000  H
  H100     1.0000 0.00600  0.26370  0.92080  Biso   1.000  H
  H101     1.0000 0.85200  0.19590  0.42090  Biso   1.000  H
  H102     1.0000 0.14800  0.69590  0.07910  Biso   1.000  H
  H103     1.0000 0.14800  0.80410  0.57910  Biso   1.000  H
  H104     1.0000 0.85200  0.30410  0.92090  Biso   1.000  H
  H105     1.0000 0.68600  0.07640  0.37520  Biso   1.000  H
  H106     1.0000 0.31400  0.57640  0.12480  Biso   1.000  H
  H107     1.0000 0.31400  0.92360  0.62480  Biso   1.000  H
  H108     1.0000 0.68600  0.42360  0.87520  Biso   1.000  H
  H109     1.0000 0.60300  0.13650  0.34760  Biso   1.000  H
  H110     1.0000 0.39700  0.63650  0.15240  Biso   1.000  H
  H111     1.0000 0.39700  0.86350  0.65240  Biso   1.000  H
  H112     1.0000 0.60300  0.36350  0.84760  Biso   1.000  H
