data_image0
_cell_length_a       5.4689
_cell_length_b       11.7139
_cell_length_c       15.8623
_cell_angle_alpha    90
_cell_angle_beta     90
_cell_angle_gamma    90

_symmetry_space_group_name_H-M    "P 1"
_symmetry_int_tables_number       1

loop_
  _symmetry_equiv_pos_as_xyz
  'x, y, z'

loop_
  _atom_site_label
  _atom_site_occupancy
  _atom_site_fract_x
  _atom_site_fract_y
  _atom_site_fract_z
  _atom_site_thermal_displace_type
  _atom_site_B_iso_or_equiv
  _atom_site_type_symbol
  Cu1      1.0000 0.32856  0.93028  0.44860  Biso   1.000  Cu
  Cu2      1.0000 0.17144  0.06972  0.94860  Biso   1.000  Cu
  Cu3      1.0000 0.82856  0.56972  0.55140  Biso   1.000  Cu
  Cu4      1.0000 0.67144  0.43028  0.05140  Biso   1.000  Cu
  N1       1.0000 0.18750  0.05160  0.51943  Biso   1.000  N
  N2       1.0000 0.31250  0.94840  0.01943  Biso   1.000  N
  N3       1.0000 0.68750  0.44840  0.48057  Biso   1.000  N
  N4       1.0000 0.81250  0.55160  0.98057  Biso   1.000  N
  N5       1.0000 0.46060  0.82170  0.37032  Biso   1.000  N
  N6       1.0000 0.03940  0.17830  0.87032  Biso   1.000  N
  N7       1.0000 0.96060  0.67830  0.62968  Biso   1.000  N
  N8       1.0000 0.53940  0.32170  0.12968  Biso   1.000  N
  C1       1.0000 0.14690  0.71000  0.42968  Biso   1.000  C
  C2       1.0000 0.35310  0.29000  0.92968  Biso   1.000  C
  C3       1.0000 0.64690  0.79000  0.57032  Biso   1.000  C
  C4       1.0000 0.85310  0.21000  0.07032  Biso   1.000  C
  C5       1.0000 0.36030  0.71840  0.36950  Biso   1.000  C
  C6       1.0000 0.13970  0.28160  0.86950  Biso   1.000  C
  C7       1.0000 0.86030  0.78160  0.63050  Biso   1.000  C
  C8       1.0000 0.63970  0.21840  0.13050  Biso   1.000  C
  O1       1.0000 0.61770  0.02220  0.39935  Biso   1.000  O
  O2       1.0000 0.88230  0.97780  0.89935  Biso   1.000  O
  O3       1.0000 0.11770  0.47780  0.60065  Biso   1.000  O
  O4       1.0000 0.38230  0.52220  0.10065  Biso   1.000  O
  C9       1.0000 0.46130  0.63250  0.32130  Biso   1.000  C
  C10      1.0000 0.03870  0.36750  0.82130  Biso   1.000  C
  C11      1.0000 0.96130  0.86750  0.67870  Biso   1.000  C
  C12      1.0000 0.53870  0.13250  0.17870  Biso   1.000  C
  H1       1.0000 0.39010  0.55850  0.31990  Biso   1.000  H
  H2       1.0000 0.10990  0.44150  0.81990  Biso   1.000  H
  H3       1.0000 0.89010  0.94150  0.68010  Biso   1.000  H
  H4       1.0000 0.60990  0.05850  0.18010  Biso   1.000  H
  C13      1.0000 0.67130  0.65730  0.27450  Biso   1.000  C
  C14      1.0000 0.82870  0.34270  0.77450  Biso   1.000  C
  C15      1.0000 0.17130  0.84270  0.72550  Biso   1.000  C
  C16      1.0000 0.32870  0.15730  0.22550  Biso   1.000  C
  H5       1.0000 0.74390  0.60050  0.23990  Biso   1.000  H
  H6       1.0000 0.75610  0.39950  0.73990  Biso   1.000  H
  H7       1.0000 0.24390  0.89950  0.76010  Biso   1.000  H
  H8       1.0000 0.25610  0.10050  0.26010  Biso   1.000  H
  O5       1.0000 0.05520  0.61550  0.44147  Biso   1.000  O
  O6       1.0000 0.44480  0.38450  0.94147  Biso   1.000  O
  O7       1.0000 0.55520  0.88450  0.55853  Biso   1.000  O
  O8       1.0000 0.94480  0.11550  0.05853  Biso   1.000  O
  O9       1.0000 0.08130  0.80380  0.46357  Biso   1.000  O
  O10      1.0000 0.41870  0.19620  0.96357  Biso   1.000  O
  O11      1.0000 0.58130  0.69620  0.53643  Biso   1.000  O
  O12      1.0000 0.91870  0.30380  0.03643  Biso   1.000  O
  N9       1.0000 0.97870  0.10950  0.50760  Biso   1.000  N
  N10      1.0000 0.52130  0.89050  0.00760  Biso   1.000  N
  N11      1.0000 0.47870  0.39050  0.49240  Biso   1.000  N
  N12      1.0000 0.02130  0.60950  0.99240  Biso   1.000  N
  C17      1.0000 0.77270  0.76580  0.27910  Biso   1.000  C
  C18      1.0000 0.72730  0.23420  0.77910  Biso   1.000  C
  C19      1.0000 0.27270  0.73420  0.72090  Biso   1.000  C
  C20      1.0000 0.22730  0.26580  0.22090  Biso   1.000  C
  H9       1.0000 0.91600  0.78400  0.24800  Biso   1.000  H
  H10      1.0000 0.58400  0.21600  0.74800  Biso   1.000  H
  H11      1.0000 0.41600  0.71600  0.75200  Biso   1.000  H
  H12      1.0000 0.08400  0.28400  0.25200  Biso   1.000  H
  C21      1.0000 0.66310  0.84640  0.32910  Biso   1.000  C
  C22      1.0000 0.83690  0.15360  0.82910  Biso   1.000  C
  C23      1.0000 0.16310  0.65360  0.67090  Biso   1.000  C
  C24      1.0000 0.33690  0.34640  0.17090  Biso   1.000  C
  C25      1.0000 0.75740  0.96440  0.35010  Biso   1.000  C
  C26      1.0000 0.74260  0.03560  0.85010  Biso   1.000  C
  C27      1.0000 0.25740  0.53560  0.64990  Biso   1.000  C
  C28      1.0000 0.24260  0.46440  0.14990  Biso   1.000  C
  C29      1.0000 0.29680  0.09940  0.58530  Biso   1.000  C
  C30      1.0000 0.20320  0.90060  0.08530  Biso   1.000  C
  C31      1.0000 0.79680  0.40060  0.41470  Biso   1.000  C
  C32      1.0000 0.70320  0.59940  0.91470  Biso   1.000  C
  H13      1.0000 0.45000  0.07620  0.60770  Biso   1.000  H
  H14      1.0000 0.05000  0.92380  0.10770  Biso   1.000  H
  H15      1.0000 0.95000  0.42380  0.39230  Biso   1.000  H
  H16      1.0000 0.55000  0.57620  0.89230  Biso   1.000  H
  C33      1.0000 0.15530  0.18850  0.61680  Biso   1.000  C
  C34      1.0000 0.34470  0.81150  0.11680  Biso   1.000  C
  C35      1.0000 0.65530  0.31150  0.38320  Biso   1.000  C
  C36      1.0000 0.84470  0.68850  0.88320  Biso   1.000  C
  H17      1.0000 0.19090  0.23660  0.66350  Biso   1.000  H
  H18      1.0000 0.30910  0.76340  0.16350  Biso   1.000  H
  H19      1.0000 0.69090  0.26340  0.33650  Biso   1.000  H
  H20      1.0000 0.80910  0.73660  0.83650  Biso   1.000  H
  C37      1.0000 0.95370  0.19170  0.56590  Biso   1.000  C
  C38      1.0000 0.54630  0.80830  0.06590  Biso   1.000  C
  C39      1.0000 0.45370  0.30830  0.43410  Biso   1.000  C
  C40      1.0000 0.04630  0.69170  0.93410  Biso   1.000  C
  H21      1.0000 0.81980  0.24290  0.57090  Biso   1.000  H
  H22      1.0000 0.68020  0.75710  0.07090  Biso   1.000  H
  H23      1.0000 0.31980  0.25710  0.42910  Biso   1.000  H
  H24      1.0000 0.18020  0.74290  0.92910  Biso   1.000  H
  O13      1.0000 0.95750  0.99600  0.32397  Biso   1.000  O
  O14      1.0000 0.54250  0.00400  0.82397  Biso   1.000  O
  O15      1.0000 0.45750  0.50400  0.67603  Biso   1.000  O
  O16      1.0000 0.04250  0.49600  0.17603  Biso   1.000  O
  H25      1.0000 0.86600  0.08700  0.46900  Biso   1.000  H
  H26      1.0000 0.63400  0.91300  0.96900  Biso   1.000  H
  H27      1.0000 0.36600  0.41300  0.53100  Biso   1.000  H
  H28      1.0000 0.13400  0.58700  0.03100  Biso   1.000  H
