data_image0
_cell_length_a       5.687
_cell_length_b       12.946
_cell_length_c       15.035
_cell_angle_alpha    90
_cell_angle_beta     90
_cell_angle_gamma    90

_symmetry_space_group_name_H-M    "P 1"
_symmetry_int_tables_number       1

loop_
  _symmetry_equiv_pos_as_xyz
  'x, y, z'

loop_
  _atom_site_label
  _atom_site_occupancy
  _atom_site_fract_x
  _atom_site_fract_y
  _atom_site_fract_z
  _atom_site_thermal_displace_type
  _atom_site_B_iso_or_equiv
  _atom_site_type_symbol
  Cu1      1.0000 0.92116  0.83969  0.12686  Biso   1.000  Cu
  Cu2      1.0000 0.57884  0.16031  0.62686  Biso   1.000  Cu
  Cu3      1.0000 0.42116  0.66031  0.87314  Biso   1.000  Cu
  Cu4      1.0000 0.07884  0.33969  0.37314  Biso   1.000  Cu
  O1       1.0000 0.16640  0.80250  0.03510  Biso   1.000  O
  O2       1.0000 0.33360  0.19750  0.53510  Biso   1.000  O
  O3       1.0000 0.66640  0.69750  0.96490  Biso   1.000  O
  O4       1.0000 0.83360  0.30250  0.46490  Biso   1.000  O
  O5       1.0000 0.64180  0.91540  0.18690  Biso   1.000  O
  O6       1.0000 0.85820  0.08460  0.68690  Biso   1.000  O
  O7       1.0000 0.14180  0.58460  0.81310  Biso   1.000  O
  O8       1.0000 0.35820  0.41540  0.31310  Biso   1.000  O
  N1       1.0000 0.79770  0.91510  0.02770  Biso   1.000  N
  N2       1.0000 0.70230  0.08490  0.52770  Biso   1.000  N
  N3       1.0000 0.29770  0.58490  0.97230  Biso   1.000  N
  N4       1.0000 0.20230  0.41510  0.47230  Biso   1.000  N
  O9       1.0000 0.20280  0.80070  0.88630  Biso   1.000  O
  O10      1.0000 0.29720  0.19930  0.38630  Biso   1.000  O
  O11      1.0000 0.70280  0.69930  0.11370  Biso   1.000  O
  O12      1.0000 0.79720  0.30070  0.61370  Biso   1.000  O
  C1       1.0000 0.10900  0.82860  0.95600  Biso   1.000  C
  C2       1.0000 0.39100  0.17140  0.45600  Biso   1.000  C
  C3       1.0000 0.60900  0.67140  0.04400  Biso   1.000  C
  C4       1.0000 0.89100  0.32860  0.54400  Biso   1.000  C
  N5       1.0000 0.06320  0.77870  0.23180  Biso   1.000  N
  N6       1.0000 0.43680  0.22130  0.73180  Biso   1.000  N
  N7       1.0000 0.56320  0.72130  0.76820  Biso   1.000  N
  N8       1.0000 0.93680  0.27870  0.26820  Biso   1.000  N
  C5       1.0000 0.89920  0.90040  0.94910  Biso   1.000  C
  C6       1.0000 0.60080  0.09960  0.44910  Biso   1.000  C
  C7       1.0000 0.39920  0.59960  0.05090  Biso   1.000  C
  C8       1.0000 0.10080  0.40040  0.55090  Biso   1.000  C
  C9       1.0000 0.80700  0.94520  0.87390  Biso   1.000  C
  C10      1.0000 0.69300  0.05480  0.37390  Biso   1.000  C
  C11      1.0000 0.30700  0.55480  0.12610  Biso   1.000  C
  C12      1.0000 0.19300  0.44520  0.62610  Biso   1.000  C
  H1       1.0000 0.88210  0.93720  0.81790  Biso   1.000  H
  H2       1.0000 0.61790  0.06280  0.31790  Biso   1.000  H
  H3       1.0000 0.38210  0.56280  0.18210  Biso   1.000  H
  H4       1.0000 0.11790  0.43720  0.68210  Biso   1.000  H
  C13      1.0000 0.60110  0.00250  0.88170  Biso   1.000  C
  C14      1.0000 0.89890  0.99750  0.38170  Biso   1.000  C
  C15      1.0000 0.10110  0.49750  0.11830  Biso   1.000  C
  C16      1.0000 0.39890  0.50250  0.61830  Biso   1.000  C
  H5       1.0000 0.53280  0.03340  0.83060  Biso   1.000  H
  H6       1.0000 0.96720  0.96660  0.33060  Biso   1.000  H
  H7       1.0000 0.03280  0.46660  0.16940  Biso   1.000  H
  H8       1.0000 0.46720  0.53340  0.66940  Biso   1.000  H
  C17      1.0000 0.49600  0.01440  0.96430  Biso   1.000  C
  C18      1.0000 0.00400  0.98560  0.46430  Biso   1.000  C
  C19      1.0000 0.99600  0.48560  0.03570  Biso   1.000  C
  C20      1.0000 0.50400  0.51440  0.53570  Biso   1.000  C
  H9       1.0000 0.35640  0.05410  0.97050  Biso   1.000  H
  H10      1.0000 0.14360  0.94590  0.47050  Biso   1.000  H
  H11      1.0000 0.85640  0.44590  0.02950  Biso   1.000  H
  H12      1.0000 0.64360  0.55410  0.52950  Biso   1.000  H
  O13      1.0000 0.31530  0.00390  0.15060  Biso   1.000  O
  O14      1.0000 0.18470  0.99610  0.65060  Biso   1.000  O
  O15      1.0000 0.81530  0.49610  0.84940  Biso   1.000  O
  O16      1.0000 0.68470  0.50390  0.34940  Biso   1.000  O
  N9       1.0000 0.26080  0.80650  0.27590  Biso   1.000  N
  N10      1.0000 0.23920  0.19350  0.77590  Biso   1.000  N
  N11      1.0000 0.76080  0.69350  0.72410  Biso   1.000  N
  N12      1.0000 0.73920  0.30650  0.22410  Biso   1.000  N
  C21      1.0000 0.59840  0.96720  0.03790  Biso   1.000  C
  C22      1.0000 0.90160  0.03280  0.53790  Biso   1.000  C
  C23      1.0000 0.09840  0.53280  0.96210  Biso   1.000  C
  C24      1.0000 0.40160  0.46720  0.46210  Biso   1.000  C
  C25      1.0000 0.50850  0.96330  0.13110  Biso   1.000  C
  C26      1.0000 0.99150  0.03670  0.63110  Biso   1.000  C
  C27      1.0000 0.00850  0.53670  0.86890  Biso   1.000  C
  C28      1.0000 0.49150  0.46330  0.36890  Biso   1.000  C
  C29      1.0000 0.97590  0.69990  0.27880  Biso   1.000  C
  C30      1.0000 0.52410  0.30010  0.77880  Biso   1.000  C
  C31      1.0000 0.47590  0.80010  0.72120  Biso   1.000  C
  C32      1.0000 0.02410  0.19990  0.22120  Biso   1.000  C
  H13      1.0000 0.83670  0.66320  0.26410  Biso   1.000  H
  H14      1.0000 0.66330  0.33680  0.76410  Biso   1.000  H
  H15      1.0000 0.33670  0.83680  0.73590  Biso   1.000  H
  H16      1.0000 0.16330  0.16320  0.23590  Biso   1.000  H
  C33      1.0000 0.11590  0.67930  0.35190  Biso   1.000  C
  C34      1.0000 0.38410  0.32070  0.85190  Biso   1.000  C
  C35      1.0000 0.61590  0.82070  0.64810  Biso   1.000  C
  C36      1.0000 0.88410  0.17930  0.14810  Biso   1.000  C
  H17      1.0000 0.09100  0.62720  0.39540  Biso   1.000  H
  H18      1.0000 0.40900  0.37280  0.89540  Biso   1.000  H
  H19      1.0000 0.59100  0.87280  0.60460  Biso   1.000  H
  H20      1.0000 0.90900  0.12720  0.10460  Biso   1.000  H
  C37      1.0000 0.29720  0.74860  0.34920  Biso   1.000  C
  C38      1.0000 0.20280  0.25140  0.84920  Biso   1.000  C
  C39      1.0000 0.79720  0.75140  0.65080  Biso   1.000  C
  C40      1.0000 0.70280  0.24860  0.15080  Biso   1.000  C
  C41      1.0000 0.50050  0.76530  0.40760  Biso   1.000  C
  C42      1.0000 0.99950  0.23470  0.90760  Biso   1.000  C
  C43      1.0000 0.00050  0.73470  0.59240  Biso   1.000  C
  C44      1.0000 0.49950  0.26530  0.09240  Biso   1.000  C
  H21      1.0000 0.60480  0.81710  0.38100  Biso   1.000  H
  H22      1.0000 0.89520  0.18290  0.88100  Biso   1.000  H
  H23      1.0000 0.10480  0.68290  0.61900  Biso   1.000  H
  H24      1.0000 0.39520  0.31710  0.11900  Biso   1.000  H
  H25      1.0000 0.58620  0.70020  0.41510  Biso   1.000  H
  H26      1.0000 0.91380  0.29980  0.91510  Biso   1.000  H
  H27      1.0000 0.08620  0.79980  0.58490  Biso   1.000  H
  H28      1.0000 0.41380  0.20020  0.08490  Biso   1.000  H
  H29      1.0000 0.44620  0.78990  0.46580  Biso   1.000  H
  H30      1.0000 0.05380  0.21010  0.96580  Biso   1.000  H
  H31      1.0000 0.94620  0.71010  0.53420  Biso   1.000  H
  H32      1.0000 0.55380  0.28990  0.03420  Biso   1.000  H
  H33      1.0000 0.32900  0.85700  0.25200  Biso   1.000  H
  H34      1.0000 0.17100  0.14300  0.75200  Biso   1.000  H
  H35      1.0000 0.82900  0.64300  0.74800  Biso   1.000  H
  H36      1.0000 0.67100  0.35700  0.24800  Biso   1.000  H
