data_image0
_cell_length_a       12.95
_cell_length_b       5.25
_cell_length_c       9.39
_cell_angle_alpha    90
_cell_angle_beta     93.3
_cell_angle_gamma    90

_symmetry_space_group_name_H-M    "P 1"
_symmetry_int_tables_number       1

loop_
  _symmetry_equiv_pos_as_xyz
  'x, y, z'

loop_
  _atom_site_label
  _atom_site_occupancy
  _atom_site_fract_x
  _atom_site_fract_y
  _atom_site_fract_z
  _atom_site_thermal_displace_type
  _atom_site_B_iso_or_equiv
  _atom_site_type_symbol
  Cu1      1.0000 0.00000  0.00000  0.00000  Biso   1.000  Cu
  Cu2      1.0000 0.00000  0.50000  0.50000  Biso   1.000  Cu
  C1       1.0000 0.11790  0.17080  0.25680  Biso   1.000  C
  C2       1.0000 0.88210  0.67080  0.24320  Biso   1.000  C
  C3       1.0000 0.88210  0.82920  0.74320  Biso   1.000  C
  C4       1.0000 0.11790  0.32920  0.75680  Biso   1.000  C
  C5       1.0000 0.21120  0.05360  0.19750  Biso   1.000  C
  C6       1.0000 0.78880  0.55360  0.30250  Biso   1.000  C
  C7       1.0000 0.78880  0.94640  0.80250  Biso   1.000  C
  C8       1.0000 0.21120  0.44640  0.69750  Biso   1.000  C
  C9       1.0000 0.20370  0.84040  0.10700  Biso   1.000  C
  C10      1.0000 0.79630  0.34040  0.39300  Biso   1.000  C
  C11      1.0000 0.79630  0.15960  0.89300  Biso   1.000  C
  C12      1.0000 0.20370  0.65960  0.60700  Biso   1.000  C
  C13      1.0000 0.29050  0.73880  0.04990  Biso   1.000  C
  C14      1.0000 0.70950  0.23880  0.45010  Biso   1.000  C
  C15      1.0000 0.70950  0.26120  0.95010  Biso   1.000  C
  C16      1.0000 0.29050  0.76120  0.54990  Biso   1.000  C
  C17      1.0000 0.38710  0.84800  0.08190  Biso   1.000  C
  C18      1.0000 0.61290  0.34800  0.41810  Biso   1.000  C
  C19      1.0000 0.61290  0.15200  0.91810  Biso   1.000  C
  C20      1.0000 0.38710  0.65200  0.58190  Biso   1.000  C
  C21      1.0000 0.39570  0.05240  0.17270  Biso   1.000  C
  C22      1.0000 0.60430  0.55240  0.32730  Biso   1.000  C
  C23      1.0000 0.60430  0.94760  0.82730  Biso   1.000  C
  C24      1.0000 0.39570  0.44760  0.67270  Biso   1.000  C
  C25      1.0000 0.30940  0.15430  0.23120  Biso   1.000  C
  C26      1.0000 0.69060  0.65430  0.26880  Biso   1.000  C
  C27      1.0000 0.69060  0.84570  0.76880  Biso   1.000  C
  C28      1.0000 0.30940  0.34570  0.73120  Biso   1.000  C
  H1       1.0000 0.11900  0.62100  0.01000  Biso   1.000  H
  H2       1.0000 0.88100  0.12100  0.49000  Biso   1.000  H
  H3       1.0000 0.88100  0.37900  0.99000  Biso   1.000  H
  H4       1.0000 0.11900  0.87900  0.51000  Biso   1.000  H
  H5       1.0000 0.07400  0.69100  0.14600  Biso   1.000  H
  H6       1.0000 0.92600  0.19100  0.35400  Biso   1.000  H
  H7       1.0000 0.92600  0.30900  0.85400  Biso   1.000  H
  H8       1.0000 0.07400  0.80900  0.64600  Biso   1.000  H
  H9       1.0000 0.28700  0.60100  0.98700  Biso   1.000  H
  H10      1.0000 0.71300  0.10100  0.51300  Biso   1.000  H
  H11      1.0000 0.71300  0.39900  0.01300  Biso   1.000  H
  H12      1.0000 0.28700  0.89900  0.48700  Biso   1.000  H
  H13      1.0000 0.44900  0.78700  0.03300  Biso   1.000  H
  H14      1.0000 0.55100  0.28700  0.46700  Biso   1.000  H
  H15      1.0000 0.55100  0.21300  0.96700  Biso   1.000  H
  H16      1.0000 0.44900  0.71300  0.53300  Biso   1.000  H
  H17      1.0000 0.46200  0.13400  0.20200  Biso   1.000  H
  H18      1.0000 0.53800  0.63400  0.29800  Biso   1.000  H
  H19      1.0000 0.53800  0.86600  0.79800  Biso   1.000  H
  H20      1.0000 0.46200  0.36600  0.70200  Biso   1.000  H
  H21      1.0000 0.31300  0.27500  0.22900  Biso   1.000  H
  H22      1.0000 0.68700  0.77500  0.27100  Biso   1.000  H
  H23      1.0000 0.68700  0.72500  0.77100  Biso   1.000  H
  H24      1.0000 0.31300  0.22500  0.72900  Biso   1.000  H
  N1       1.0000 0.10320  0.73310  0.07140  Biso   1.000  N
  N2       1.0000 0.89680  0.23310  0.42860  Biso   1.000  N
  N3       1.0000 0.89680  0.26690  0.92860  Biso   1.000  N
  N4       1.0000 0.10320  0.76690  0.57140  Biso   1.000  N
  O1       1.0000 0.03400  0.18580  0.17920  Biso   1.000  O
  O2       1.0000 0.96600  0.68580  0.32080  Biso   1.000  O
  O3       1.0000 0.96600  0.81420  0.82080  Biso   1.000  O
  O4       1.0000 0.03400  0.31420  0.67920  Biso   1.000  O
  O5       1.0000 0.12730  0.25560  0.38060  Biso   1.000  O
  O6       1.0000 0.87270  0.75560  0.11940  Biso   1.000  O
  O7       1.0000 0.87270  0.74440  0.61940  Biso   1.000  O
  O8       1.0000 0.12730  0.24440  0.88060  Biso   1.000  O
