data_image0
_cell_length_a       6.2587
_cell_length_b       7.5076
_cell_length_c       9.7094
_cell_angle_alpha    104.159
_cell_angle_beta     105.619
_cell_angle_gamma    99.646

_symmetry_space_group_name_H-M    "P 1"
_symmetry_int_tables_number       1

loop_
  _symmetry_equiv_pos_as_xyz
  'x, y, z'

loop_
  _atom_site_label
  _atom_site_occupancy
  _atom_site_fract_x
  _atom_site_fract_y
  _atom_site_fract_z
  _atom_site_thermal_displace_type
  _atom_site_B_iso_or_equiv
  _atom_site_type_symbol
  Cu1      1.0000 0.29635  0.14422  0.09835  Biso   1.000  Cu
  Cu2      1.0000 0.70365  0.85578  0.90165  Biso   1.000  Cu
  Cl1      1.0000 0.41380  0.06159  0.30834  Biso   1.000  Cl
  Cl2      1.0000 0.58620  0.93841  0.69166  Biso   1.000  Cl
  Cl3      1.0000 0.16476  0.85834  0.92656  Biso   1.000  Cl
  Cl4      1.0000 0.83524  0.14166  0.07344  Biso   1.000  Cl
  O1       1.0000 0.30120  0.26820  0.94030  Biso   1.000  O
  O2       1.0000 0.69880  0.73180  0.05970  Biso   1.000  O
  O3       1.0000 0.39390  0.41740  0.22080  Biso   1.000  O
  O4       1.0000 0.60610  0.58260  0.77920  Biso   1.000  O
  O5       1.0000 0.74170  0.43880  0.55140  Biso   1.000  O
  O6       1.0000 0.25830  0.56120  0.44860  Biso   1.000  O
  H1       1.0000 0.65910  0.36230  0.47070  Biso   1.000  H
  H2       1.0000 0.34090  0.63770  0.52930  Biso   1.000  H
  O7       1.0000 0.01810  0.20190  0.67030  Biso   1.000  O
  O8       1.0000 0.98190  0.79810  0.32970  Biso   1.000  O
  H3       1.0000 0.88550  0.14160  0.64890  Biso   1.000  H
  H4       1.0000 0.11450  0.85840  0.35110  Biso   1.000  H
  C1       1.0000 0.37210  0.47100  0.98860  Biso   1.000  C
  C2       1.0000 0.62790  0.52900  0.01140  Biso   1.000  C
  H5       1.0000 0.28680  0.52000  0.91190  Biso   1.000  H
  H6       1.0000 0.71320  0.48000  0.08810  Biso   1.000  H
  C3       1.0000 0.31800  0.53920  0.13210  Biso   1.000  C
  C4       1.0000 0.68200  0.46080  0.86790  Biso   1.000  C
  H7       1.0000 0.39910  0.67080  0.18500  Biso   1.000  H
  H8       1.0000 0.60090  0.32920  0.81500  Biso   1.000  H
  H9       1.0000 0.15480  0.52770  0.11100  Biso   1.000  H
  H10      1.0000 0.84520  0.47230  0.88900  Biso   1.000  H
  C5       1.0000 0.97750  0.45760  0.55980  Biso   1.000  C
  C6       1.0000 0.02250  0.54240  0.44020  Biso   1.000  C
  H11      1.0000 0.07190  0.54710  0.65800  Biso   1.000  H
  H12      1.0000 0.92810  0.45290  0.34200  Biso   1.000  H
  C7       1.0000 0.04200  0.27120  0.54970  Biso   1.000  C
  C8       1.0000 0.95800  0.72880  0.45030  Biso   1.000  C
  H13      1.0000 0.94540  0.17820  0.45520  Biso   1.000  H
  H14      1.0000 0.05460  0.82180  0.54480  Biso   1.000  H
  H15      1.0000 0.19960  0.28750  0.55070  Biso   1.000  H
  H16      1.0000 0.80040  0.71250  0.44930  Biso   1.000  H
  H17      1.0000 0.20700  0.23100  0.85700  Biso   1.000  H
  H18      1.0000 0.79300  0.76900  0.14300  Biso   1.000  H
  H19      1.0000 0.36300  0.44800  0.29800  Biso   1.000  H
  H20      1.0000 0.63700  0.55200  0.70200  Biso   1.000  H
