data_image0
_cell_length_a       14.9403
_cell_length_b       7.0436
_cell_length_c       10.2343
_cell_angle_alpha    90
_cell_angle_beta     131.22
_cell_angle_gamma    90

_symmetry_space_group_name_H-M    "P 1"
_symmetry_int_tables_number       1

loop_
  _symmetry_equiv_pos_as_xyz
  'x, y, z'

loop_
  _atom_site_label
  _atom_site_occupancy
  _atom_site_fract_x
  _atom_site_fract_y
  _atom_site_fract_z
  _atom_site_thermal_displace_type
  _atom_site_B_iso_or_equiv
  _atom_site_type_symbol
  Cu1      1.0000 0.00000  0.33221  0.25000  Biso   1.000  Cu
  Cu2      1.0000 0.50000  0.83221  0.25000  Biso   1.000  Cu
  Cu3      1.0000 0.00000  0.66779  0.75000  Biso   1.000  Cu
  Cu4      1.0000 0.50000  0.16779  0.75000  Biso   1.000  Cu
  Cl1      1.0000 0.85560  0.55232  0.13949  Biso   1.000  Cl
  Cl2      1.0000 0.35560  0.05232  0.13949  Biso   1.000  Cl
  Cl3      1.0000 0.85560  0.44768  0.63949  Biso   1.000  Cl
  Cl4      1.0000 0.35560  0.94768  0.63949  Biso   1.000  Cl
  Cl5      1.0000 0.14440  0.44768  0.86051  Biso   1.000  Cl
  Cl6      1.0000 0.64440  0.94768  0.86051  Biso   1.000  Cl
  Cl7      1.0000 0.14440  0.55232  0.36051  Biso   1.000  Cl
  Cl8      1.0000 0.64440  0.05232  0.36051  Biso   1.000  Cl
  O1       1.0000 0.95231  0.24210  0.98910  Biso   1.000  O
  O2       1.0000 0.45231  0.74210  0.98910  Biso   1.000  O
  O3       1.0000 0.95231  0.75790  0.48910  Biso   1.000  O
  O4       1.0000 0.45231  0.25790  0.48910  Biso   1.000  O
  O5       1.0000 0.04769  0.75790  0.01090  Biso   1.000  O
  O6       1.0000 0.54769  0.25790  0.01090  Biso   1.000  O
  O7       1.0000 0.04769  0.24210  0.51090  Biso   1.000  O
  O8       1.0000 0.54769  0.74210  0.51090  Biso   1.000  O
  O9       1.0000 0.11501  0.12090  0.31000  Biso   1.000  O
  O10      1.0000 0.61501  0.62090  0.31000  Biso   1.000  O
  O11      1.0000 0.11501  0.87910  0.81000  Biso   1.000  O
  O12      1.0000 0.61501  0.37910  0.81000  Biso   1.000  O
  O13      1.0000 0.88499  0.87910  0.69000  Biso   1.000  O
  O14      1.0000 0.38499  0.37910  0.69000  Biso   1.000  O
  O15      1.0000 0.88499  0.12090  0.19000  Biso   1.000  O
  O16      1.0000 0.38499  0.62090  0.19000  Biso   1.000  O
  C1       1.0000 0.03010  0.09510  0.01750  Biso   1.000  C
  C2       1.0000 0.53010  0.59510  0.01750  Biso   1.000  C
  C3       1.0000 0.03010  0.90490  0.51750  Biso   1.000  C
  C4       1.0000 0.53010  0.40490  0.51750  Biso   1.000  C
  C5       1.0000 0.96990  0.90490  0.98250  Biso   1.000  C
  C6       1.0000 0.46990  0.40490  0.98250  Biso   1.000  C
  C7       1.0000 0.96990  0.09510  0.48250  Biso   1.000  C
  C8       1.0000 0.46990  0.59510  0.48250  Biso   1.000  C
  H1       1.0000 0.04470  0.11250  0.93790  Biso   1.000  H
  H2       1.0000 0.54470  0.61250  0.93790  Biso   1.000  H
  H3       1.0000 0.04470  0.88750  0.43790  Biso   1.000  H
  H4       1.0000 0.54470  0.38750  0.43790  Biso   1.000  H
  H5       1.0000 0.95530  0.88750  0.06210  Biso   1.000  H
  H6       1.0000 0.45530  0.38750  0.06210  Biso   1.000  H
  H7       1.0000 0.95530  0.11250  0.56210  Biso   1.000  H
  H8       1.0000 0.45530  0.61250  0.56210  Biso   1.000  H
  C9       1.0000 0.14550  0.11410  0.20230  Biso   1.000  C
  C10      1.0000 0.64550  0.61410  0.20230  Biso   1.000  C
  C11      1.0000 0.14550  0.88590  0.70230  Biso   1.000  C
  C12      1.0000 0.64550  0.38590  0.70230  Biso   1.000  C
  C13      1.0000 0.85450  0.88590  0.79770  Biso   1.000  C
  C14      1.0000 0.35450  0.38590  0.79770  Biso   1.000  C
  C15      1.0000 0.85450  0.11410  0.29770  Biso   1.000  C
  C16      1.0000 0.35450  0.61410  0.29770  Biso   1.000  C
  H9       1.0000 0.19680  0.00640  0.23390  Biso   1.000  H
  H10      1.0000 0.69680  0.50640  0.23390  Biso   1.000  H
  H11      1.0000 0.19680  0.99360  0.73390  Biso   1.000  H
  H12      1.0000 0.69680  0.49360  0.73390  Biso   1.000  H
  H13      1.0000 0.80320  0.99360  0.76610  Biso   1.000  H
  H14      1.0000 0.30320  0.49360  0.76610  Biso   1.000  H
  H15      1.0000 0.80320  0.00640  0.26610  Biso   1.000  H
  H16      1.0000 0.30320  0.50640  0.26610  Biso   1.000  H
  H17      1.0000 0.18670  0.22920  0.21620  Biso   1.000  H
  H18      1.0000 0.68670  0.72920  0.21620  Biso   1.000  H
  H19      1.0000 0.18670  0.77080  0.71620  Biso   1.000  H
  H20      1.0000 0.68670  0.27080  0.71620  Biso   1.000  H
  H21      1.0000 0.81330  0.77080  0.78380  Biso   1.000  H
  H22      1.0000 0.31330  0.27080  0.78380  Biso   1.000  H
  H23      1.0000 0.81330  0.22920  0.28380  Biso   1.000  H
  H24      1.0000 0.31330  0.72920  0.28380  Biso   1.000  H
  H25      1.0000 0.92900  0.30300  0.90700  Biso   1.000  H
  H26      1.0000 0.42900  0.80300  0.90700  Biso   1.000  H
  H27      1.0000 0.92900  0.69700  0.40700  Biso   1.000  H
  H28      1.0000 0.42900  0.19700  0.40700  Biso   1.000  H
  H29      1.0000 0.07100  0.69700  0.09300  Biso   1.000  H
  H30      1.0000 0.57100  0.19700  0.09300  Biso   1.000  H
  H31      1.0000 0.07100  0.30300  0.59300  Biso   1.000  H
  H32      1.0000 0.57100  0.80300  0.59300  Biso   1.000  H
  H33      1.0000 0.17100  0.10600  0.40800  Biso   1.000  H
  H34      1.0000 0.67100  0.60600  0.40800  Biso   1.000  H
  H35      1.0000 0.17100  0.89400  0.90800  Biso   1.000  H
  H36      1.0000 0.67100  0.39400  0.90800  Biso   1.000  H
  H37      1.0000 0.82900  0.89400  0.59200  Biso   1.000  H
  H38      1.0000 0.32900  0.39400  0.59200  Biso   1.000  H
  H39      1.0000 0.82900  0.10600  0.09200  Biso   1.000  H
  H40      1.0000 0.32900  0.60600  0.09200  Biso   1.000  H
