data_image0
_cell_length_a       10.5896
_cell_length_b       10.7921
_cell_length_c       13.5168
_cell_angle_alpha    104.689
_cell_angle_beta     99.103
_cell_angle_gamma    113.419

_symmetry_space_group_name_H-M    "P 1"
_symmetry_int_tables_number       1

loop_
  _symmetry_equiv_pos_as_xyz
  'x, y, z'

loop_
  _atom_site_label
  _atom_site_occupancy
  _atom_site_fract_x
  _atom_site_fract_y
  _atom_site_fract_z
  _atom_site_thermal_displace_type
  _atom_site_B_iso_or_equiv
  _atom_site_type_symbol
  Cu1      1.0000 0.00000  0.00000  0.00000  Biso   1.000  Cu
  Cu2      1.0000 0.50000  0.00000  0.00000  Biso   1.000  Cu
  Cu3      1.0000 0.50000  0.00000  0.50000  Biso   1.000  Cu
  V1       1.0000 0.90802  0.09360  0.50784  Biso   1.000  V
  V2       1.0000 0.09198  0.90640  0.49216  Biso   1.000  V
  V3       1.0000 0.76297  0.78023  0.51410  Biso   1.000  V
  V4       1.0000 0.23703  0.21977  0.48590  Biso   1.000  V
  V5       1.0000 0.95065  0.12782  0.29224  Biso   1.000  V
  V6       1.0000 0.04935  0.87218  0.70776  Biso   1.000  V
  V7       1.0000 0.80616  0.81831  0.29871  Biso   1.000  V
  V8       1.0000 0.19384  0.18169  0.70129  Biso   1.000  V
  V9       1.0000 0.88321  0.05235  0.72666  Biso   1.000  V
  V10      1.0000 0.11679  0.94765  0.27334  Biso   1.000  V
  O1       1.0000 0.18460  0.99610  0.00350  Biso   1.000  O
  O2       1.0000 0.81540  0.00390  0.99650  Biso   1.000  O
  O3       1.0000 0.41730  0.14050  0.02410  Biso   1.000  O
  O4       1.0000 0.58270  0.85950  0.97590  Biso   1.000  O
  O5       1.0000 0.58930  0.20430  0.52160  Biso   1.000  O
  O6       1.0000 0.41070  0.79570  0.47840  Biso   1.000  O
  O7       1.0000 0.65650  0.35520  0.43090  Biso   1.000  O
  O8       1.0000 0.34350  0.64480  0.56910  Biso   1.000  O
  O9       1.0000 0.83860  0.13260  0.61130  Biso   1.000  O
  O10      1.0000 0.16140  0.86740  0.38870  Biso   1.000  O
  O11      1.0000 0.75500  0.90150  0.42910  Biso   1.000  O
  O12      1.0000 0.24500  0.09850  0.57090  Biso   1.000  O
  O13      1.0000 0.87190  0.17570  0.42360  Biso   1.000  O
  O14      1.0000 0.12810  0.82430  0.57640  Biso   1.000  O
  O15      1.0000 0.11040  0.24450  0.58690  Biso   1.000  O
  O16      1.0000 0.88960  0.75550  0.41310  Biso   1.000  O
  O17      1.0000 0.01700  0.02320  0.40800  Biso   1.000  O
  O18      1.0000 0.98300  0.97680  0.59200  Biso   1.000  O
  O19      1.0000 0.61580  0.63340  0.45040  Biso   1.000  O
  O20      1.0000 0.38420  0.36660  0.54960  Biso   1.000  O
  O21      1.0000 0.86740  0.71210  0.60110  Biso   1.000  O
  O22      1.0000 0.13260  0.28790  0.39890  Biso   1.000  O
  H1       1.0000 0.81650  0.64040  0.62190  Biso   1.000  H
  H2       1.0000 0.18350  0.35960  0.37810  Biso   1.000  H
  O23      1.0000 0.90840  0.22140  0.22960  Biso   1.000  O
  O24      1.0000 0.09160  0.77860  0.77040  Biso   1.000  O
  O25      1.0000 0.78850  0.95230  0.24270  Biso   1.000  O
  O26      1.0000 0.21150  0.04770  0.75730  Biso   1.000  O
  O27      1.0000 0.65760  0.67350  0.23400  Biso   1.000  O
  O28      1.0000 0.34240  0.32650  0.76600  Biso   1.000  O
  O29      1.0000 0.80580  0.10630  0.80850  Biso   1.000  O
  O30      1.0000 0.19420  0.89370  0.19150  Biso   1.000  O
  O31      1.0000 0.93420  0.79340  0.22680  Biso   1.000  O
  O32      1.0000 0.06580  0.20660  0.77320  Biso   1.000  O
  O33      1.0000 0.72040  0.87310  0.62350  Biso   1.000  O
  O34      1.0000 0.27960  0.12690  0.37650  Biso   1.000  O
  O35      1.0000 0.05130  0.05820  0.21420  Biso   1.000  O
  O36      1.0000 0.94870  0.94180  0.78580  Biso   1.000  O
  O37      1.0000 0.71680  0.22310  0.05760  Biso   1.000  O
  O38      1.0000 0.28320  0.77690  0.94240  Biso   1.000  O
  H3       1.0000 0.72560  0.30500  0.10590  Biso   1.000  H
  H4       1.0000 0.27440  0.69500  0.89410  Biso   1.000  H
  H5       1.0000 0.78710  0.20980  0.09280  Biso   1.000  H
  H6       1.0000 0.21290  0.79020  0.90720  Biso   1.000  H
  N1       1.0000 0.11450  0.20820  0.01860  Biso   1.000  N
  N2       1.0000 0.88550  0.79180  0.98140  Biso   1.000  N
  N3       1.0000 0.31220  0.48330  0.03390  Biso   1.000  N
  N4       1.0000 0.68780  0.51670  0.96610  Biso   1.000  N
  N5       1.0000 0.50460  0.97470  0.34970  Biso   1.000  N
  N6       1.0000 0.49540  0.02530  0.65030  Biso   1.000  N
  N7       1.0000 0.50800  0.98940  0.14830  Biso   1.000  N
  N8       1.0000 0.49200  0.01060  0.85170  Biso   1.000  N
  C1       1.0000 0.07380  0.31170  0.02170  Biso   1.000  C
  C2       1.0000 0.92620  0.68830  0.97830  Biso   1.000  C
  H7       1.0000 0.97930  0.29280  0.01860  Biso   1.000  H
  H8       1.0000 0.02070  0.70720  0.98140  Biso   1.000  H
  C3       1.0000 0.17470  0.44840  0.02970  Biso   1.000  C
  C4       1.0000 0.82530  0.55160  0.97030  Biso   1.000  C
  H9       1.0000 0.14460  0.51890  0.03220  Biso   1.000  H
  H10      1.0000 0.85540  0.48110  0.96780  Biso   1.000  H
  C5       1.0000 0.35050  0.37720  0.03010  Biso   1.000  C
  C6       1.0000 0.64950  0.62280  0.96990  Biso   1.000  C
  H11      1.0000 0.44480  0.39600  0.03240  Biso   1.000  H
  H12      1.0000 0.55520  0.60400  0.96760  Biso   1.000  H
  C7       1.0000 0.25300  0.24090  0.02290  Biso   1.000  C
  C8       1.0000 0.74700  0.75910  0.97710  Biso   1.000  C
  C9       1.0000 0.28920  0.11650  0.01610  Biso   1.000  C
  C10      1.0000 0.71080  0.88350  0.98390  Biso   1.000  C
  C11      1.0000 0.46400  0.85460  0.26640  Biso   1.000  C
  C12      1.0000 0.53600  0.14540  0.73360  Biso   1.000  C
  H13      1.0000 0.43290  0.76600  0.27590  Biso   1.000  H
  H14      1.0000 0.56710  0.23400  0.72410  Biso   1.000  H
  C13      1.0000 0.46820  0.86230  0.16470  Biso   1.000  C
  C14      1.0000 0.53180  0.13770  0.83530  Biso   1.000  C
  H15      1.0000 0.44330  0.77900  0.10790  Biso   1.000  H
  H16      1.0000 0.55670  0.22100  0.89210  Biso   1.000  H
  C15      1.0000 0.55120  0.11000  0.23340  Biso   1.000  C
  C16      1.0000 0.44880  0.89000  0.76660  Biso   1.000  C
  H17      1.0000 0.58170  0.19900  0.22440  Biso   1.000  H
  H18      1.0000 0.41830  0.80100  0.77560  Biso   1.000  H
  C17      1.0000 0.55030  0.10140  0.33490  Biso   1.000  C
  C18      1.0000 0.44970  0.89860  0.66510  Biso   1.000  C
  C19      1.0000 0.60350  0.23320  0.43600  Biso   1.000  C
  C20      1.0000 0.39650  0.76680  0.56400  Biso   1.000  C
  O39      1.0000 0.92820  0.43260  0.75310  Biso   1.000  O
  O40      1.0000 0.07180  0.56740  0.24690  Biso   1.000  O
  O41      1.0000 0.00430  0.46730  0.79910  Biso   1.000  O
  O42      1.0000 0.99570  0.53270  0.20090  Biso   1.000  O
  O43      1.0000 0.11410  0.50250  0.63180  Biso   1.000  O
  O44      1.0000 0.88590  0.49750  0.36820  Biso   1.000  O
  O45      1.0000 0.05550  0.49720  0.56920  Biso   1.000  O
  O46      1.0000 0.94450  0.50280  0.43080  Biso   1.000  O
  O47      1.0000 0.59250  0.65700  0.72610  Biso   1.000  O
  O48      1.0000 0.40750  0.34300  0.27390  Biso   1.000  O
  O49      1.0000 0.51860  0.60610  0.74440  Biso   1.000  O
  O50      1.0000 0.48140  0.39390  0.25560  Biso   1.000  O
  O51      1.0000 0.70990  0.50690  0.67450  Biso   1.000  O
  O52      1.0000 0.29010  0.49310  0.32550  Biso   1.000  O
  O53      1.0000 0.75210  0.49050  0.68520  Biso   1.000  O
  O54      1.0000 0.24790  0.50950  0.31480  Biso   1.000  O
  O55      1.0000 0.24410  0.55030  0.78420  Biso   1.000  O
  O56      1.0000 0.75590  0.44970  0.21580  Biso   1.000  O
