data_image0
_cell_length_a       11.1547
_cell_length_b       13.4149
_cell_length_c       15.9633
_cell_angle_alpha    90
_cell_angle_beta     90.816
_cell_angle_gamma    90

_symmetry_space_group_name_H-M    "P 1"
_symmetry_int_tables_number       1

loop_
  _symmetry_equiv_pos_as_xyz
  'x, y, z'

loop_
  _atom_site_label
  _atom_site_occupancy
  _atom_site_fract_x
  _atom_site_fract_y
  _atom_site_fract_z
  _atom_site_thermal_displace_type
  _atom_site_B_iso_or_equiv
  _atom_site_type_symbol
  Cu1      1.0000 0.59563  0.44988  0.27198  Biso   1.000  Cu
  Cu2      1.0000 0.90437  0.94988  0.22802  Biso   1.000  Cu
  Cu3      1.0000 0.40437  0.55012  0.72802  Biso   1.000  Cu
  Cu4      1.0000 0.09563  0.05012  0.77198  Biso   1.000  Cu
  Cu5      1.0000 0.09372  0.24653  0.05869  Biso   1.000  Cu
  Cu6      1.0000 0.40628  0.74653  0.44131  Biso   1.000  Cu
  Cu7      1.0000 0.90628  0.75347  0.94131  Biso   1.000  Cu
  Cu8      1.0000 0.59372  0.25347  0.55869  Biso   1.000  Cu
  N1       1.0000 0.73550  0.41700  0.19850  Biso   1.000  N
  N2       1.0000 0.76450  0.91700  0.30150  Biso   1.000  N
  N3       1.0000 0.26450  0.58300  0.80150  Biso   1.000  N
  N4       1.0000 0.23550  0.08300  0.69850  Biso   1.000  N
  N5       1.0000 0.93130  0.34020  0.11420  Biso   1.000  N
  N6       1.0000 0.56870  0.84020  0.38580  Biso   1.000  N
  N7       1.0000 0.06870  0.65980  0.88580  Biso   1.000  N
  N8       1.0000 0.43130  0.15980  0.61420  Biso   1.000  N
  N9       1.0000 0.23940  0.30980  0.11000  Biso   1.000  N
  N10      1.0000 0.26060  0.80980  0.39000  Biso   1.000  N
  N11      1.0000 0.76060  0.69020  0.89000  Biso   1.000  N
  N12      1.0000 0.73940  0.19020  0.61000  Biso   1.000  N
  N13      1.0000 0.43820  0.37750  0.19810  Biso   1.000  N
  N14      1.0000 0.06180  0.87750  0.30190  Biso   1.000  N
  N15      1.0000 0.56180  0.62250  0.80190  Biso   1.000  N
  N16      1.0000 0.93820  0.12250  0.69810  Biso   1.000  N
  O1       1.0000 0.64400  0.32790  0.32790  Biso   1.000  O
  O2       1.0000 0.85600  0.82790  0.17210  Biso   1.000  O
  O3       1.0000 0.35600  0.67210  0.67210  Biso   1.000  O
  O4       1.0000 0.14400  0.17210  0.82790  Biso   1.000  O
  O5       1.0000 0.78230  0.20930  0.33120  Biso   1.000  O
  O6       1.0000 0.71770  0.70930  0.16880  Biso   1.000  O
  O7       1.0000 0.21770  0.79070  0.66880  Biso   1.000  O
  O8       1.0000 0.28230  0.29070  0.83120  Biso   1.000  O
  O9       1.0000 0.10660  0.16480  0.15860  Biso   1.000  O
  O10      1.0000 0.39340  0.66480  0.34140  Biso   1.000  O
  O11      1.0000 0.89340  0.83520  0.84140  Biso   1.000  O
  O12      1.0000 0.60660  0.33520  0.65860  Biso   1.000  O
  O13      1.0000 0.21260  0.13690  0.27470  Biso   1.000  O
  O14      1.0000 0.28740  0.63690  0.22530  Biso   1.000  O
  O15      1.0000 0.78740  0.86310  0.72530  Biso   1.000  O
  O16      1.0000 0.71260  0.36310  0.77470  Biso   1.000  O
  O17      1.0000 0.50130  0.47840  0.37390  Biso   1.000  O
  O18      1.0000 0.99870  0.97840  0.12610  Biso   1.000  O
  O19      1.0000 0.49870  0.52160  0.62610  Biso   1.000  O
  O20      1.0000 0.00130  0.02160  0.87390  Biso   1.000  O
  H1       1.0000 0.42190  0.47580  0.36480  Biso   1.000  H
  H2       1.0000 0.07810  0.97580  0.13520  Biso   1.000  H
  H3       1.0000 0.57810  0.52420  0.63520  Biso   1.000  H
  H4       1.0000 0.92190  0.02420  0.86480  Biso   1.000  H
  H5       1.0000 0.50330  0.53840  0.39810  Biso   1.000  H
  H6       1.0000 0.99670  0.03840  0.10190  Biso   1.000  H
  H7       1.0000 0.49670  0.46160  0.60190  Biso   1.000  H
  H8       1.0000 0.00330  0.96160  0.89810  Biso   1.000  H
  O21      1.0000 0.55170  0.57300  0.21180  Biso   1.000  O
  O22      1.0000 0.94830  0.07300  0.28820  Biso   1.000  O
  O23      1.0000 0.44830  0.42700  0.78820  Biso   1.000  O
  O24      1.0000 0.05170  0.92700  0.71180  Biso   1.000  O
  H9       1.0000 0.48410  0.60390  0.22410  Biso   1.000  H
  H10      1.0000 0.01590  0.10390  0.27590  Biso   1.000  H
  H11      1.0000 0.51590  0.39610  0.77590  Biso   1.000  H
  H12      1.0000 0.98410  0.89610  0.72410  Biso   1.000  H
  H13      1.0000 0.60050  0.62390  0.20050  Biso   1.000  H
  H14      1.0000 0.89950  0.12390  0.29950  Biso   1.000  H
  H15      1.0000 0.39950  0.37610  0.79950  Biso   1.000  H
  H16      1.0000 0.10050  0.87610  0.70050  Biso   1.000  H
  O25      1.0000 0.97400  0.15070  0.01310  Biso   1.000  O
  O26      1.0000 0.52600  0.65070  0.48690  Biso   1.000  O
  O27      1.0000 0.02600  0.84930  0.98690  Biso   1.000  O
  O28      1.0000 0.47400  0.34930  0.51310  Biso   1.000  O
  H17      1.0000 0.89710  0.16610  0.00320  Biso   1.000  H
  H18      1.0000 0.60290  0.66610  0.49680  Biso   1.000  H
  H19      1.0000 0.10290  0.83390  0.99680  Biso   1.000  H
  H20      1.0000 0.39710  0.33390  0.50320  Biso   1.000  H
  H21      1.0000 0.98920  0.10610  0.97310  Biso   1.000  H
  H22      1.0000 0.51080  0.60610  0.52690  Biso   1.000  H
  H23      1.0000 0.01080  0.89390  0.02690  Biso   1.000  H
  H24      1.0000 0.48920  0.39390  0.47310  Biso   1.000  H
  O29      1.0000 0.10160  0.32710  0.95680  Biso   1.000  O
  O30      1.0000 0.39840  0.82710  0.54320  Biso   1.000  O
  O31      1.0000 0.89840  0.67290  0.04320  Biso   1.000  O
  O32      1.0000 0.60160  0.17290  0.45680  Biso   1.000  O
  H25      1.0000 0.14800  0.30470  0.91580  Biso   1.000  H
  H26      1.0000 0.35200  0.80470  0.58420  Biso   1.000  H
  H27      1.0000 0.85200  0.69530  0.08420  Biso   1.000  H
  H28      1.0000 0.64800  0.19530  0.41580  Biso   1.000  H
  H29      1.0000 0.02880  0.34320  0.93630  Biso   1.000  H
  H30      1.0000 0.47120  0.84320  0.56370  Biso   1.000  H
  H31      1.0000 0.97120  0.65680  0.06370  Biso   1.000  H
  H32      1.0000 0.52880  0.15680  0.43630  Biso   1.000  H
  C1       1.0000 0.77880  0.46260  0.13090  Biso   1.000  C
  C2       1.0000 0.72120  0.96260  0.36910  Biso   1.000  C
  C3       1.0000 0.22120  0.53740  0.86910  Biso   1.000  C
  C4       1.0000 0.27880  0.03740  0.63090  Biso   1.000  C
  H33      1.0000 0.73880  0.51610  0.11040  Biso   1.000  H
  H34      1.0000 0.76120  0.01610  0.38960  Biso   1.000  H
  H35      1.0000 0.26120  0.48390  0.88960  Biso   1.000  H
  H36      1.0000 0.23880  0.98390  0.61040  Biso   1.000  H
  C5       1.0000 0.87470  0.42260  0.08920  Biso   1.000  C
  C6       1.0000 0.62530  0.92260  0.41080  Biso   1.000  C
  C7       1.0000 0.12530  0.57740  0.91080  Biso   1.000  C
  C8       1.0000 0.37470  0.07740  0.58920  Biso   1.000  C
  H37      1.0000 0.90450  0.44760  0.04110  Biso   1.000  H
  H38      1.0000 0.59550  0.94760  0.45890  Biso   1.000  H
  H39      1.0000 0.09550  0.55240  0.95890  Biso   1.000  H
  H40      1.0000 0.40450  0.05240  0.54110  Biso   1.000  H
  C9       1.0000 0.88750  0.29620  0.18230  Biso   1.000  C
  C10      1.0000 0.61250  0.79620  0.31770  Biso   1.000  C
  C11      1.0000 0.11250  0.70380  0.81770  Biso   1.000  C
  C12      1.0000 0.38750  0.20380  0.68230  Biso   1.000  C
  H41      1.0000 0.91950  0.24170  0.19640  Biso   1.000  H
  H42      1.0000 0.58050  0.74170  0.30360  Biso   1.000  H
  H43      1.0000 0.08050  0.75830  0.80360  Biso   1.000  H
  H44      1.0000 0.41950  0.25830  0.69640  Biso   1.000  H
  C13      1.0000 0.79040  0.33360  0.22430  Biso   1.000  C
  C14      1.0000 0.70960  0.83360  0.27570  Biso   1.000  C
  C15      1.0000 0.20960  0.66640  0.77570  Biso   1.000  C
  C16      1.0000 0.29040  0.16640  0.72430  Biso   1.000  C
  C17      1.0000 0.73710  0.28520  0.30000  Biso   1.000  C
  C18      1.0000 0.76290  0.78520  0.20000  Biso   1.000  C
  C19      1.0000 0.26290  0.71480  0.70000  Biso   1.000  C
  C20      1.0000 0.23710  0.21480  0.80000  Biso   1.000  C
  C21      1.0000 0.30280  0.38630  0.08240  Biso   1.000  C
  C22      1.0000 0.19720  0.88630  0.41760  Biso   1.000  C
  C23      1.0000 0.69720  0.61370  0.91760  Biso   1.000  C
  C24      1.0000 0.80280  0.11370  0.58240  Biso   1.000  C
  H45      1.0000 0.28580  0.41820  0.03410  Biso   1.000  H
  H46      1.0000 0.21420  0.91820  0.46590  Biso   1.000  H
  H47      1.0000 0.71420  0.58180  0.96590  Biso   1.000  H
  H48      1.0000 0.78580  0.08180  0.53410  Biso   1.000  H
  C25      1.0000 0.40140  0.42030  0.12750  Biso   1.000  C
  C26      1.0000 0.09860  0.92030  0.37250  Biso   1.000  C
  C27      1.0000 0.59860  0.57970  0.87250  Biso   1.000  C
  C28      1.0000 0.90140  0.07970  0.62750  Biso   1.000  C
  H49      1.0000 0.44680  0.47210  0.10680  Biso   1.000  H
  H50      1.0000 0.05320  0.97210  0.39320  Biso   1.000  H
  H51      1.0000 0.55320  0.52790  0.89320  Biso   1.000  H
  H52      1.0000 0.94680  0.02790  0.60680  Biso   1.000  H
  C29      1.0000 0.37430  0.29950  0.22480  Biso   1.000  C
  C30      1.0000 0.12570  0.79950  0.27520  Biso   1.000  C
  C31      1.0000 0.62570  0.70050  0.77520  Biso   1.000  C
  C32      1.0000 0.87430  0.20050  0.72480  Biso   1.000  C
  H53      1.0000 0.39680  0.27030  0.27910  Biso   1.000  H
  H54      1.0000 0.10320  0.77030  0.22090  Biso   1.000  H
  H55      1.0000 0.60320  0.72970  0.72090  Biso   1.000  H
  H56      1.0000 0.89680  0.22970  0.77910  Biso   1.000  H
  C33      1.0000 0.27510  0.26550  0.18160  Biso   1.000  C
  C34      1.0000 0.22490  0.76550  0.31840  Biso   1.000  C
  C35      1.0000 0.72490  0.73450  0.81840  Biso   1.000  C
  C36      1.0000 0.77510  0.23450  0.68160  Biso   1.000  C
  C37      1.0000 0.19480  0.18180  0.20920  Biso   1.000  C
  C38      1.0000 0.30520  0.68180  0.29080  Biso   1.000  C
  C39      1.0000 0.80520  0.81820  0.79080  Biso   1.000  C
  C40      1.0000 0.69480  0.31820  0.70920  Biso   1.000  C
  Mo1      1.0000 0.12201  0.58586  0.50502  Biso   1.000  Mo
  Mo2      1.0000 0.37799  0.08586  0.99498  Biso   1.000  Mo
  Mo3      1.0000 0.87799  0.41414  0.49498  Biso   1.000  Mo
  Mo4      1.0000 0.62201  0.91414  0.00502  Biso   1.000  Mo
  Mo5      1.0000 0.11435  0.42958  0.35177  Biso   1.000  Mo
  Mo6      1.0000 0.38565  0.92958  0.14823  Biso   1.000  Mo
  Mo7      1.0000 0.88565  0.57042  0.64823  Biso   1.000  Mo
  Mo8      1.0000 0.61435  0.07042  0.85177  Biso   1.000  Mo
  Mo9      1.0000 0.11313  0.24642  0.48553  Biso   1.000  Mo
  Mo10     1.0000 0.38687  0.74642  0.01447  Biso   1.000  Mo
  Mo11     1.0000 0.88687  0.75358  0.51447  Biso   1.000  Mo
  Mo12     1.0000 0.61313  0.25358  0.98553  Biso   1.000  Mo
  Mo13     1.0000 0.11847  0.40843  0.63990  Biso   1.000  Mo
  Mo14     1.0000 0.38153  0.90843  0.86010  Biso   1.000  Mo
  Mo15     1.0000 0.88153  0.59157  0.36010  Biso   1.000  Mo
  Mo16     1.0000 0.61847  0.09157  0.13990  Biso   1.000  Mo
  O33      1.0000 0.09100  0.43090  0.49780  Biso   1.000  O
  O34      1.0000 0.40900  0.93090  0.00220  Biso   1.000  O
  O35      1.0000 0.90900  0.56910  0.50220  Biso   1.000  O
  O36      1.0000 0.59100  0.06910  0.99780  Biso   1.000  O
  O37      1.0000 0.08510  0.57020  0.38600  Biso   1.000  O
  O38      1.0000 0.41490  0.07020  0.11400  Biso   1.000  O
  O39      1.0000 0.91490  0.42980  0.61400  Biso   1.000  O
  O40      1.0000 0.58510  0.92980  0.88600  Biso   1.000  O
  O41      1.0000 0.08130  0.29440  0.37420  Biso   1.000  O
  O42      1.0000 0.41870  0.79440  0.12580  Biso   1.000  O
  O43      1.0000 0.91870  0.70560  0.62580  Biso   1.000  O
  O44      1.0000 0.58130  0.20560  0.87420  Biso   1.000  O
  O45      1.0000 0.09510  0.27570  0.60260  Biso   1.000  O
  O46      1.0000 0.40490  0.77570  0.89740  Biso   1.000  O
  O47      1.0000 0.90490  0.72430  0.39740  Biso   1.000  O
  O48      1.0000 0.59510  0.22430  0.10260  Biso   1.000  O
  O49      1.0000 0.08840  0.55430  0.62130  Biso   1.000  O
  O50      1.0000 0.41160  0.05430  0.87870  Biso   1.000  O
  O51      1.0000 0.91160  0.44570  0.37870  Biso   1.000  O
  O52      1.0000 0.58840  0.94570  0.12130  Biso   1.000  O
  O53      1.0000 0.27340  0.58920  0.50340  Biso   1.000  O
  O54      1.0000 0.22660  0.08920  0.99660  Biso   1.000  O
  O55      1.0000 0.72660  0.41080  0.49660  Biso   1.000  O
  O56      1.0000 0.77340  0.91080  0.00340  Biso   1.000  O
  O57      1.0000 0.07960  0.71130  0.50900  Biso   1.000  O
  O58      1.0000 0.42040  0.21130  0.99100  Biso   1.000  O
  O59      1.0000 0.92040  0.28870  0.49100  Biso   1.000  O
  O60      1.0000 0.57960  0.78870  0.00900  Biso   1.000  O
  O61      1.0000 0.08600  0.43640  0.24710  Biso   1.000  O
  O62      1.0000 0.41400  0.93640  0.25290  Biso   1.000  O
  O63      1.0000 0.91400  0.56360  0.75290  Biso   1.000  O
  O64      1.0000 0.58600  0.06360  0.74710  Biso   1.000  O
  O65      1.0000 0.26650  0.43180  0.36120  Biso   1.000  O
  O66      1.0000 0.23350  0.93180  0.13880  Biso   1.000  O
  O67      1.0000 0.73350  0.56820  0.63880  Biso   1.000  O
  O68      1.0000 0.76650  0.06820  0.86120  Biso   1.000  O
  O69      1.0000 0.08360  0.12260  0.48080  Biso   1.000  O
  O70      1.0000 0.41640  0.62260  0.01920  Biso   1.000  O
  O71      1.0000 0.91640  0.87740  0.51920  Biso   1.000  O
  O72      1.0000 0.58360  0.37740  0.98080  Biso   1.000  O
  O73      1.0000 0.26610  0.25440  0.48280  Biso   1.000  O
  O74      1.0000 0.23390  0.75440  0.01720  Biso   1.000  O
  O75      1.0000 0.73390  0.74560  0.51720  Biso   1.000  O
  O76      1.0000 0.76610  0.24560  0.98280  Biso   1.000  O
  O77      1.0000 0.27080  0.41890  0.63990  Biso   1.000  O
  O78      1.0000 0.22920  0.91890  0.86010  Biso   1.000  O
  O79      1.0000 0.72920  0.58110  0.36010  Biso   1.000  O
  O80      1.0000 0.77080  0.08110  0.13990  Biso   1.000  O
  O81      1.0000 0.08360  0.39910  0.74270  Biso   1.000  O
  O82      1.0000 0.41640  0.89910  0.75730  Biso   1.000  O
  O83      1.0000 0.91640  0.60090  0.25730  Biso   1.000  O
  O84      1.0000 0.58360  0.10090  0.24270  Biso   1.000  O
  O85      1.0000 0.40850  0.08940  0.38830  Biso   1.000  O
  O86      1.0000 0.09150  0.58940  0.11170  Biso   1.000  O
  O87      1.0000 0.59150  0.91060  0.61170  Biso   1.000  O
  O88      1.0000 0.90850  0.41060  0.88830  Biso   1.000  O
  H57      1.0000 0.42490  0.06110  0.33930  Biso   1.000  H
  H58      1.0000 0.07510  0.56110  0.16070  Biso   1.000  H
  H59      1.0000 0.57510  0.93890  0.66070  Biso   1.000  H
  H60      1.0000 0.92490  0.43890  0.83930  Biso   1.000  H
  H61      1.0000 0.34040  0.12420  0.38590  Biso   1.000  H
  H62      1.0000 0.15960  0.62420  0.11410  Biso   1.000  H
  H63      1.0000 0.65960  0.87580  0.61410  Biso   1.000  H
  H64      1.0000 0.84040  0.37580  0.88590  Biso   1.000  H
