data_image0
_cell_length_a       7.8769
_cell_length_b       18.0103
_cell_length_c       11.5651
_cell_angle_alpha    90
_cell_angle_beta     98.881
_cell_angle_gamma    90

_symmetry_space_group_name_H-M    "P 1"
_symmetry_int_tables_number       1

loop_
  _symmetry_equiv_pos_as_xyz
  'x, y, z'

loop_
  _atom_site_label
  _atom_site_occupancy
  _atom_site_fract_x
  _atom_site_fract_y
  _atom_site_fract_z
  _atom_site_thermal_displace_type
  _atom_site_B_iso_or_equiv
  _atom_site_type_symbol
  Cu1      1.0000 0.87526  0.13626  0.76799  Biso   1.000  Cu
  Cu2      1.0000 0.62474  0.63626  0.73201  Biso   1.000  Cu
  Cu3      1.0000 0.12474  0.86374  0.23201  Biso   1.000  Cu
  Cu4      1.0000 0.37526  0.36374  0.26799  Biso   1.000  Cu
  O1       1.0000 0.12230  0.10433  0.79350  Biso   1.000  O
  O2       1.0000 0.37770  0.60433  0.70650  Biso   1.000  O
  O3       1.0000 0.87770  0.89567  0.20650  Biso   1.000  O
  O4       1.0000 0.62230  0.39567  0.29350  Biso   1.000  O
  O5       1.0000 0.18980  0.21990  0.81930  Biso   1.000  O
  O6       1.0000 0.31020  0.71990  0.68070  Biso   1.000  O
  O7       1.0000 0.81020  0.78010  0.18070  Biso   1.000  O
  O8       1.0000 0.68980  0.28010  0.31930  Biso   1.000  O
  O9       1.0000 0.38250  0.13480  0.85250  Biso   1.000  O
  O10      1.0000 0.11750  0.63480  0.64750  Biso   1.000  O
  O11      1.0000 0.61750  0.86520  0.14750  Biso   1.000  O
  O12      1.0000 0.88250  0.36520  0.35250  Biso   1.000  O
  N1       1.0000 0.85940  0.10167  0.60060  Biso   1.000  N
  N2       1.0000 0.64060  0.60167  0.89940  Biso   1.000  N
  N3       1.0000 0.14060  0.89833  0.39940  Biso   1.000  N
  N4       1.0000 0.35940  0.39833  0.10060  Biso   1.000  N
  N5       1.0000 0.76100  0.02447  0.78120  Biso   1.000  N
  N6       1.0000 0.73900  0.52447  0.71880  Biso   1.000  N
  N7       1.0000 0.23900  0.97553  0.21880  Biso   1.000  N
  N8       1.0000 0.26100  0.47553  0.28120  Biso   1.000  N
  N9       1.0000 0.89760  0.17270  0.92980  Biso   1.000  N
  N10      1.0000 0.60240  0.67270  0.57020  Biso   1.000  N
  N11      1.0000 0.10240  0.82730  0.07020  Biso   1.000  N
  N12      1.0000 0.39760  0.32730  0.42980  Biso   1.000  N
  N13      1.0000 0.95840  0.20890  0.13400  Biso   1.000  N
  N14      1.0000 0.54160  0.70890  0.36600  Biso   1.000  N
  N15      1.0000 0.04160  0.79110  0.86600  Biso   1.000  N
  N16      1.0000 0.45840  0.29110  0.63400  Biso   1.000  N
  N17      1.0000 0.18430  0.29370  0.21820  Biso   1.000  N
  N18      1.0000 0.31570  0.79370  0.28180  Biso   1.000  N
  N19      1.0000 0.81570  0.70630  0.78180  Biso   1.000  N
  N20      1.0000 0.68430  0.20630  0.71820  Biso   1.000  N
  N21      1.0000 0.22970  0.15320  0.82160  Biso   1.000  N
  N22      1.0000 0.27030  0.65320  0.67840  Biso   1.000  N
  N23      1.0000 0.77030  0.84680  0.17840  Biso   1.000  N
  N24      1.0000 0.72970  0.34680  0.32160  Biso   1.000  N
  C1       1.0000 0.90780  0.14140  0.51360  Biso   1.000  C
  C2       1.0000 0.59220  0.64140  0.98640  Biso   1.000  C
  C3       1.0000 0.09220  0.85860  0.48640  Biso   1.000  C
  C4       1.0000 0.40780  0.35860  0.01360  Biso   1.000  C
  C5       1.0000 0.88140  0.11330  0.39880  Biso   1.000  C
  C6       1.0000 0.61860  0.61330  0.10120  Biso   1.000  C
  C7       1.0000 0.11860  0.88670  0.60120  Biso   1.000  C
  C8       1.0000 0.38140  0.38670  0.89880  Biso   1.000  C
  H1       1.0000 0.91520  0.14140  0.33890  Biso   1.000  H
  H2       1.0000 0.58480  0.64140  0.16110  Biso   1.000  H
  H3       1.0000 0.08480  0.85860  0.66110  Biso   1.000  H
  H4       1.0000 0.41520  0.35860  0.83890  Biso   1.000  H
  C9       1.0000 0.80740  0.04620  0.37410  Biso   1.000  C
  C10      1.0000 0.69260  0.54620  0.12590  Biso   1.000  C
  C11      1.0000 0.19260  0.95380  0.62590  Biso   1.000  C
  C12      1.0000 0.30740  0.45380  0.87410  Biso   1.000  C
  H5       1.0000 0.79170  0.02810  0.29790  Biso   1.000  H
  H6       1.0000 0.70830  0.52810  0.20210  Biso   1.000  H
  H7       1.0000 0.20830  0.97190  0.70210  Biso   1.000  H
  H8       1.0000 0.29170  0.47190  0.79790  Biso   1.000  H
  C13      1.0000 0.75480  0.00420  0.46420  Biso   1.000  C
  C14      1.0000 0.74520  0.50420  0.03580  Biso   1.000  C
  C15      1.0000 0.24520  0.99580  0.53580  Biso   1.000  C
  C16      1.0000 0.25480  0.49580  0.96420  Biso   1.000  C
  C17      1.0000 0.67120  0.93360  0.44630  Biso   1.000  C
  C18      1.0000 0.82880  0.43360  0.05370  Biso   1.000  C
  C19      1.0000 0.32880  0.06640  0.55370  Biso   1.000  C
  C20      1.0000 0.17120  0.56640  0.94630  Biso   1.000  C
  H9       1.0000 0.64990  0.91380  0.37120  Biso   1.000  H
  H10      1.0000 0.85010  0.41380  0.12880  Biso   1.000  H
  H11      1.0000 0.35010  0.08620  0.62880  Biso   1.000  H
  H12      1.0000 0.14990  0.58620  0.87120  Biso   1.000  H
  C21      1.0000 0.62320  0.89560  0.53490  Biso   1.000  C
  C22      1.0000 0.87680  0.39560  0.96510  Biso   1.000  C
  C23      1.0000 0.37680  0.10440  0.46510  Biso   1.000  C
  C24      1.0000 0.12320  0.60440  0.03490  Biso   1.000  C
  H13      1.0000 0.56860  0.85000  0.52000  Biso   1.000  H
  H14      1.0000 0.93140  0.35000  0.98000  Biso   1.000  H
  H15      1.0000 0.43140  0.15000  0.48000  Biso   1.000  H
  H16      1.0000 0.06860  0.65000  0.02000  Biso   1.000  H
  C25      1.0000 0.65380  0.92330  0.65170  Biso   1.000  C
  C26      1.0000 0.84620  0.42330  0.84830  Biso   1.000  C
  C27      1.0000 0.34620  0.07670  0.34830  Biso   1.000  C
  C28      1.0000 0.15380  0.57670  0.15170  Biso   1.000  C
  C29      1.0000 0.60490  0.88580  0.74720  Biso   1.000  C
  C30      1.0000 0.89510  0.38580  0.75280  Biso   1.000  C
  C31      1.0000 0.39510  0.11420  0.25280  Biso   1.000  C
  C32      1.0000 0.10490  0.61420  0.24720  Biso   1.000  C
  H17      1.0000 0.55250  0.83950  0.73680  Biso   1.000  H
  H18      1.0000 0.94750  0.33950  0.76320  Biso   1.000  H
  H19      1.0000 0.44750  0.16050  0.26320  Biso   1.000  H
  H20      1.0000 0.05250  0.66050  0.23680  Biso   1.000  H
  C33      1.0000 0.63410  0.91700  0.85460  Biso   1.000  C
  C34      1.0000 0.86590  0.41700  0.64540  Biso   1.000  C
  C35      1.0000 0.36590  0.08300  0.14540  Biso   1.000  C
  C36      1.0000 0.13410  0.58300  0.35460  Biso   1.000  C
  H21      1.0000 0.60250  0.89190  0.91830  Biso   1.000  H
  H22      1.0000 0.89750  0.39190  0.58170  Biso   1.000  H
  H23      1.0000 0.39750  0.10810  0.08170  Biso   1.000  H
  H24      1.0000 0.10250  0.60810  0.41830  Biso   1.000  H
  C37      1.0000 0.71160  0.98700  0.87060  Biso   1.000  C
  C38      1.0000 0.78840  0.48700  0.62940  Biso   1.000  C
  C39      1.0000 0.28840  0.01300  0.12940  Biso   1.000  C
  C40      1.0000 0.21160  0.51300  0.37060  Biso   1.000  C
  C41      1.0000 0.73280  0.99330  0.67320  Biso   1.000  C
  C42      1.0000 0.76720  0.49330  0.82680  Biso   1.000  C
  C43      1.0000 0.26720  0.00670  0.32680  Biso   1.000  C
  C44      1.0000 0.23280  0.50670  0.17320  Biso   1.000  C
  C45      1.0000 0.78520  0.03410  0.57730  Biso   1.000  C
  C46      1.0000 0.71480  0.53410  0.92270  Biso   1.000  C
  C47      1.0000 0.21480  0.96590  0.42270  Biso   1.000  C
  C48      1.0000 0.28520  0.46590  0.07730  Biso   1.000  C
  C49      1.0000 0.98940  0.21530  0.54030  Biso   1.000  C
  C50      1.0000 0.51060  0.71530  0.95970  Biso   1.000  C
  C51      1.0000 0.01060  0.78470  0.45970  Biso   1.000  C
  C52      1.0000 0.48940  0.28470  0.04030  Biso   1.000  C
  H25      1.0000 0.90860  0.24820  0.56800  Biso   1.000  H
  H26      1.0000 0.59140  0.74820  0.93200  Biso   1.000  H
  H27      1.0000 0.09140  0.75180  0.43200  Biso   1.000  H
  H28      1.0000 0.40860  0.25180  0.06800  Biso   1.000  H
  H29      1.0000 0.02380  0.23550  0.47070  Biso   1.000  H
  H30      1.0000 0.47620  0.73550  0.02930  Biso   1.000  H
  H31      1.0000 0.97620  0.76450  0.52930  Biso   1.000  H
  H32      1.0000 0.52380  0.26450  0.97070  Biso   1.000  H
  H33      1.0000 0.08850  0.20990  0.59950  Biso   1.000  H
  H34      1.0000 0.41150  0.70990  0.90050  Biso   1.000  H
  H35      1.0000 0.91150  0.79010  0.40050  Biso   1.000  H
  H36      1.0000 0.58850  0.29010  0.09950  Biso   1.000  H
  C53      1.0000 0.73920  0.02210  0.98960  Biso   1.000  C
  C54      1.0000 0.76080  0.52210  0.51040  Biso   1.000  C
  C55      1.0000 0.26080  0.97790  0.01040  Biso   1.000  C
  C56      1.0000 0.23920  0.47790  0.48960  Biso   1.000  C
  H37      1.0000 0.85940  0.03170  0.01310  Biso   1.000  H
  H38      1.0000 0.64060  0.53170  0.48690  Biso   1.000  H
  H39      1.0000 0.14060  0.96830  0.98690  Biso   1.000  H
  H40      1.0000 0.35940  0.46830  0.51310  Biso   1.000  H
  H41      1.0000 0.69930  0.98900  0.04480  Biso   1.000  H
  H42      1.0000 0.80070  0.48900  0.45520  Biso   1.000  H
  H43      1.0000 0.30070  0.01100  0.95520  Biso   1.000  H
  H44      1.0000 0.19930  0.51100  0.54480  Biso   1.000  H
  H45      1.0000 0.67650  0.06790  0.98710  Biso   1.000  H
  H46      1.0000 0.82350  0.56790  0.51290  Biso   1.000  H
  H47      1.0000 0.32350  0.93210  0.01290  Biso   1.000  H
  H48      1.0000 0.17650  0.43210  0.48710  Biso   1.000  H
  C57      1.0000 0.93300  0.19190  0.02340  Biso   1.000  C
  C58      1.0000 0.56700  0.69190  0.47660  Biso   1.000  C
  C59      1.0000 0.06700  0.80810  0.97660  Biso   1.000  C
  C60      1.0000 0.43300  0.30810  0.52340  Biso   1.000  C
  C61      1.0000 0.08070  0.25450  0.17460  Biso   1.000  C
  C62      1.0000 0.41930  0.75450  0.32540  Biso   1.000  C
  C63      1.0000 0.91930  0.74550  0.82540  Biso   1.000  C
  C64      1.0000 0.58070  0.24550  0.67460  Biso   1.000  C
