data_image0
_cell_length_a       10.983
_cell_length_b       13.875
_cell_length_c       12.709
_cell_angle_alpha    90
_cell_angle_beta     97.823
_cell_angle_gamma    90

_symmetry_space_group_name_H-M    "P 1"
_symmetry_int_tables_number       1

loop_
  _symmetry_equiv_pos_as_xyz
  'x, y, z'

loop_
  _atom_site_label
  _atom_site_occupancy
  _atom_site_fract_x
  _atom_site_fract_y
  _atom_site_fract_z
  _atom_site_thermal_displace_type
  _atom_site_B_iso_or_equiv
  _atom_site_type_symbol
  Cu1      1.0000 0.48426  0.70995  0.96428  Biso   1.000  Cu
  Cu2      1.0000 0.98426  0.29005  0.46428  Biso   1.000  Cu
  N1       1.0000 0.54990  0.70960  0.12350  Biso   1.000  N
  N2       1.0000 0.04990  0.29040  0.62350  Biso   1.000  N
  N3       1.0000 0.57230  0.58670  0.97670  Biso   1.000  N
  N4       1.0000 0.07230  0.41330  0.47670  Biso   1.000  N
  N5       1.0000 0.59820  0.51890  0.90430  Biso   1.000  N
  N6       1.0000 0.09820  0.48110  0.40430  Biso   1.000  N
  N7       1.0000 0.67550  0.47170  0.06630  Biso   1.000  N
  N8       1.0000 0.17550  0.52830  0.56630  Biso   1.000  N
  N9       1.0000 0.88010  0.32890  0.32350  Biso   1.000  N
  N10      1.0000 0.38010  0.67110  0.82350  Biso   1.000  N
  C1       1.0000 0.53680  0.78170  0.19220  Biso   1.000  C
  C2       1.0000 0.03680  0.21830  0.69220  Biso   1.000  C
  H1       1.0000 0.49650  0.83920  0.16590  Biso   1.000  H
  H2       1.0000 0.99650  0.16080  0.66590  Biso   1.000  H
  C3       1.0000 0.57960  0.77530  0.29860  Biso   1.000  C
  C4       1.0000 0.07960  0.22470  0.79860  Biso   1.000  C
  H3       1.0000 0.56910  0.82730  0.34520  Biso   1.000  H
  H4       1.0000 0.06910  0.17270  0.84520  Biso   1.000  H
  C5       1.0000 0.63860  0.69120  0.33700  Biso   1.000  C
  C6       1.0000 0.13860  0.30880  0.83700  Biso   1.000  C
  H5       1.0000 0.66810  0.68450  0.41050  Biso   1.000  H
  H6       1.0000 0.16810  0.31550  0.91050  Biso   1.000  H
  C7       1.0000 0.65410  0.61620  0.26550  Biso   1.000  C
  C8       1.0000 0.15410  0.38380  0.76550  Biso   1.000  C
  H7       1.0000 0.69520  0.55850  0.28990  Biso   1.000  H
  H8       1.0000 0.19520  0.44150  0.78990  Biso   1.000  H
  C9       1.0000 0.60940  0.62720  0.16100  Biso   1.000  C
  C10      1.0000 0.10940  0.37280  0.66100  Biso   1.000  C
  C11      1.0000 0.62010  0.55960  0.07250  Biso   1.000  C
  C12      1.0000 0.12010  0.44040  0.57250  Biso   1.000  C
  C13      1.0000 0.66150  0.45020  0.95860  Biso   1.000  C
  C14      1.0000 0.16150  0.54980  0.45860  Biso   1.000  C
  C15      1.0000 0.70380  0.36410  0.90510  Biso   1.000  C
  C16      1.0000 0.20380  0.63590  0.40510  Biso   1.000  C
  C17      1.0000 0.71550  0.27300  0.95480  Biso   1.000  C
  C18      1.0000 0.21550  0.72700  0.45480  Biso   1.000  C
  H9       1.0000 0.70340  0.26540  0.02700  Biso   1.000  H
  H10      1.0000 0.20340  0.73460  0.52700  Biso   1.000  H
  C19      1.0000 0.74590  0.19310  0.89400  Biso   1.000  C
  C20      1.0000 0.24590  0.80690  0.39400  Biso   1.000  C
  H11      1.0000 0.75640  0.13120  0.92600  Biso   1.000  H
  H12      1.0000 0.25640  0.86880  0.42600  Biso   1.000  H
  C21      1.0000 0.76050  0.20440  0.78870  Biso   1.000  C
  C22      1.0000 0.26050  0.79560  0.28870  Biso   1.000  C
  H13      1.0000 0.77760  0.14970  0.74810  Biso   1.000  H
  H14      1.0000 0.27760  0.85030  0.24810  Biso   1.000  H
  C23      1.0000 0.75040  0.29510  0.74080  Biso   1.000  C
  C24      1.0000 0.25040  0.70490  0.24080  Biso   1.000  C
  H15      1.0000 0.76260  0.30270  0.66870  Biso   1.000  H
  H16      1.0000 0.26260  0.69730  0.16870  Biso   1.000  H
  C25      1.0000 0.72230  0.37420  0.80040  Biso   1.000  C
  C26      1.0000 0.22230  0.62580  0.30040  Biso   1.000  C
  H17      1.0000 0.71570  0.43620  0.76840  Biso   1.000  H
  H18      1.0000 0.21570  0.56380  0.26840  Biso   1.000  H
  C27      1.0000 0.75770  0.32970  0.31330  Biso   1.000  C
  C28      1.0000 0.25770  0.67030  0.81330  Biso   1.000  C
  H19      1.0000 0.71810  0.29960  0.36660  Biso   1.000  H
  H20      1.0000 0.21810  0.70040  0.86660  Biso   1.000  H
  C29      1.0000 0.68500  0.37350  0.22700  Biso   1.000  C
  C30      1.0000 0.18500  0.62650  0.72700  Biso   1.000  C
  H21      1.0000 0.59780  0.37220  0.22020  Biso   1.000  H
  H22      1.0000 0.09780  0.62780  0.72020  Biso   1.000  H
  C31      1.0000 0.74550  0.41840  0.15260  Biso   1.000  C
  C32      1.0000 0.24550  0.58160  0.65260  Biso   1.000  C
  C33      1.0000 0.87210  0.41490  0.15810  Biso   1.000  C
  C34      1.0000 0.37210  0.58510  0.65810  Biso   1.000  C
  H23      1.0000 0.91340  0.44300  0.10470  Biso   1.000  H
  H24      1.0000 0.41340  0.55700  0.60470  Biso   1.000  H
  C35      1.0000 0.93630  0.36820  0.24570  Biso   1.000  C
  C36      1.0000 0.43630  0.63180  0.74570  Biso   1.000  C
  H25      1.0000 0.02320  0.36380  0.25090  Biso   1.000  H
  H26      1.0000 0.52320  0.63620  0.75090  Biso   1.000  H
  N11      1.0000 0.61600  0.80200  0.89100  Biso   1.000  N
  N12      1.0000 0.11600  0.19800  0.39100  Biso   1.000  N
  N13      1.0000 0.40730  0.84060  0.96510  Biso   1.000  N
  N14      1.0000 0.90730  0.15940  0.46510  Biso   1.000  N
  N15      1.0000 0.30580  0.87490  0.00540  Biso   1.000  N
  N16      1.0000 0.80580  0.12510  0.50540  Biso   1.000  N
  N17      1.0000 0.38800  0.99330  0.91900  Biso   1.000  N
  N18      1.0000 0.88800  0.00670  0.41900  Biso   1.000  N
  N19      1.0000 0.38980  0.23610  0.71600  Biso   1.000  N
  N20      1.0000 0.88980  0.76390  0.21600  Biso   1.000  N
  C37      1.0000 0.72580  0.77800  0.86500  Biso   1.000  C
  C38      1.0000 0.22580  0.22200  0.36500  Biso   1.000  C
  H27      1.0000 0.75360  0.71360  0.87680  Biso   1.000  H
  H28      1.0000 0.25360  0.28640  0.37680  Biso   1.000  H
  C39      1.0000 0.80110  0.84300  0.82140  Biso   1.000  C
  C40      1.0000 0.30110  0.15700  0.32140  Biso   1.000  C
  H29      1.0000 0.87950  0.82400  0.80520  Biso   1.000  H
  H30      1.0000 0.37950  0.17600  0.30520  Biso   1.000  H
  C41      1.0000 0.75890  0.93670  0.80210  Biso   1.000  C
  C42      1.0000 0.25890  0.06330  0.30210  Biso   1.000  C
  H31      1.0000 0.80840  0.98230  0.77170  Biso   1.000  H
  H32      1.0000 0.30840  0.01770  0.27170  Biso   1.000  H
  C43      1.0000 0.64430  0.96370  0.82740  Biso   1.000  C
  C44      1.0000 0.14430  0.03630  0.32740  Biso   1.000  C
  H33      1.0000 0.61410  0.02730  0.81410  Biso   1.000  H
  H34      1.0000 0.11410  0.97270  0.31410  Biso   1.000  H
  C45      1.0000 0.57510  0.89460  0.87280  Biso   1.000  C
  C46      1.0000 0.07510  0.10540  0.37280  Biso   1.000  C
  C47      1.0000 0.45790  0.91060  0.91440  Biso   1.000  C
  C48      1.0000 0.95790  0.08940  0.41440  Biso   1.000  C
  C49      1.0000 0.29470  0.96730  0.97720  Biso   1.000  C
  C50      1.0000 0.79470  0.03270  0.47720  Biso   1.000  C
  C51      1.0000 0.19490  0.02950  0.00520  Biso   1.000  C
  C52      1.0000 0.69490  0.97050  0.50520  Biso   1.000  C
  C53      1.0000 0.21670  0.12300  0.04650  Biso   1.000  C
  C54      1.0000 0.71670  0.87700  0.54650  Biso   1.000  C
  H35      1.0000 0.29680  0.14990  0.05240  Biso   1.000  H
  H36      1.0000 0.79680  0.85010  0.55240  Biso   1.000  H
  C55      1.0000 0.12000  0.17620  0.07890  Biso   1.000  C
  C56      1.0000 0.62000  0.82380  0.57890  Biso   1.000  C
  H37      1.0000 0.13510  0.23920  0.10690  Biso   1.000  H
  H38      1.0000 0.63510  0.76080  0.60690  Biso   1.000  H
  C57      1.0000 0.00380  0.13830  0.07070  Biso   1.000  C
  C58      1.0000 0.50380  0.86170  0.57070  Biso   1.000  C
  H39      1.0000 0.93860  0.17510  0.09230  Biso   1.000  H
  H40      1.0000 0.43860  0.82490  0.59230  Biso   1.000  H
  C59      1.0000 0.98150  0.04420  0.02980  Biso   1.000  C
  C60      1.0000 0.48150  0.95580  0.52980  Biso   1.000  C
  H41      1.0000 0.90120  0.01750  0.02450  Biso   1.000  H
  H42      1.0000 0.40120  0.98250  0.52450  Biso   1.000  H
  C61      1.0000 0.07640  0.99060  0.99720  Biso   1.000  C
  C62      1.0000 0.57640  0.00940  0.49720  Biso   1.000  C
  H43      1.0000 0.06100  0.92750  0.96960  Biso   1.000  H
  H44      1.0000 0.56100  0.07250  0.46960  Biso   1.000  H
  C63      1.0000 0.35320  0.14730  0.67860  Biso   1.000  C
  C64      1.0000 0.85320  0.85270  0.17860  Biso   1.000  C
  H45      1.0000 0.32590  0.14030  0.60480  Biso   1.000  H
  H46      1.0000 0.82590  0.85970  0.10480  Biso   1.000  H
  C65      1.0000 0.35380  0.06600  0.74350  Biso   1.000  C
  C66      1.0000 0.85380  0.93400  0.24350  Biso   1.000  C
  H47      1.0000 0.32880  0.00490  0.71470  Biso   1.000  H
  H48      1.0000 0.82880  0.99510  0.21470  Biso   1.000  H
  C67      1.0000 0.39170  0.07740  0.85090  Biso   1.000  C
  C68      1.0000 0.89170  0.92260  0.35090  Biso   1.000  C
  C69      1.0000 0.43060  0.16720  0.89180  Biso   1.000  C
  C70      1.0000 0.93060  0.83280  0.39180  Biso   1.000  C
  H49      1.0000 0.45910  0.17600  0.96520  Biso   1.000  H
  H50      1.0000 0.95910  0.82400  0.46520  Biso   1.000  H
  C71      1.0000 0.42560  0.24420  0.81920  Biso   1.000  C
  C72      1.0000 0.92560  0.75580  0.31920  Biso   1.000  C
  H51      1.0000 0.44950  0.30620  0.84620  Biso   1.000  H
  H52      1.0000 0.94950  0.69380  0.34620  Biso   1.000  H
  Cl1      1.0000 0.09140  0.90690  0.67544  Biso   1.000  Cl
  Cl2      1.0000 0.59140  0.09310  0.17544  Biso   1.000  Cl
  O1       1.0000 0.01950  0.82090  0.64990  Biso   1.000  O
  O2       1.0000 0.51950  0.17910  0.14990  Biso   1.000  O
  O3       1.0000 0.14850  0.93850  0.58880  Biso   1.000  O
  O4       1.0000 0.64850  0.06150  0.08880  Biso   1.000  O
  O5       1.0000 0.00870  0.98250  0.69610  Biso   1.000  O
  O6       1.0000 0.50870  0.01750  0.19610  Biso   1.000  O
  O7       1.0000 0.17390  0.89120  0.76550  Biso   1.000  O
  O8       1.0000 0.67390  0.10880  0.26550  Biso   1.000  O
  Cl3      1.0000 0.31657  0.45704  0.07244  Biso   1.000  Cl
  Cl4      1.0000 0.81657  0.54296  0.57244  Biso   1.000  Cl
  O9       1.0000 0.36620  0.39450  0.00390  Biso   1.000  O
  O10      1.0000 0.86620  0.60550  0.50390  Biso   1.000  O
  O11      1.0000 0.40250  0.47320  0.16300  Biso   1.000  O
  O12      1.0000 0.90250  0.52680  0.66300  Biso   1.000  O
  O13      1.0000 0.20330  0.42200  0.10230  Biso   1.000  O
  O14      1.0000 0.70330  0.57800  0.60230  Biso   1.000  O
  O15      1.0000 0.29430  0.55010  0.02190  Biso   1.000  O
  O16      1.0000 0.79430  0.44990  0.52190  Biso   1.000  O
  O17      1.0000 0.36880  0.36996  0.54750  Biso   1.000  O
  O18      1.0000 0.86880  0.63004  0.04750  Biso   1.000  O
  H53      1.0000 0.37220  0.33400  0.60100  Biso   1.000  H
  H54      1.0000 0.87220  0.66600  0.10100  Biso   1.000  H
  C73      1.0000 0.48730  0.37850  0.51650  Biso   1.000  C
  C74      1.0000 0.98730  0.62150  0.01650  Biso   1.000  C
  H55      1.0000 0.51850  0.31400  0.50020  Biso   1.000  H
  H56      1.0000 0.01850  0.68600  0.00020  Biso   1.000  H
  H57      1.0000 0.54480  0.40700  0.57490  Biso   1.000  H
  H58      1.0000 0.04480  0.59300  0.07490  Biso   1.000  H
  C75      1.0000 0.47930  0.44210  0.41920  Biso   1.000  C
  C76      1.0000 0.97930  0.55790  0.91920  Biso   1.000  C
  H59      1.0000 0.42240  0.41330  0.36160  Biso   1.000  H
  H60      1.0000 0.92240  0.58670  0.86160  Biso   1.000  H
  H61      1.0000 0.56090  0.44820  0.39690  Biso   1.000  H
  H62      1.0000 0.06090  0.55180  0.89690  Biso   1.000  H
  H63      1.0000 0.44930  0.50600  0.43610  Biso   1.000  H
  H64      1.0000 0.94930  0.49400  0.93610  Biso   1.000  H
