data_image0
_cell_length_a       11.6836
_cell_length_b       9.005
_cell_length_c       16.504
_cell_angle_alpha    90
_cell_angle_beta     100.159
_cell_angle_gamma    90

_symmetry_space_group_name_H-M    "P 1"
_symmetry_int_tables_number       1

loop_
  _symmetry_equiv_pos_as_xyz
  'x, y, z'

loop_
  _atom_site_label
  _atom_site_occupancy
  _atom_site_fract_x
  _atom_site_fract_y
  _atom_site_fract_z
  _atom_site_thermal_displace_type
  _atom_site_B_iso_or_equiv
  _atom_site_type_symbol
  Cu1      1.0000 0.31951  0.02420  0.38094  Biso   1.000  Cu
  Cu2      1.0000 0.81951  0.47580  0.88094  Biso   1.000  Cu
  Cu3      1.0000 0.68049  0.97580  0.61906  Biso   1.000  Cu
  Cu4      1.0000 0.18049  0.52420  0.11906  Biso   1.000  Cu
  O1       1.0000 0.14826  0.12930  0.30658  Biso   1.000  O
  O2       1.0000 0.64826  0.37070  0.80658  Biso   1.000  O
  O3       1.0000 0.85174  0.87070  0.69342  Biso   1.000  O
  O4       1.0000 0.35174  0.62930  0.19342  Biso   1.000  O
  O5       1.0000 0.28020  0.10450  0.48834  Biso   1.000  O
  O6       1.0000 0.78020  0.39550  0.98834  Biso   1.000  O
  O7       1.0000 0.71980  0.89550  0.51166  Biso   1.000  O
  O8       1.0000 0.21980  0.60450  0.01166  Biso   1.000  O
  H1       1.0000 0.34100  0.11000  0.51700  Biso   1.000  H
  H2       1.0000 0.84100  0.39000  0.01700  Biso   1.000  H
  H3       1.0000 0.65900  0.89000  0.48300  Biso   1.000  H
  H4       1.0000 0.15900  0.61000  0.98300  Biso   1.000  H
  H5       1.0000 0.25500  0.18600  0.46800  Biso   1.000  H
  H6       1.0000 0.75500  0.31400  0.96800  Biso   1.000  H
  H7       1.0000 0.74500  0.81400  0.53200  Biso   1.000  H
  H8       1.0000 0.24500  0.68600  0.03200  Biso   1.000  H
  O9       1.0000 0.15064  0.31080  0.39863  Biso   1.000  O
  O10      1.0000 0.65064  0.18920  0.89863  Biso   1.000  O
  O11      1.0000 0.84936  0.68920  0.60137  Biso   1.000  O
  O12      1.0000 0.34936  0.81080  0.10137  Biso   1.000  O
  O13      1.0000 0.11293  0.42630  0.20931  Biso   1.000  O
  O14      1.0000 0.61293  0.07370  0.70931  Biso   1.000  O
  O15      1.0000 0.88707  0.57370  0.79069  Biso   1.000  O
  O16      1.0000 0.38707  0.92630  0.29069  Biso   1.000  O
  O17      1.0000 0.97590  0.39450  0.10046  Biso   1.000  O
  O18      1.0000 0.47590  0.10550  0.60046  Biso   1.000  O
  O19      1.0000 0.02410  0.60550  0.89954  Biso   1.000  O
  O20      1.0000 0.52410  0.89450  0.39954  Biso   1.000  O
  N1       1.0000 0.40680  0.20820  0.36754  Biso   1.000  N
  N2       1.0000 0.90680  0.29180  0.86754  Biso   1.000  N
  N3       1.0000 0.59320  0.79180  0.63246  Biso   1.000  N
  N4       1.0000 0.09320  0.70820  0.13246  Biso   1.000  N
  N5       1.0000 0.44280  0.42420  0.31784  Biso   1.000  N
  N6       1.0000 0.94280  0.07580  0.81784  Biso   1.000  N
  N7       1.0000 0.55720  0.57580  0.68216  Biso   1.000  N
  N8       1.0000 0.05720  0.92420  0.18216  Biso   1.000  N
  H9       1.0000 0.43590  0.50240  0.28540  Biso   1.000  H
  H10      1.0000 0.93590  0.99760  0.78540  Biso   1.000  H
  H11      1.0000 0.56410  0.49760  0.71460  Biso   1.000  H
  H12      1.0000 0.06410  0.00240  0.21460  Biso   1.000  H
  N9       1.0000 0.22800  0.84470  0.39695  Biso   1.000  N
  N10      1.0000 0.72800  0.65530  0.89695  Biso   1.000  N
  N11      1.0000 0.77200  0.15530  0.60305  Biso   1.000  N
  N12      1.0000 0.27200  0.34470  0.10305  Biso   1.000  N
  N13      1.0000 0.16190  0.61810  0.39395  Biso   1.000  N
  N14      1.0000 0.66190  0.88190  0.89395  Biso   1.000  N
  N15      1.0000 0.83810  0.38190  0.60605  Biso   1.000  N
  N16      1.0000 0.33810  0.11810  0.10605  Biso   1.000  N
  H13      1.0000 0.16020  0.52070  0.38980  Biso   1.000  H
  H14      1.0000 0.66020  0.97930  0.88980  Biso   1.000  H
  H15      1.0000 0.83980  0.47930  0.61020  Biso   1.000  H
  H16      1.0000 0.33980  0.02070  0.11020  Biso   1.000  H
  C1       1.0000 0.37260  0.30680  0.30930  Biso   1.000  C
  C2       1.0000 0.87260  0.19320  0.80930  Biso   1.000  C
  C3       1.0000 0.62740  0.69320  0.69070  Biso   1.000  C
  C4       1.0000 0.12740  0.80680  0.19070  Biso   1.000  C
  H17      1.0000 0.30660  0.29550  0.26690  Biso   1.000  H
  H18      1.0000 0.80660  0.20450  0.76690  Biso   1.000  H
  H19      1.0000 0.69340  0.70450  0.73310  Biso   1.000  H
  H20      1.0000 0.19340  0.79550  0.23310  Biso   1.000  H
  C5       1.0000 0.52790  0.40330  0.38564  Biso   1.000  C
  C6       1.0000 0.02790  0.09670  0.88564  Biso   1.000  C
  C7       1.0000 0.47210  0.59670  0.61436  Biso   1.000  C
  C8       1.0000 0.97210  0.90330  0.11436  Biso   1.000  C
  C9       1.0000 0.50400  0.26820  0.41583  Biso   1.000  C
  C10      1.0000 0.00400  0.23180  0.91583  Biso   1.000  C
  C11      1.0000 0.49600  0.73180  0.58417  Biso   1.000  C
  C12      1.0000 0.99600  0.76820  0.08417  Biso   1.000  C
  H21      1.0000 0.54780  0.22210  0.46310  Biso   1.000  H
  H22      1.0000 0.04780  0.27790  0.96310  Biso   1.000  H
  H23      1.0000 0.45220  0.77790  0.53690  Biso   1.000  H
  H24      1.0000 0.95220  0.72210  0.03690  Biso   1.000  H
  C13      1.0000 0.61990  0.51450  0.41450  Biso   1.000  C
  C14      1.0000 0.11990  0.98550  0.91450  Biso   1.000  C
  C15      1.0000 0.38010  0.48550  0.58550  Biso   1.000  C
  C16      1.0000 0.88010  0.01450  0.08550  Biso   1.000  C
  H25      1.0000 0.68150  0.46820  0.45450  Biso   1.000  H
  H26      1.0000 0.18150  0.03180  0.95450  Biso   1.000  H
  H27      1.0000 0.31850  0.53180  0.54550  Biso   1.000  H
  H28      1.0000 0.81850  0.96820  0.04550  Biso   1.000  H
  H29      1.0000 0.58630  0.59770  0.44060  Biso   1.000  H
  H30      1.0000 0.08630  0.90230  0.94060  Biso   1.000  H
  H31      1.0000 0.41370  0.40230  0.55940  Biso   1.000  H
  H32      1.0000 0.91370  0.09770  0.05940  Biso   1.000  H
  H33      1.0000 0.65260  0.55100  0.36750  Biso   1.000  H
  H34      1.0000 0.15260  0.94900  0.86750  Biso   1.000  H
  H35      1.0000 0.34740  0.44900  0.63250  Biso   1.000  H
  H36      1.0000 0.84740  0.05100  0.13250  Biso   1.000  H
  C17      1.0000 0.25260  0.70480  0.38767  Biso   1.000  C
  C18      1.0000 0.75260  0.79520  0.88767  Biso   1.000  C
  C19      1.0000 0.74740  0.29520  0.61233  Biso   1.000  C
  C20      1.0000 0.24740  0.20480  0.11233  Biso   1.000  C
  H37      1.0000 0.32550  0.66950  0.37770  Biso   1.000  H
  H38      1.0000 0.82550  0.83050  0.87770  Biso   1.000  H
  H39      1.0000 0.67450  0.33050  0.62230  Biso   1.000  H
  H40      1.0000 0.17450  0.16950  0.12230  Biso   1.000  H
  C21      1.0000 0.07200  0.70680  0.40794  Biso   1.000  C
  C22      1.0000 0.57200  0.79320  0.90794  Biso   1.000  C
  C23      1.0000 0.92800  0.29320  0.59206  Biso   1.000  C
  C24      1.0000 0.42800  0.20680  0.09206  Biso   1.000  C
  C25      1.0000 0.11510  0.84630  0.41000  Biso   1.000  C
  C26      1.0000 0.61510  0.65370  0.91000  Biso   1.000  C
  C27      1.0000 0.88490  0.15370  0.59000  Biso   1.000  C
  C28      1.0000 0.38490  0.34630  0.09000  Biso   1.000  C
  H41      1.0000 0.07320  0.93330  0.41920  Biso   1.000  H
  H42      1.0000 0.57320  0.56670  0.91920  Biso   1.000  H
  H43      1.0000 0.92680  0.06670  0.58080  Biso   1.000  H
  H44      1.0000 0.42680  0.43330  0.08080  Biso   1.000  H
  C29      1.0000 0.95590  0.64870  0.41660  Biso   1.000  C
  C30      1.0000 0.45590  0.85130  0.91660  Biso   1.000  C
  C31      1.0000 0.04410  0.35130  0.58340  Biso   1.000  C
  C32      1.0000 0.54410  0.14870  0.08340  Biso   1.000  C
  H45      1.0000 0.90050  0.73110  0.41330  Biso   1.000  H
  H46      1.0000 0.40050  0.76890  0.91330  Biso   1.000  H
  H47      1.0000 0.09950  0.26890  0.58670  Biso   1.000  H
  H48      1.0000 0.59950  0.23110  0.08670  Biso   1.000  H
  H49      1.0000 0.96130  0.59890  0.47000  Biso   1.000  H
  H50      1.0000 0.46130  0.90110  0.97000  Biso   1.000  H
  H51      1.0000 0.03870  0.40110  0.53000  Biso   1.000  H
  H52      1.0000 0.53870  0.09890  0.03000  Biso   1.000  H
  H53      1.0000 0.92930  0.57760  0.37230  Biso   1.000  H
  H54      1.0000 0.42930  0.92240  0.87230  Biso   1.000  H
  H55      1.0000 0.07070  0.42240  0.62770  Biso   1.000  H
  H56      1.0000 0.57070  0.07760  0.12770  Biso   1.000  H
  C33      1.0000 0.10230  0.23490  0.33850  Biso   1.000  C
  C34      1.0000 0.60230  0.26510  0.83850  Biso   1.000  C
  C35      1.0000 0.89770  0.76510  0.66150  Biso   1.000  C
  C36      1.0000 0.39770  0.73490  0.16150  Biso   1.000  C
  C37      1.0000 0.97560  0.26520  0.30752  Biso   1.000  C
  C38      1.0000 0.47560  0.23480  0.80752  Biso   1.000  C
  C39      1.0000 0.02440  0.73480  0.69248  Biso   1.000  C
  C40      1.0000 0.52440  0.76520  0.19248  Biso   1.000  C
  C41      1.0000 0.89800  0.21830  0.35743  Biso   1.000  C
  C42      1.0000 0.39800  0.28170  0.85743  Biso   1.000  C
  C43      1.0000 0.10200  0.78170  0.64257  Biso   1.000  C
  C44      1.0000 0.60200  0.71830  0.14257  Biso   1.000  C
  H57      1.0000 0.92700  0.17250  0.40880  Biso   1.000  H
  H58      1.0000 0.42700  0.32750  0.90880  Biso   1.000  H
  H59      1.0000 0.07300  0.82750  0.59120  Biso   1.000  H
  H60      1.0000 0.57300  0.67250  0.09120  Biso   1.000  H
  C45      1.0000 0.77950  0.23730  0.33340  Biso   1.000  C
  C46      1.0000 0.27950  0.26270  0.83340  Biso   1.000  C
  C47      1.0000 0.22050  0.76270  0.66660  Biso   1.000  C
  C48      1.0000 0.72050  0.73730  0.16660  Biso   1.000  C
  H61      1.0000 0.72750  0.20400  0.36780  Biso   1.000  H
  H62      1.0000 0.22750  0.29600  0.86780  Biso   1.000  H
  H63      1.0000 0.27250  0.79600  0.63220  Biso   1.000  H
  H64      1.0000 0.77250  0.70400  0.13220  Biso   1.000  H
  C49      1.0000 0.73720  0.30460  0.25960  Biso   1.000  C
  C50      1.0000 0.23720  0.19540  0.75960  Biso   1.000  C
  C51      1.0000 0.26280  0.69540  0.74040  Biso   1.000  C
  C52      1.0000 0.76280  0.80460  0.24040  Biso   1.000  C
  H65      1.0000 0.65590  0.31880  0.24320  Biso   1.000  H
  H66      1.0000 0.15590  0.18120  0.74320  Biso   1.000  H
  H67      1.0000 0.34410  0.68120  0.75680  Biso   1.000  H
  H68      1.0000 0.84410  0.81880  0.25680  Biso   1.000  H
  C53      1.0000 0.81230  0.35200  0.20879  Biso   1.000  C
  C54      1.0000 0.31230  0.14800  0.70879  Biso   1.000  C
  C55      1.0000 0.18770  0.64800  0.79121  Biso   1.000  C
  C56      1.0000 0.68770  0.85200  0.29121  Biso   1.000  C
  H69      1.0000 0.78220  0.39820  0.15770  Biso   1.000  H
  H70      1.0000 0.28220  0.10180  0.65770  Biso   1.000  H
  H71      1.0000 0.21780  0.60180  0.84230  Biso   1.000  H
  H72      1.0000 0.71780  0.89820  0.34230  Biso   1.000  H
  C57      1.0000 0.93160  0.33240  0.23195  Biso   1.000  C
  C58      1.0000 0.43160  0.16760  0.73195  Biso   1.000  C
  C59      1.0000 0.06840  0.66760  0.76805  Biso   1.000  C
  C60      1.0000 0.56840  0.83240  0.26805  Biso   1.000  C
  C61      1.0000 0.01100  0.38770  0.17622  Biso   1.000  C
  C62      1.0000 0.51100  0.11230  0.67622  Biso   1.000  C
  C63      1.0000 0.98900  0.61230  0.82378  Biso   1.000  C
  C64      1.0000 0.48900  0.88770  0.32378  Biso   1.000  C
