data_image0
_cell_length_a       15.29
_cell_length_b       13.414
_cell_length_c       14.815
_cell_angle_alpha    90
_cell_angle_beta     115.298
_cell_angle_gamma    90

_symmetry_space_group_name_H-M    "P 1"
_symmetry_int_tables_number       1

loop_
  _symmetry_equiv_pos_as_xyz
  'x, y, z'

loop_
  _atom_site_label
  _atom_site_occupancy
  _atom_site_fract_x
  _atom_site_fract_y
  _atom_site_fract_z
  _atom_site_thermal_displace_type
  _atom_site_B_iso_or_equiv
  _atom_site_type_symbol
  Cu1      1.0000 0.31106  0.44156  0.15617  Biso   1.000  Cu
  Cu2      1.0000 0.81106  0.94156  0.15617  Biso   1.000  Cu
  Cu3      1.0000 0.31106  0.55844  0.65617  Biso   1.000  Cu
  Cu4      1.0000 0.81106  0.05844  0.65617  Biso   1.000  Cu
  Cu5      1.0000 0.68894  0.55844  0.84383  Biso   1.000  Cu
  Cu6      1.0000 0.18894  0.05844  0.84383  Biso   1.000  Cu
  Cu7      1.0000 0.68894  0.44156  0.34383  Biso   1.000  Cu
  Cu8      1.0000 0.18894  0.94156  0.34383  Biso   1.000  Cu
  O1       1.0000 0.28370  0.61210  0.12950  Biso   1.000  O
  O2       1.0000 0.78370  0.11210  0.12950  Biso   1.000  O
  O3       1.0000 0.28370  0.38790  0.62950  Biso   1.000  O
  O4       1.0000 0.78370  0.88790  0.62950  Biso   1.000  O
  O5       1.0000 0.71630  0.38790  0.87050  Biso   1.000  O
  O6       1.0000 0.21630  0.88790  0.87050  Biso   1.000  O
  O7       1.0000 0.71630  0.61210  0.37050  Biso   1.000  O
  O8       1.0000 0.21630  0.11210  0.37050  Biso   1.000  O
  O9       1.0000 0.41263  0.44586  0.29865  Biso   1.000  O
  O10      1.0000 0.91263  0.94586  0.29865  Biso   1.000  O
  O11      1.0000 0.41263  0.55414  0.79865  Biso   1.000  O
  O12      1.0000 0.91263  0.05414  0.79865  Biso   1.000  O
  O13      1.0000 0.58737  0.55414  0.70135  Biso   1.000  O
  O14      1.0000 0.08737  0.05414  0.70135  Biso   1.000  O
  O15      1.0000 0.58737  0.44586  0.20135  Biso   1.000  O
  O16      1.0000 0.08737  0.94586  0.20135  Biso   1.000  O
  N1       1.0000 0.57991  0.44690  0.37400  Biso   1.000  N
  N2       1.0000 0.07991  0.94690  0.37400  Biso   1.000  N
  N3       1.0000 0.57991  0.55310  0.87400  Biso   1.000  N
  N4       1.0000 0.07991  0.05310  0.87400  Biso   1.000  N
  N5       1.0000 0.42009  0.55310  0.62600  Biso   1.000  N
  N6       1.0000 0.92009  0.05310  0.62600  Biso   1.000  N
  N7       1.0000 0.42009  0.44690  0.12600  Biso   1.000  N
  N8       1.0000 0.92009  0.94690  0.12600  Biso   1.000  N
  N9       1.0000 0.75217  0.39070  0.48735  Biso   1.000  N
  N10      1.0000 0.25217  0.89070  0.48735  Biso   1.000  N
  N11      1.0000 0.75217  0.60930  0.98735  Biso   1.000  N
  N12      1.0000 0.25217  0.10930  0.98735  Biso   1.000  N
  N13      1.0000 0.24783  0.60930  0.51265  Biso   1.000  N
  N14      1.0000 0.74783  0.10930  0.51265  Biso   1.000  N
  N15      1.0000 0.24783  0.39070  0.01265  Biso   1.000  N
  N16      1.0000 0.74783  0.89070  0.01265  Biso   1.000  N
  N17      1.0000 0.20144  0.43070  0.19200  Biso   1.000  N
  N18      1.0000 0.70144  0.93070  0.19200  Biso   1.000  N
  N19      1.0000 0.20144  0.56930  0.69200  Biso   1.000  N
  N20      1.0000 0.70144  0.06930  0.69200  Biso   1.000  N
  N21      1.0000 0.79856  0.56930  0.80800  Biso   1.000  N
  N22      1.0000 0.29856  0.06930  0.80800  Biso   1.000  N
  N23      1.0000 0.79856  0.43070  0.30800  Biso   1.000  N
  N24      1.0000 0.29856  0.93070  0.30800  Biso   1.000  N
  C1       1.0000 0.49610  0.44740  0.29960  Biso   1.000  C
  C2       1.0000 0.99610  0.94740  0.29960  Biso   1.000  C
  C3       1.0000 0.49610  0.55260  0.79960  Biso   1.000  C
  C4       1.0000 0.99610  0.05260  0.79960  Biso   1.000  C
  C5       1.0000 0.50390  0.55260  0.70040  Biso   1.000  C
  C6       1.0000 0.00390  0.05260  0.70040  Biso   1.000  C
  C7       1.0000 0.50390  0.44740  0.20040  Biso   1.000  C
  C8       1.0000 0.00390  0.94740  0.20040  Biso   1.000  C
  C9       1.0000 0.59700  0.44300  0.47830  Biso   1.000  C
  C10      1.0000 0.09700  0.94300  0.47830  Biso   1.000  C
  C11      1.0000 0.59700  0.55700  0.97830  Biso   1.000  C
  C12      1.0000 0.09700  0.05700  0.97830  Biso   1.000  C
  C13      1.0000 0.40300  0.55700  0.52170  Biso   1.000  C
  C14      1.0000 0.90300  0.05700  0.52170  Biso   1.000  C
  C15      1.0000 0.40300  0.44300  0.02170  Biso   1.000  C
  C16      1.0000 0.90300  0.94300  0.02170  Biso   1.000  C
  C17      1.0000 0.69620  0.40090  0.53670  Biso   1.000  C
  C18      1.0000 0.19620  0.90090  0.53670  Biso   1.000  C
  C19      1.0000 0.69620  0.59910  0.03670  Biso   1.000  C
  C20      1.0000 0.19620  0.09910  0.03670  Biso   1.000  C
  C21      1.0000 0.30380  0.59910  0.46330  Biso   1.000  C
  C22      1.0000 0.80380  0.09910  0.46330  Biso   1.000  C
  C23      1.0000 0.30380  0.40090  0.96330  Biso   1.000  C
  C24      1.0000 0.80380  0.90090  0.96330  Biso   1.000  C
  C25      1.0000 0.72760  0.37050  0.63500  Biso   1.000  C
  C26      1.0000 0.22760  0.87050  0.63500  Biso   1.000  C
  C27      1.0000 0.72760  0.62950  0.13500  Biso   1.000  C
  C28      1.0000 0.22760  0.12950  0.13500  Biso   1.000  C
  C29      1.0000 0.27240  0.62950  0.36500  Biso   1.000  C
  C30      1.0000 0.77240  0.12950  0.36500  Biso   1.000  C
  C31      1.0000 0.27240  0.37050  0.86500  Biso   1.000  C
  C32      1.0000 0.77240  0.87050  0.86500  Biso   1.000  C
  C33      1.0000 0.81760  0.32870  0.68360  Biso   1.000  C
  C34      1.0000 0.31760  0.82870  0.68360  Biso   1.000  C
  C35      1.0000 0.81760  0.67130  0.18360  Biso   1.000  C
  C36      1.0000 0.31760  0.17130  0.18360  Biso   1.000  C
  C37      1.0000 0.18240  0.67130  0.31640  Biso   1.000  C
  C38      1.0000 0.68240  0.17130  0.31640  Biso   1.000  C
  C39      1.0000 0.18240  0.32870  0.81640  Biso   1.000  C
  C40      1.0000 0.68240  0.82870  0.81640  Biso   1.000  C
  C41      1.0000 0.87410  0.31610  0.63260  Biso   1.000  C
  C42      1.0000 0.37410  0.81610  0.63260  Biso   1.000  C
  C43      1.0000 0.87410  0.68390  0.13260  Biso   1.000  C
  C44      1.0000 0.37410  0.18390  0.13260  Biso   1.000  C
  C45      1.0000 0.12590  0.68390  0.36740  Biso   1.000  C
  C46      1.0000 0.62590  0.18390  0.36740  Biso   1.000  C
  C47      1.0000 0.12590  0.31610  0.86740  Biso   1.000  C
  C48      1.0000 0.62590  0.81610  0.86740  Biso   1.000  C
  C49      1.0000 0.83970  0.34720  0.53640  Biso   1.000  C
  C50      1.0000 0.33970  0.84720  0.53640  Biso   1.000  C
  C51      1.0000 0.83970  0.65280  0.03640  Biso   1.000  C
  C52      1.0000 0.33970  0.15280  0.03640  Biso   1.000  C
  C53      1.0000 0.16030  0.65280  0.46360  Biso   1.000  C
  C54      1.0000 0.66030  0.15280  0.46360  Biso   1.000  C
  C55      1.0000 0.16030  0.34720  0.96360  Biso   1.000  C
  C56      1.0000 0.66030  0.84720  0.96360  Biso   1.000  C
  C57      1.0000 0.11640  0.47290  0.13300  Biso   1.000  C
  C58      1.0000 0.61640  0.97290  0.13300  Biso   1.000  C
  C59      1.0000 0.11640  0.52710  0.63300  Biso   1.000  C
  C60      1.0000 0.61640  0.02710  0.63300  Biso   1.000  C
  C61      1.0000 0.88360  0.52710  0.86700  Biso   1.000  C
  C62      1.0000 0.38360  0.02710  0.86700  Biso   1.000  C
  C63      1.0000 0.88360  0.47290  0.36700  Biso   1.000  C
  C64      1.0000 0.38360  0.97290  0.36700  Biso   1.000  C
  C65      1.0000 0.03740  0.47160  0.15230  Biso   1.000  C
  C66      1.0000 0.53740  0.97160  0.15230  Biso   1.000  C
  C67      1.0000 0.03740  0.52840  0.65230  Biso   1.000  C
  C68      1.0000 0.53740  0.02840  0.65230  Biso   1.000  C
  C69      1.0000 0.96260  0.52840  0.84770  Biso   1.000  C
  C70      1.0000 0.46260  0.02840  0.84770  Biso   1.000  C
  C71      1.0000 0.96260  0.47160  0.34770  Biso   1.000  C
  C72      1.0000 0.46260  0.97160  0.34770  Biso   1.000  C
  C73      1.0000 0.04260  0.42540  0.23840  Biso   1.000  C
  C74      1.0000 0.54260  0.92540  0.23840  Biso   1.000  C
  C75      1.0000 0.04260  0.57460  0.73840  Biso   1.000  C
  C76      1.0000 0.54260  0.07460  0.73840  Biso   1.000  C
  C77      1.0000 0.95740  0.57460  0.76160  Biso   1.000  C
  C78      1.0000 0.45740  0.07460  0.76160  Biso   1.000  C
  C79      1.0000 0.95740  0.42540  0.26160  Biso   1.000  C
  C80      1.0000 0.45740  0.92540  0.26160  Biso   1.000  C
  C81      1.0000 0.13040  0.38370  0.30180  Biso   1.000  C
  C82      1.0000 0.63040  0.88370  0.30180  Biso   1.000  C
  C83      1.0000 0.13040  0.61630  0.80180  Biso   1.000  C
  C84      1.0000 0.63040  0.11630  0.80180  Biso   1.000  C
  C85      1.0000 0.86960  0.61630  0.69820  Biso   1.000  C
  C86      1.0000 0.36960  0.11630  0.69820  Biso   1.000  C
  C87      1.0000 0.86960  0.38370  0.19820  Biso   1.000  C
  C88      1.0000 0.36960  0.88370  0.19820  Biso   1.000  C
  C89      1.0000 0.20700  0.38640  0.27590  Biso   1.000  C
  C90      1.0000 0.70700  0.88640  0.27590  Biso   1.000  C
  C91      1.0000 0.20700  0.61360  0.77590  Biso   1.000  C
  C92      1.0000 0.70700  0.11360  0.77590  Biso   1.000  C
  C93      1.0000 0.79300  0.61360  0.72410  Biso   1.000  C
  C94      1.0000 0.29300  0.11360  0.72410  Biso   1.000  C
  C95      1.0000 0.79300  0.38640  0.22410  Biso   1.000  C
  C96      1.0000 0.29300  0.88640  0.22410  Biso   1.000  C
  N25      1.0000 0.06640  0.74360  0.99670  Biso   1.000  N
  N26      1.0000 0.56640  0.24360  0.99670  Biso   1.000  N
  N27      1.0000 0.06640  0.25640  0.49670  Biso   1.000  N
  N28      1.0000 0.56640  0.75640  0.49670  Biso   1.000  N
  N29      1.0000 0.93360  0.25640  0.00330  Biso   1.000  N
  N30      1.0000 0.43360  0.75640  0.00330  Biso   1.000  N
  N31      1.0000 0.93360  0.74360  0.50330  Biso   1.000  N
  N32      1.0000 0.43360  0.24360  0.50330  Biso   1.000  N
  O17      1.0000 0.06300  0.70900  0.07700  Biso   1.000  O
  O18      1.0000 0.56300  0.20900  0.07700  Biso   1.000  O
  O19      1.0000 0.06300  0.29100  0.57700  Biso   1.000  O
  O20      1.0000 0.56300  0.79100  0.57700  Biso   1.000  O
  O21      1.0000 0.93700  0.29100  0.92300  Biso   1.000  O
  O22      1.0000 0.43700  0.79100  0.92300  Biso   1.000  O
  O23      1.0000 0.93700  0.70900  0.42300  Biso   1.000  O
  O24      1.0000 0.43700  0.20900  0.42300  Biso   1.000  O
  O25      1.0000 0.14420  0.77770  0.00400  Biso   1.000  O
  O26      1.0000 0.64420  0.27770  0.00400  Biso   1.000  O
  O27      1.0000 0.14420  0.22230  0.50400  Biso   1.000  O
  O28      1.0000 0.64420  0.72230  0.50400  Biso   1.000  O
  O29      1.0000 0.85580  0.22230  0.99600  Biso   1.000  O
  O30      1.0000 0.35580  0.72230  0.99600  Biso   1.000  O
  O31      1.0000 0.85580  0.77770  0.49600  Biso   1.000  O
  O32      1.0000 0.35580  0.27770  0.49600  Biso   1.000  O
  O33      1.0000 0.98640  0.75540  0.92500  Biso   1.000  O
  O34      1.0000 0.48640  0.25540  0.92500  Biso   1.000  O
  O35      1.0000 0.98640  0.24460  0.42500  Biso   1.000  O
  O36      1.0000 0.48640  0.74460  0.42500  Biso   1.000  O
  O37      1.0000 0.01360  0.24460  0.07500  Biso   1.000  O
  O38      1.0000 0.51360  0.74460  0.07500  Biso   1.000  O
  O39      1.0000 0.01360  0.75540  0.57500  Biso   1.000  O
  O40      1.0000 0.51360  0.25540  0.57500  Biso   1.000  O
  O41      1.0000 0.06000  0.69200  0.05300  Biso   1.000  O
  O42      1.0000 0.56000  0.19200  0.05300  Biso   1.000  O
  O43      1.0000 0.06000  0.30800  0.55300  Biso   1.000  O
  O44      1.0000 0.56000  0.80800  0.55300  Biso   1.000  O
  O45      1.0000 0.94000  0.30800  0.94700  Biso   1.000  O
  O46      1.0000 0.44000  0.80800  0.94700  Biso   1.000  O
  O47      1.0000 0.94000  0.69200  0.44700  Biso   1.000  O
  O48      1.0000 0.44000  0.19200  0.44700  Biso   1.000  O
  O49      1.0000 0.00190  0.78230  0.92400  Biso   1.000  O
  O50      1.0000 0.50190  0.28230  0.92400  Biso   1.000  O
  O51      1.0000 0.00190  0.21770  0.42400  Biso   1.000  O
  O52      1.0000 0.50190  0.71770  0.42400  Biso   1.000  O
  O53      1.0000 0.99810  0.21770  0.07600  Biso   1.000  O
  O54      1.0000 0.49810  0.71770  0.07600  Biso   1.000  O
  O55      1.0000 0.99810  0.78230  0.57600  Biso   1.000  O
  O56      1.0000 0.49810  0.28230  0.57600  Biso   1.000  O
  O57      1.0000 0.14480  0.74740  0.99600  Biso   1.000  O
  O58      1.0000 0.64480  0.24740  0.99600  Biso   1.000  O
  O59      1.0000 0.14480  0.25260  0.49600  Biso   1.000  O
  O60      1.0000 0.64480  0.75260  0.49600  Biso   1.000  O
  O61      1.0000 0.85520  0.25260  0.00400  Biso   1.000  O
  O62      1.0000 0.35520  0.75260  0.00400  Biso   1.000  O
  O63      1.0000 0.85520  0.74740  0.50400  Biso   1.000  O
  O64      1.0000 0.35520  0.24740  0.50400  Biso   1.000  O
  O65      1.0000 0.00000  0.83830  0.75000  Biso   1.000  O
  O66      1.0000 0.50000  0.33830  0.75000  Biso   1.000  O
  O67      1.0000 0.00000  0.16170  0.25000  Biso   1.000  O
  O68      1.0000 0.50000  0.66170  0.25000  Biso   1.000  O
  H1       1.0000 0.87200  0.34400  0.50000  Biso   1.000  H
  H2       1.0000 0.37200  0.84400  0.50000  Biso   1.000  H
  H3       1.0000 0.87200  0.65600  0.00000  Biso   1.000  H
  H4       1.0000 0.37200  0.15600  0.00000  Biso   1.000  H
  H5       1.0000 0.12800  0.65600  0.50000  Biso   1.000  H
  H6       1.0000 0.62800  0.15600  0.50000  Biso   1.000  H
  H7       1.0000 0.12800  0.34400  0.00000  Biso   1.000  H
  H8       1.0000 0.62800  0.84400  0.00000  Biso   1.000  H
  H9       1.0000 0.13500  0.35200  0.36200  Biso   1.000  H
  H10      1.0000 0.63500  0.85200  0.36200  Biso   1.000  H
  H11      1.0000 0.13500  0.64800  0.86200  Biso   1.000  H
  H12      1.0000 0.63500  0.14800  0.86200  Biso   1.000  H
  H13      1.0000 0.86500  0.64800  0.63800  Biso   1.000  H
  H14      1.0000 0.36500  0.14800  0.63800  Biso   1.000  H
  H15      1.0000 0.86500  0.35200  0.13800  Biso   1.000  H
  H16      1.0000 0.36500  0.85200  0.13800  Biso   1.000  H
  H17      1.0000 0.54800  0.39800  0.48200  Biso   1.000  H
  H18      1.0000 0.04800  0.89800  0.48200  Biso   1.000  H
  H19      1.0000 0.54800  0.60200  0.98200  Biso   1.000  H
  H20      1.0000 0.04800  0.10200  0.98200  Biso   1.000  H
  H21      1.0000 0.45200  0.60200  0.51800  Biso   1.000  H
  H22      1.0000 0.95200  0.10200  0.51800  Biso   1.000  H
  H23      1.0000 0.45200  0.39800  0.01800  Biso   1.000  H
  H24      1.0000 0.95200  0.89800  0.01800  Biso   1.000  H
  H25      1.0000 0.92700  0.28000  0.65900  Biso   1.000  H
  H26      1.0000 0.42700  0.78000  0.65900  Biso   1.000  H
  H27      1.0000 0.92700  0.72000  0.15900  Biso   1.000  H
  H28      1.0000 0.42700  0.22000  0.15900  Biso   1.000  H
  H29      1.0000 0.07300  0.72000  0.34100  Biso   1.000  H
  H30      1.0000 0.57300  0.22000  0.34100  Biso   1.000  H
  H31      1.0000 0.07300  0.28000  0.84100  Biso   1.000  H
  H32      1.0000 0.57300  0.78000  0.84100  Biso   1.000  H
  H33      1.0000 0.11100  0.51000  0.07700  Biso   1.000  H
  H34      1.0000 0.61100  0.01000  0.07700  Biso   1.000  H
  H35      1.0000 0.11100  0.49000  0.57700  Biso   1.000  H
  H36      1.0000 0.61100  0.99000  0.57700  Biso   1.000  H
  H37      1.0000 0.88900  0.49000  0.92300  Biso   1.000  H
  H38      1.0000 0.38900  0.99000  0.92300  Biso   1.000  H
  H39      1.0000 0.88900  0.51000  0.42300  Biso   1.000  H
  H40      1.0000 0.38900  0.01000  0.42300  Biso   1.000  H
  H41      1.0000 0.68400  0.38200  0.66200  Biso   1.000  H
  H42      1.0000 0.18400  0.88200  0.66200  Biso   1.000  H
  H43      1.0000 0.68400  0.61800  0.16200  Biso   1.000  H
  H44      1.0000 0.18400  0.11800  0.16200  Biso   1.000  H
  H45      1.0000 0.31600  0.61800  0.33800  Biso   1.000  H
  H46      1.0000 0.81600  0.11800  0.33800  Biso   1.000  H
  H47      1.0000 0.31600  0.38200  0.83800  Biso   1.000  H
  H48      1.0000 0.81600  0.88200  0.83800  Biso   1.000  H
  H49      1.0000 0.98200  0.49800  0.10700  Biso   1.000  H
  H50      1.0000 0.48200  0.99800  0.10700  Biso   1.000  H
  H51      1.0000 0.98200  0.50200  0.60700  Biso   1.000  H
  H52      1.0000 0.48200  0.00200  0.60700  Biso   1.000  H
  H53      1.0000 0.01800  0.50200  0.89300  Biso   1.000  H
  H54      1.0000 0.51800  0.00200  0.89300  Biso   1.000  H
  H55      1.0000 0.01800  0.49800  0.39300  Biso   1.000  H
  H56      1.0000 0.51800  0.99800  0.39300  Biso   1.000  H
  H57      1.0000 0.26700  0.35600  0.33100  Biso   1.000  H
  H58      1.0000 0.76700  0.85600  0.33100  Biso   1.000  H
  H59      1.0000 0.26700  0.64400  0.83100  Biso   1.000  H
  H60      1.0000 0.76700  0.14400  0.83100  Biso   1.000  H
  H61      1.0000 0.73300  0.64400  0.66900  Biso   1.000  H
  H62      1.0000 0.23300  0.14400  0.66900  Biso   1.000  H
  H63      1.0000 0.73300  0.35600  0.16900  Biso   1.000  H
  H64      1.0000 0.23300  0.85600  0.16900  Biso   1.000  H
  H65      1.0000 0.83600  0.30700  0.74100  Biso   1.000  H
  H66      1.0000 0.33600  0.80700  0.74100  Biso   1.000  H
  H67      1.0000 0.83600  0.69300  0.24100  Biso   1.000  H
  H68      1.0000 0.33600  0.19300  0.24100  Biso   1.000  H
  H69      1.0000 0.16400  0.69300  0.25900  Biso   1.000  H
  H70      1.0000 0.66400  0.19300  0.25900  Biso   1.000  H
  H71      1.0000 0.16400  0.30700  0.75900  Biso   1.000  H
  H72      1.0000 0.66400  0.80700  0.75900  Biso   1.000  H
  H73      1.0000 0.59700  0.50900  0.50000  Biso   1.000  H
  H74      1.0000 0.09700  0.00900  0.50000  Biso   1.000  H
  H75      1.0000 0.59700  0.49100  0.00000  Biso   1.000  H
  H76      1.0000 0.09700  0.99100  0.00000  Biso   1.000  H
  H77      1.0000 0.40300  0.49100  0.50000  Biso   1.000  H
  H78      1.0000 0.90300  0.99100  0.50000  Biso   1.000  H
  H79      1.0000 0.40300  0.50900  0.00000  Biso   1.000  H
  H80      1.0000 0.90300  0.00900  0.00000  Biso   1.000  H
