data_image0
_cell_length_a       17.5431
_cell_length_b       8.8809
_cell_length_c       21.5741
_cell_angle_alpha    90
_cell_angle_beta     105.17
_cell_angle_gamma    90

_symmetry_space_group_name_H-M    "P 1"
_symmetry_int_tables_number       1

loop_
  _symmetry_equiv_pos_as_xyz
  'x, y, z'

loop_
  _atom_site_label
  _atom_site_occupancy
  _atom_site_fract_x
  _atom_site_fract_y
  _atom_site_fract_z
  _atom_site_thermal_displace_type
  _atom_site_B_iso_or_equiv
  _atom_site_type_symbol
  Cu1      1.0000 0.43026  0.28002  0.31692  Biso   1.000  Cu
  Cu2      1.0000 0.93026  0.21998  0.81692  Biso   1.000  Cu
  Cu3      1.0000 0.56974  0.71998  0.68308  Biso   1.000  Cu
  Cu4      1.0000 0.06974  0.78002  0.18308  Biso   1.000  Cu
  Cu5      1.0000 0.64704  0.16950  0.19461  Biso   1.000  Cu
  Cu6      1.0000 0.14704  0.33050  0.69461  Biso   1.000  Cu
  Cu7      1.0000 0.35296  0.83050  0.80539  Biso   1.000  Cu
  Cu8      1.0000 0.85296  0.66950  0.30539  Biso   1.000  Cu
  C1       1.0000 0.50908  0.17550  0.23236  Biso   1.000  C
  C2       1.0000 0.00908  0.32450  0.73236  Biso   1.000  C
  C3       1.0000 0.49092  0.82450  0.76764  Biso   1.000  C
  C4       1.0000 0.99092  0.67550  0.26764  Biso   1.000  C
  C5       1.0000 0.57023  0.26200  0.28254  Biso   1.000  C
  C6       1.0000 0.07023  0.23800  0.78254  Biso   1.000  C
  C7       1.0000 0.42977  0.73800  0.71746  Biso   1.000  C
  C8       1.0000 0.92977  0.76200  0.21746  Biso   1.000  C
  C9       1.0000 0.58213  0.41120  0.37874  Biso   1.000  C
  C10      1.0000 0.08213  0.08880  0.87874  Biso   1.000  C
  C11      1.0000 0.41787  0.58880  0.62126  Biso   1.000  C
  C12      1.0000 0.91787  0.91120  0.12126  Biso   1.000  C
  H1       1.0000 0.61000  0.34400  0.41790  Biso   1.000  H
  H2       1.0000 0.11000  0.15600  0.91790  Biso   1.000  H
  H3       1.0000 0.39000  0.65600  0.58210  Biso   1.000  H
  H4       1.0000 0.89000  0.84400  0.08210  Biso   1.000  H
  H5       1.0000 0.61100  0.47900  0.36950  Biso   1.000  H
  H6       1.0000 0.11100  0.02100  0.86950  Biso   1.000  H
  H7       1.0000 0.38900  0.52100  0.63050  Biso   1.000  H
  H8       1.0000 0.88900  0.97900  0.13050  Biso   1.000  H
  C13      1.0000 0.52131  0.50010  0.40084  Biso   1.000  C
  C14      1.0000 0.02131  0.99990  0.90084  Biso   1.000  C
  C15      1.0000 0.47869  0.49990  0.59916  Biso   1.000  C
  C16      1.0000 0.97869  0.00010  0.09916  Biso   1.000  C
  C17      1.0000 0.54090  0.62360  0.44143  Biso   1.000  C
  C18      1.0000 0.04090  0.87640  0.94143  Biso   1.000  C
  C19      1.0000 0.45910  0.37640  0.55857  Biso   1.000  C
  C20      1.0000 0.95910  0.12360  0.05857  Biso   1.000  C
  H9       1.0000 0.58100  0.62900  0.46300  Biso   1.000  H
  H10      1.0000 0.08100  0.87100  0.96300  Biso   1.000  H
  H11      1.0000 0.41900  0.37100  0.53700  Biso   1.000  H
  H12      1.0000 0.91900  0.12900  0.03700  Biso   1.000  H
  C21      1.0000 0.48210  0.70070  0.45920  Biso   1.000  C
  C22      1.0000 0.98210  0.79930  0.95920  Biso   1.000  C
  C23      1.0000 0.51790  0.29930  0.54080  Biso   1.000  C
  C24      1.0000 0.01790  0.20070  0.04080  Biso   1.000  C
  H13      1.0000 0.49600  0.78100  0.48770  Biso   1.000  H
  H14      1.0000 0.99600  0.71900  0.98770  Biso   1.000  H
  H15      1.0000 0.50400  0.21900  0.51230  Biso   1.000  H
  H16      1.0000 0.00400  0.28100  0.01230  Biso   1.000  H
  C25      1.0000 0.40550  0.65350  0.43680  Biso   1.000  C
  C26      1.0000 0.90550  0.84650  0.93680  Biso   1.000  C
  C27      1.0000 0.59450  0.34650  0.56320  Biso   1.000  C
  C28      1.0000 0.09450  0.15350  0.06320  Biso   1.000  C
  H17      1.0000 0.36490  0.70440  0.44840  Biso   1.000  H
  H18      1.0000 0.86490  0.79560  0.94840  Biso   1.000  H
  H19      1.0000 0.63510  0.29560  0.55160  Biso   1.000  H
  H20      1.0000 0.13510  0.20440  0.05160  Biso   1.000  H
  C29      1.0000 0.38960  0.53280  0.39808  Biso   1.000  C
  C30      1.0000 0.88960  0.96720  0.89808  Biso   1.000  C
  C31      1.0000 0.61040  0.46720  0.60192  Biso   1.000  C
  C32      1.0000 0.11040  0.03280  0.10192  Biso   1.000  C
  H21      1.0000 0.34300  0.49300  0.38200  Biso   1.000  H
  H22      1.0000 0.84300  0.00700  0.88200  Biso   1.000  H
  H23      1.0000 0.65700  0.50700  0.61800  Biso   1.000  H
  H24      1.0000 0.15700  0.99300  0.11800  Biso   1.000  H
  C33      1.0000 0.49615  0.03510  0.13268  Biso   1.000  C
  C34      1.0000 0.99615  0.46490  0.63268  Biso   1.000  C
  C35      1.0000 0.50385  0.96490  0.86732  Biso   1.000  C
  C36      1.0000 0.00385  0.53510  0.36732  Biso   1.000  C
  H25      1.0000 0.46550  0.10000  0.09920  Biso   1.000  H
  H26      1.0000 0.96550  0.40000  0.59920  Biso   1.000  H
  H27      1.0000 0.53450  0.90000  0.90080  Biso   1.000  H
  H28      1.0000 0.03450  0.60000  0.40080  Biso   1.000  H
  H29      1.0000 0.46050  0.96510  0.14530  Biso   1.000  H
  H30      1.0000 0.96050  0.53490  0.64530  Biso   1.000  H
  H31      1.0000 0.53950  0.03490  0.85470  Biso   1.000  H
  H32      1.0000 0.03950  0.46510  0.35470  Biso   1.000  H
  C37      1.0000 0.55713  0.95090  0.10880  Biso   1.000  C
  C38      1.0000 0.05713  0.54910  0.60880  Biso   1.000  C
  C39      1.0000 0.44287  0.04910  0.89120  Biso   1.000  C
  C40      1.0000 0.94287  0.45090  0.39120  Biso   1.000  C
  C41      1.0000 0.53790  0.83730  0.06450  Biso   1.000  C
  C42      1.0000 0.03790  0.66270  0.56450  Biso   1.000  C
  C43      1.0000 0.46210  0.16270  0.93550  Biso   1.000  C
  C44      1.0000 0.96210  0.33730  0.43550  Biso   1.000  C
  H33      1.0000 0.49700  0.82300  0.04700  Biso   1.000  H
  H34      1.0000 0.99700  0.67700  0.54700  Biso   1.000  H
  H35      1.0000 0.50300  0.17700  0.95300  Biso   1.000  H
  H36      1.0000 0.00300  0.32300  0.45300  Biso   1.000  H
  C45      1.0000 0.59640  0.75880  0.04730  Biso   1.000  C
  C46      1.0000 0.09640  0.74120  0.54730  Biso   1.000  C
  C47      1.0000 0.40360  0.24120  0.95270  Biso   1.000  C
  C48      1.0000 0.90360  0.25880  0.45270  Biso   1.000  C
  H37      1.0000 0.58370  0.68040  0.01780  Biso   1.000  H
  H38      1.0000 0.08370  0.81960  0.51780  Biso   1.000  H
  H39      1.0000 0.41630  0.31960  0.98220  Biso   1.000  H
  H40      1.0000 0.91630  0.18040  0.48220  Biso   1.000  H
  C49      1.0000 0.67360  0.79690  0.07410  Biso   1.000  C
  C50      1.0000 0.17360  0.70310  0.57410  Biso   1.000  C
  C51      1.0000 0.32640  0.20310  0.92590  Biso   1.000  C
  C52      1.0000 0.82640  0.29690  0.42590  Biso   1.000  C
  H41      1.0000 0.71420  0.74390  0.06350  Biso   1.000  H
  H42      1.0000 0.21420  0.75610  0.56350  Biso   1.000  H
  H43      1.0000 0.28580  0.25610  0.93650  Biso   1.000  H
  H44      1.0000 0.78580  0.24390  0.43650  Biso   1.000  H
  C53      1.0000 0.69000  0.91400  0.11650  Biso   1.000  C
  C54      1.0000 0.19000  0.58600  0.61650  Biso   1.000  C
  C55      1.0000 0.31000  0.08600  0.88350  Biso   1.000  C
  C56      1.0000 0.81000  0.41400  0.38350  Biso   1.000  C
  H45      1.0000 0.74000  0.95500  0.13700  Biso   1.000  H
  H46      1.0000 0.24000  0.54500  0.63700  Biso   1.000  H
  H47      1.0000 0.26000  0.04500  0.86300  Biso   1.000  H
  H48      1.0000 0.76000  0.45500  0.36300  Biso   1.000  H
  C57      1.0000 0.27630  0.21270  0.33870  Biso   1.000  C
  C58      1.0000 0.77630  0.28730  0.83870  Biso   1.000  C
  C59      1.0000 0.72370  0.78730  0.66130  Biso   1.000  C
  C60      1.0000 0.22370  0.71270  0.16130  Biso   1.000  C
  H49      1.0000 0.30540  0.17950  0.37880  Biso   1.000  H
  H50      1.0000 0.80540  0.32050  0.87880  Biso   1.000  H
  H51      1.0000 0.69460  0.82050  0.62120  Biso   1.000  H
  H52      1.0000 0.19460  0.67950  0.12120  Biso   1.000  H
  C61      1.0000 0.19550  0.20660  0.32360  Biso   1.000  C
  C62      1.0000 0.69550  0.29340  0.82360  Biso   1.000  C
  C63      1.0000 0.80450  0.79340  0.67640  Biso   1.000  C
  C64      1.0000 0.30450  0.70660  0.17640  Biso   1.000  C
  H53      1.0000 0.17160  0.16600  0.35350  Biso   1.000  H
  H54      1.0000 0.67160  0.33400  0.85350  Biso   1.000  H
  H55      1.0000 0.82840  0.83400  0.64650  Biso   1.000  H
  H56      1.0000 0.32840  0.66600  0.14650  Biso   1.000  H
  C65      1.0000 0.14860  0.25720  0.26690  Biso   1.000  C
  C66      1.0000 0.64860  0.24280  0.76690  Biso   1.000  C
  C67      1.0000 0.85140  0.74280  0.73310  Biso   1.000  C
  C68      1.0000 0.35140  0.75720  0.23310  Biso   1.000  C
  C69      1.0000 0.18790  0.31550  0.22620  Biso   1.000  C
  C70      1.0000 0.68790  0.18450  0.72620  Biso   1.000  C
  C71      1.0000 0.81210  0.68450  0.77380  Biso   1.000  C
  C72      1.0000 0.31210  0.81550  0.27380  Biso   1.000  C
  H57      1.0000 0.15940  0.35440  0.18700  Biso   1.000  H
  H58      1.0000 0.65940  0.14560  0.68700  Biso   1.000  H
  H59      1.0000 0.84060  0.64560  0.81300  Biso   1.000  H
  H60      1.0000 0.34060  0.85440  0.31300  Biso   1.000  H
  C73      1.0000 0.26940  0.31840  0.24160  Biso   1.000  C
  C74      1.0000 0.76940  0.18160  0.74160  Biso   1.000  C
  C75      1.0000 0.73060  0.68160  0.75840  Biso   1.000  C
  C76      1.0000 0.23060  0.81840  0.25840  Biso   1.000  C
  H61      1.0000 0.29390  0.35920  0.21210  Biso   1.000  H
  H62      1.0000 0.79390  0.14080  0.71210  Biso   1.000  H
  H63      1.0000 0.70610  0.64080  0.78790  Biso   1.000  H
  H64      1.0000 0.20610  0.85920  0.28790  Biso   1.000  H
  C77      1.0000 0.06060  0.28940  0.23190  Biso   1.000  C
  C78      1.0000 0.56060  0.21060  0.73190  Biso   1.000  C
  C79      1.0000 0.93940  0.71060  0.76810  Biso   1.000  C
  C80      1.0000 0.43940  0.78940  0.26810  Biso   1.000  C
  C81      1.0000 0.01320  0.21910  0.26400  Biso   1.000  C
  C82      1.0000 0.51320  0.28090  0.76400  Biso   1.000  C
  C83      1.0000 0.98680  0.78090  0.73600  Biso   1.000  C
  C84      1.0000 0.48680  0.71910  0.23600  Biso   1.000  C
  C85      1.0000 0.06590  0.21390  0.27540  Biso   1.000  C
  C86      1.0000 0.56590  0.28610  0.77540  Biso   1.000  C
  C87      1.0000 0.93410  0.78610  0.72460  Biso   1.000  C
  C88      1.0000 0.43410  0.71390  0.22460  Biso   1.000  C
  C89      1.0000 0.01060  0.27400  0.23180  Biso   1.000  C
  C90      1.0000 0.51060  0.22600  0.73180  Biso   1.000  C
  C91      1.0000 0.98940  0.72600  0.76820  Biso   1.000  C
  C92      1.0000 0.48940  0.77400  0.26820  Biso   1.000  C
  C93      1.0000 0.92630  0.23520  0.23530  Biso   1.000  C
  C94      1.0000 0.42630  0.26480  0.73530  Biso   1.000  C
  C95      1.0000 0.07370  0.76480  0.76470  Biso   1.000  C
  C96      1.0000 0.57370  0.73520  0.26470  Biso   1.000  C
  C97      1.0000 0.89180  0.15030  0.27370  Biso   1.000  C
  C98      1.0000 0.39180  0.34970  0.77370  Biso   1.000  C
  C99      1.0000 0.10820  0.84970  0.72630  Biso   1.000  C
  C100     1.0000 0.60820  0.65030  0.22630  Biso   1.000  C
  H65      1.0000 0.92350  0.10060  0.30910  Biso   1.000  H
  H66      1.0000 0.42350  0.39940  0.80910  Biso   1.000  H
  H67      1.0000 0.07650  0.89940  0.69090  Biso   1.000  H
  H68      1.0000 0.57650  0.60060  0.19090  Biso   1.000  H
  C101     1.0000 0.81140  0.13760  0.26088  Biso   1.000  C
  C102     1.0000 0.31140  0.36240  0.76088  Biso   1.000  C
  C103     1.0000 0.18860  0.86240  0.73912  Biso   1.000  C
  C104     1.0000 0.68860  0.63760  0.23912  Biso   1.000  C
  H69      1.0000 0.79000  0.08100  0.28340  Biso   1.000  H
  H70      1.0000 0.29000  0.41900  0.78340  Biso   1.000  H
  H71      1.0000 0.21000  0.91900  0.71660  Biso   1.000  H
  H72      1.0000 0.71000  0.58100  0.21660  Biso   1.000  H
  C105     1.0000 0.79450  0.28840  0.17300  Biso   1.000  C
  C106     1.0000 0.29450  0.21160  0.67300  Biso   1.000  C
  C107     1.0000 0.20550  0.71160  0.82700  Biso   1.000  C
  C108     1.0000 0.70550  0.78840  0.32700  Biso   1.000  C
  H73      1.0000 0.76900  0.31600  0.14200  Biso   1.000  H
  H74      1.0000 0.26900  0.18400  0.64200  Biso   1.000  H
  H75      1.0000 0.23100  0.68400  0.85800  Biso   1.000  H
  H76      1.0000 0.73100  0.81600  0.35800  Biso   1.000  H
  C109     1.0000 0.87450  0.30690  0.18370  Biso   1.000  C
  C110     1.0000 0.37450  0.19310  0.68370  Biso   1.000  C
  C111     1.0000 0.12550  0.69310  0.81630  Biso   1.000  C
  C112     1.0000 0.62550  0.80690  0.31630  Biso   1.000  C
  H77      1.0000 0.89420  0.36780  0.15640  Biso   1.000  H
  H78      1.0000 0.39420  0.13220  0.65640  Biso   1.000  H
  H79      1.0000 0.10580  0.63220  0.84360  Biso   1.000  H
  H80      1.0000 0.60580  0.86780  0.34360  Biso   1.000  H
  N1       1.0000 0.44616  0.45520  0.37942  Biso   1.000  N
  N2       1.0000 0.94616  0.04480  0.87942  Biso   1.000  N
  N3       1.0000 0.55384  0.54480  0.62058  Biso   1.000  N
  N4       1.0000 0.05384  0.95520  0.12058  Biso   1.000  N
  N5       1.0000 0.54047  0.31460  0.32680  Biso   1.000  N
  N6       1.0000 0.04047  0.18540  0.82680  Biso   1.000  N
  N7       1.0000 0.45953  0.68540  0.67320  Biso   1.000  N
  N8       1.0000 0.95953  0.81460  0.17320  Biso   1.000  N
  N9       1.0000 0.53796  0.12440  0.18750  Biso   1.000  N
  N10      1.0000 0.03796  0.37560  0.68750  Biso   1.000  N
  N11      1.0000 0.46204  0.87560  0.81250  Biso   1.000  N
  N12      1.0000 0.96204  0.62440  0.31250  Biso   1.000  N
  N13      1.0000 0.63330  0.99170  0.13402  Biso   1.000  N
  N14      1.0000 0.13330  0.50830  0.63402  Biso   1.000  N
  N15      1.0000 0.36670  0.00830  0.86598  Biso   1.000  N
  N16      1.0000 0.86670  0.49170  0.36598  Biso   1.000  N
  N17      1.0000 0.31432  0.26570  0.29656  Biso   1.000  N
  N18      1.0000 0.81432  0.23430  0.79656  Biso   1.000  N
  N19      1.0000 0.68568  0.73430  0.70344  Biso   1.000  N
  N20      1.0000 0.18568  0.76570  0.20344  Biso   1.000  N
  N21      1.0000 0.76197  0.20380  0.21091  Biso   1.000  N
  N22      1.0000 0.26197  0.29620  0.71091  Biso   1.000  N
  N23      1.0000 0.23803  0.79620  0.78909  Biso   1.000  N
  N24      1.0000 0.73803  0.70380  0.28909  Biso   1.000  N
  N25      1.0000 0.65580  0.01840  0.48732  Biso   1.000  N
  N26      1.0000 0.15580  0.48160  0.98732  Biso   1.000  N
  N27      1.0000 0.34420  0.98160  0.51268  Biso   1.000  N
  N28      1.0000 0.84420  0.51840  0.01268  Biso   1.000  N
  N29      1.0000 0.27160  0.92960  0.01520  Biso   1.000  N
  N30      1.0000 0.77160  0.57040  0.51520  Biso   1.000  N
  N31      1.0000 0.72840  0.07040  0.98480  Biso   1.000  N
  N32      1.0000 0.22840  0.42960  0.48480  Biso   1.000  N
  O1       1.0000 0.60935  0.35960  0.12086  Biso   1.000  O
  O2       1.0000 0.10935  0.14040  0.62086  Biso   1.000  O
  O3       1.0000 0.39065  0.64040  0.87914  Biso   1.000  O
  O4       1.0000 0.89065  0.85960  0.37914  Biso   1.000  O
  H81      1.0000 0.61500  0.35500  0.09190  Biso   1.000  H
  H82      1.0000 0.11500  0.14500  0.59190  Biso   1.000  H
  H83      1.0000 0.38500  0.64500  0.90810  Biso   1.000  H
  H84      1.0000 0.88500  0.85500  0.40810  Biso   1.000  H
  O5       1.0000 0.43899  0.16290  0.23906  Biso   1.000  O
  O6       1.0000 0.93899  0.33710  0.73906  Biso   1.000  O
  O7       1.0000 0.56101  0.83710  0.76094  Biso   1.000  O
  O8       1.0000 0.06101  0.66290  0.26094  Biso   1.000  O
  O9       1.0000 0.45190  0.07390  0.38728  Biso   1.000  O
  O10      1.0000 0.95190  0.42610  0.88728  Biso   1.000  O
  O11      1.0000 0.54810  0.92610  0.61272  Biso   1.000  O
  O12      1.0000 0.04810  0.57390  0.11272  Biso   1.000  O
  H85      1.0000 0.43200  0.05200  0.40900  Biso   1.000  H
  H86      1.0000 0.93200  0.44800  0.90900  Biso   1.000  H
  H87      1.0000 0.56800  0.94800  0.59100  Biso   1.000  H
  H88      1.0000 0.06800  0.55200  0.09100  Biso   1.000  H
  O13      1.0000 0.63989  0.27640  0.27570  Biso   1.000  O
  O14      1.0000 0.13989  0.22360  0.77570  Biso   1.000  O
  O15      1.0000 0.36011  0.72360  0.72430  Biso   1.000  O
  O16      1.0000 0.86011  0.77640  0.22430  Biso   1.000  O
  O17      1.0000 0.35481  0.60430  0.99753  Biso   1.000  O
  O18      1.0000 0.85481  0.89570  0.49753  Biso   1.000  O
  O19      1.0000 0.64519  0.39570  0.00247  Biso   1.000  O
  O20      1.0000 0.14519  0.10430  0.50247  Biso   1.000  O
  H89      1.0000 0.33790  0.70400  0.00550  Biso   1.000  H
  H90      1.0000 0.83790  0.79600  0.50550  Biso   1.000  H
  H91      1.0000 0.66210  0.29600  0.99450  Biso   1.000  H
  H92      1.0000 0.16210  0.20400  0.49450  Biso   1.000  H
  O21      1.0000 0.64300  0.05810  0.43060  Biso   1.000  O
  O22      1.0000 0.14300  0.44190  0.93060  Biso   1.000  O
  O23      1.0000 0.35700  0.94190  0.56940  Biso   1.000  O
  O24      1.0000 0.85700  0.55810  0.06940  Biso   1.000  O
  O25      1.0000 0.69900  0.04240  0.45430  Biso   1.000  O
  O26      1.0000 0.19900  0.45760  0.95430  Biso   1.000  O
  O27      1.0000 0.30100  0.95760  0.54570  Biso   1.000  O
  O28      1.0000 0.80100  0.54240  0.04570  Biso   1.000  O
  O29      1.0000 0.45630  0.45830  0.10685  Biso   1.000  O
  O30      1.0000 0.95630  0.04170  0.60685  Biso   1.000  O
  O31      1.0000 0.54370  0.54170  0.89315  Biso   1.000  O
  O32      1.0000 0.04370  0.95830  0.39315  Biso   1.000  O
  H93      1.0000 0.43700  0.51400  0.08900  Biso   1.000  H
  H94      1.0000 0.93700  0.98600  0.58900  Biso   1.000  H
  H95      1.0000 0.56300  0.48600  0.91100  Biso   1.000  H
  H96      1.0000 0.06300  0.01400  0.41100  Biso   1.000  H
  O33      1.0000 0.59580  0.99070  0.50120  Biso   1.000  O
  O34      1.0000 0.09580  0.50930  0.00120  Biso   1.000  O
  O35      1.0000 0.40420  0.00930  0.49880  Biso   1.000  O
  O36      1.0000 0.90420  0.49070  0.99880  Biso   1.000  O
  O37      1.0000 0.58720  0.99730  0.46590  Biso   1.000  O
  O38      1.0000 0.08720  0.50270  0.96590  Biso   1.000  O
  O39      1.0000 0.41280  0.00270  0.53410  Biso   1.000  O
  O40      1.0000 0.91280  0.49730  0.03410  Biso   1.000  O
  O41      1.0000 0.32970  0.27200  0.10850  Biso   1.000  O
  O42      1.0000 0.82970  0.22800  0.60850  Biso   1.000  O
  O43      1.0000 0.67030  0.72800  0.89150  Biso   1.000  O
  O44      1.0000 0.17030  0.77200  0.39150  Biso   1.000  O
  H97      1.0000 0.31700  0.36200  0.11340  Biso   1.000  H
  H98      1.0000 0.81700  0.13800  0.61340  Biso   1.000  H
  H99      1.0000 0.68300  0.63800  0.88660  Biso   1.000  H
  H100     1.0000 0.18300  0.86200  0.38660  Biso   1.000  H
  O45      1.0000 0.71610  0.02200  0.52840  Biso   1.000  O
  O46      1.0000 0.21610  0.47800  0.02840  Biso   1.000  O
  O47      1.0000 0.28390  0.97800  0.47160  Biso   1.000  O
  O48      1.0000 0.78390  0.52200  0.97160  Biso   1.000  O
  O49      1.0000 0.67670  0.00340  0.54350  Biso   1.000  O
  O50      1.0000 0.17670  0.49660  0.04350  Biso   1.000  O
  O51      1.0000 0.32330  0.99660  0.45650  Biso   1.000  O
  O52      1.0000 0.82330  0.50340  0.95650  Biso   1.000  O
  O53      1.0000 0.34070  0.89070  0.04370  Biso   1.000  O
  O54      1.0000 0.84070  0.60930  0.54370  Biso   1.000  O
  O55      1.0000 0.65930  0.10930  0.95630  Biso   1.000  O
  O56      1.0000 0.15930  0.39070  0.45630  Biso   1.000  O
  O57      1.0000 0.24110  0.04760  0.02600  Biso   1.000  O
  O58      1.0000 0.74110  0.45240  0.52600  Biso   1.000  O
  O59      1.0000 0.75890  0.95240  0.97400  Biso   1.000  O
  O60      1.0000 0.25890  0.54760  0.47400  Biso   1.000  O
  O61      1.0000 0.23690  0.84750  0.97280  Biso   1.000  O
  O62      1.0000 0.73690  0.65250  0.47280  Biso   1.000  O
  O63      1.0000 0.76310  0.15250  0.02720  Biso   1.000  O
  O64      1.0000 0.26310  0.34750  0.52720  Biso   1.000  O
