data_image0
_cell_length_a       9.6028
_cell_length_b       15.4336
_cell_length_c       15.7975
_cell_angle_alpha    90
_cell_angle_beta     104.869
_cell_angle_gamma    90

_symmetry_space_group_name_H-M    "P 1"
_symmetry_int_tables_number       1

loop_
  _symmetry_equiv_pos_as_xyz
  'x, y, z'

loop_
  _atom_site_label
  _atom_site_occupancy
  _atom_site_fract_x
  _atom_site_fract_y
  _atom_site_fract_z
  _atom_site_thermal_displace_type
  _atom_site_B_iso_or_equiv
  _atom_site_type_symbol
  Cu1      1.0000 0.57329  0.33368  0.00611  Biso   1.000  Cu
  Cu2      1.0000 0.57329  0.16632  0.50611  Biso   1.000  Cu
  Cu3      1.0000 0.42671  0.66632  0.99389  Biso   1.000  Cu
  Cu4      1.0000 0.42671  0.83368  0.49389  Biso   1.000  Cu
  O1       1.0000 0.63875  0.44918  0.96294  Biso   1.000  O
  O2       1.0000 0.63875  0.05082  0.46294  Biso   1.000  O
  O3       1.0000 0.36125  0.55082  0.03706  Biso   1.000  O
  O4       1.0000 0.36125  0.94918  0.53706  Biso   1.000  O
  N1       1.0000 0.75954  0.28149  0.99202  Biso   1.000  N
  N2       1.0000 0.75954  0.21851  0.49202  Biso   1.000  N
  N3       1.0000 0.24046  0.71851  0.00798  Biso   1.000  N
  N4       1.0000 0.24046  0.78149  0.50798  Biso   1.000  N
  H1       1.0000 0.74500  0.27530  0.94580  Biso   1.000  H
  H2       1.0000 0.74500  0.22470  0.44580  Biso   1.000  H
  H3       1.0000 0.25500  0.72470  0.05420  Biso   1.000  H
  H4       1.0000 0.25500  0.77530  0.55420  Biso   1.000  H
  H5       1.0000 0.81100  0.31860  0.00800  Biso   1.000  H
  H6       1.0000 0.81100  0.18140  0.50800  Biso   1.000  H
  H7       1.0000 0.18900  0.68140  0.99200  Biso   1.000  H
  H8       1.0000 0.18900  0.81860  0.49200  Biso   1.000  H
  N5       1.0000 0.55805  0.69015  0.13855  Biso   1.000  N
  N6       1.0000 0.55805  0.80985  0.63855  Biso   1.000  N
  N7       1.0000 0.44195  0.30985  0.86145  Biso   1.000  N
  N8       1.0000 0.44195  0.19015  0.36145  Biso   1.000  N
  H9       1.0000 0.49700  0.70220  0.16310  Biso   1.000  H
  H10      1.0000 0.49700  0.79780  0.66310  Biso   1.000  H
  H11      1.0000 0.50300  0.29780  0.83690  Biso   1.000  H
  H12      1.0000 0.50300  0.20220  0.33690  Biso   1.000  H
  H13      1.0000 0.58900  0.64530  0.14890  Biso   1.000  H
  H14      1.0000 0.58900  0.85470  0.64890  Biso   1.000  H
  H15      1.0000 0.41100  0.35470  0.85110  Biso   1.000  H
  H16      1.0000 0.41100  0.14530  0.35110  Biso   1.000  H
  N9       1.0000 0.56483  0.59199  0.96082  Biso   1.000  N
  N10      1.0000 0.56483  0.90801  0.46082  Biso   1.000  N
  N11      1.0000 0.43517  0.40801  0.03918  Biso   1.000  N
  N12      1.0000 0.43517  0.09199  0.53918  Biso   1.000  N
  N13      1.0000 0.52599  0.75616  0.93420  Biso   1.000  N
  N14      1.0000 0.52599  0.74384  0.43420  Biso   1.000  N
  N15      1.0000 0.47401  0.24384  0.06580  Biso   1.000  N
  N16      1.0000 0.47401  0.25616  0.56580  Biso   1.000  N
  C1       1.0000 0.81853  0.20157  0.03429  Biso   1.000  C
  C2       1.0000 0.81853  0.29843  0.53429  Biso   1.000  C
  C3       1.0000 0.18147  0.79843  0.96571  Biso   1.000  C
  C4       1.0000 0.18147  0.70157  0.46571  Biso   1.000  C
  C5       1.0000 0.80030  0.12466  0.98849  Biso   1.000  C
  C6       1.0000 0.80030  0.37534  0.48849  Biso   1.000  C
  C7       1.0000 0.19970  0.87534  0.01151  Biso   1.000  C
  C8       1.0000 0.19970  0.62466  0.51151  Biso   1.000  C
  H17      1.0000 0.75200  0.12940  0.93430  Biso   1.000  H
  H18      1.0000 0.75200  0.37060  0.43430  Biso   1.000  H
  H19      1.0000 0.24800  0.87060  0.06570  Biso   1.000  H
  H20      1.0000 0.24800  0.62940  0.56570  Biso   1.000  H
  C9       1.0000 0.84910  0.04746  0.03070  Biso   1.000  C
  C10      1.0000 0.84910  0.45254  0.53070  Biso   1.000  C
  C11      1.0000 0.15090  0.95254  0.96930  Biso   1.000  C
  C12      1.0000 0.15090  0.54746  0.46930  Biso   1.000  C
  H21      1.0000 0.83880  0.98910  0.99970  Biso   1.000  H
  H22      1.0000 0.83880  0.51090  0.49970  Biso   1.000  H
  H23      1.0000 0.16120  0.01090  0.00030  Biso   1.000  H
  H24      1.0000 0.16120  0.48910  0.50030  Biso   1.000  H
  C13      1.0000 0.91747  0.04633  0.11965  Biso   1.000  C
  C14      1.0000 0.91747  0.45367  0.61965  Biso   1.000  C
  C15      1.0000 0.08253  0.95367  0.88035  Biso   1.000  C
  C16      1.0000 0.08253  0.54633  0.38035  Biso   1.000  C
  C17      1.0000 0.93690  0.12500  0.16412  Biso   1.000  C
  C18      1.0000 0.93690  0.37500  0.66412  Biso   1.000  C
  C19      1.0000 0.06310  0.87500  0.83588  Biso   1.000  C
  C20      1.0000 0.06310  0.62500  0.33588  Biso   1.000  C
  H25      1.0000 0.97800  0.12750  0.21550  Biso   1.000  H
  H26      1.0000 0.97800  0.37250  0.71550  Biso   1.000  H
  H27      1.0000 0.02200  0.87250  0.78450  Biso   1.000  H
  H28      1.0000 0.02200  0.62750  0.28450  Biso   1.000  H
  C21      1.0000 0.88800  0.20213  0.12285  Biso   1.000  C
  C22      1.0000 0.88800  0.29787  0.62285  Biso   1.000  C
  C23      1.0000 0.11200  0.79787  0.87715  Biso   1.000  C
  C24      1.0000 0.11200  0.70213  0.37715  Biso   1.000  C
  H29      1.0000 0.89800  0.25790  0.15620  Biso   1.000  H
  H30      1.0000 0.89800  0.24210  0.65620  Biso   1.000  H
  H31      1.0000 0.10200  0.74210  0.84380  Biso   1.000  H
  H32      1.0000 0.10200  0.75790  0.34380  Biso   1.000  H
  C25      1.0000 0.97280  0.96262  0.16619  Biso   1.000  C
  C26      1.0000 0.97280  0.53738  0.66619  Biso   1.000  C
  C27      1.0000 0.02720  0.03738  0.83381  Biso   1.000  C
  C28      1.0000 0.02720  0.46262  0.33381  Biso   1.000  C
  H33      1.0000 0.06500  0.94500  0.14550  Biso   1.000  H
  H34      1.0000 0.06500  0.55500  0.64550  Biso   1.000  H
  H35      1.0000 0.93500  0.05500  0.85450  Biso   1.000  H
  H36      1.0000 0.93500  0.44500  0.35450  Biso   1.000  H
  H37      1.0000 0.01400  0.97700  0.22690  Biso   1.000  H
  H38      1.0000 0.01400  0.52300  0.72690  Biso   1.000  H
  H39      1.0000 0.98600  0.02300  0.77310  Biso   1.000  H
  H40      1.0000 0.98600  0.47700  0.27310  Biso   1.000  H
  C29      1.0000 0.86342  0.89083  0.15692  Biso   1.000  C
  C30      1.0000 0.86342  0.60917  0.65692  Biso   1.000  C
  C31      1.0000 0.13658  0.10917  0.84308  Biso   1.000  C
  C32      1.0000 0.13658  0.39083  0.34308  Biso   1.000  C
  C33      1.0000 0.89560  0.80640  0.14000  Biso   1.000  C
  C34      1.0000 0.89560  0.69360  0.64000  Biso   1.000  C
  C35      1.0000 0.10440  0.19360  0.86000  Biso   1.000  C
  C36      1.0000 0.10440  0.30640  0.36000  Biso   1.000  C
  H41      1.0000 0.98200  0.79130  0.13140  Biso   1.000  H
  H42      1.0000 0.98200  0.70870  0.63140  Biso   1.000  H
  H43      1.0000 0.01800  0.20870  0.86860  Biso   1.000  H
  H44      1.0000 0.01800  0.29130  0.36860  Biso   1.000  H
  C37      1.0000 0.79720  0.74018  0.13498  Biso   1.000  C
  C38      1.0000 0.79720  0.75982  0.63498  Biso   1.000  C
  C39      1.0000 0.20280  0.25982  0.86502  Biso   1.000  C
  C40      1.0000 0.20280  0.24018  0.36502  Biso   1.000  C
  H45      1.0000 0.82500  0.68520  0.13000  Biso   1.000  H
  H46      1.0000 0.82500  0.81480  0.63000  Biso   1.000  H
  H47      1.0000 0.17500  0.31480  0.87000  Biso   1.000  H
  H48      1.0000 0.17500  0.18520  0.37000  Biso   1.000  H
  C41      1.0000 0.66247  0.75679  0.14796  Biso   1.000  C
  C42      1.0000 0.66247  0.74321  0.64796  Biso   1.000  C
  C43      1.0000 0.33753  0.24321  0.85204  Biso   1.000  C
  C44      1.0000 0.33753  0.25679  0.35204  Biso   1.000  C
  C45      1.0000 0.62860  0.84091  0.16599  Biso   1.000  C
  C46      1.0000 0.62860  0.65909  0.66599  Biso   1.000  C
  C47      1.0000 0.37140  0.15909  0.83401  Biso   1.000  C
  C48      1.0000 0.37140  0.34091  0.33401  Biso   1.000  C
  H49      1.0000 0.54010  0.85720  0.17180  Biso   1.000  H
  H50      1.0000 0.54010  0.64280  0.67180  Biso   1.000  H
  H51      1.0000 0.45990  0.14280  0.82820  Biso   1.000  H
  H52      1.0000 0.45990  0.35720  0.32820  Biso   1.000  H
  C49      1.0000 0.72820  0.90688  0.17023  Biso   1.000  C
  C50      1.0000 0.72820  0.59312  0.67023  Biso   1.000  C
  C51      1.0000 0.27180  0.09312  0.82977  Biso   1.000  C
  C52      1.0000 0.27180  0.40688  0.32977  Biso   1.000  C
  H53      1.0000 0.70300  0.96540  0.18380  Biso   1.000  H
  H54      1.0000 0.70300  0.53460  0.68380  Biso   1.000  H
  H55      1.0000 0.29700  0.03460  0.81620  Biso   1.000  H
  H56      1.0000 0.29700  0.46540  0.31620  Biso   1.000  H
  C53      1.0000 0.55925  0.51049  0.97811  Biso   1.000  C
  C54      1.0000 0.55925  0.98951  0.47811  Biso   1.000  C
  C55      1.0000 0.44075  0.48951  0.02189  Biso   1.000  C
  C56      1.0000 0.44075  0.01049  0.52189  Biso   1.000  C
  H57      1.0000 0.50000  0.50000  0.00000  Biso   1.000  H
  H58      1.0000 0.50000  0.00000  0.50000  Biso   1.000  H
  C57      1.0000 0.66530  0.62916  0.91671  Biso   1.000  C
  C58      1.0000 0.66530  0.87084  0.41671  Biso   1.000  C
  C59      1.0000 0.33470  0.37084  0.08329  Biso   1.000  C
  C60      1.0000 0.33470  0.12916  0.58329  Biso   1.000  C
  H59      1.0000 0.76100  0.61750  0.95210  Biso   1.000  H
  H60      1.0000 0.76100  0.88250  0.45210  Biso   1.000  H
  H61      1.0000 0.23900  0.38250  0.04790  Biso   1.000  H
  H62      1.0000 0.23900  0.11750  0.54790  Biso   1.000  H
  H63      1.0000 0.65500  0.59880  0.85140  Biso   1.000  H
  H64      1.0000 0.65500  0.90120  0.35140  Biso   1.000  H
  H65      1.0000 0.34500  0.40120  0.14860  Biso   1.000  H
  H66      1.0000 0.34500  0.09880  0.64860  Biso   1.000  H
  C61      1.0000 0.63677  0.72469  0.90610  Biso   1.000  C
  C62      1.0000 0.63677  0.77531  0.40610  Biso   1.000  C
  C63      1.0000 0.36323  0.27531  0.09390  Biso   1.000  C
  C64      1.0000 0.36323  0.22469  0.59390  Biso   1.000  C
  C65      1.0000 0.72130  0.77740  0.86840  Biso   1.000  C
  C66      1.0000 0.72130  0.72260  0.36840  Biso   1.000  C
  C67      1.0000 0.27870  0.22260  0.13160  Biso   1.000  C
  C68      1.0000 0.27870  0.27740  0.63160  Biso   1.000  C
  H67      1.0000 0.79500  0.75100  0.84840  Biso   1.000  H
  H68      1.0000 0.79500  0.74900  0.34840  Biso   1.000  H
  H69      1.0000 0.20500  0.24900  0.15160  Biso   1.000  H
  H70      1.0000 0.20500  0.25100  0.65160  Biso   1.000  H
  C69      1.0000 0.69050  0.86418  0.85853  Biso   1.000  C
  C70      1.0000 0.69050  0.63582  0.35853  Biso   1.000  C
  C71      1.0000 0.30950  0.13582  0.14147  Biso   1.000  C
  C72      1.0000 0.30950  0.36418  0.64147  Biso   1.000  C
  H71      1.0000 0.75020  0.90020  0.83170  Biso   1.000  H
  H72      1.0000 0.75020  0.59980  0.33170  Biso   1.000  H
  H73      1.0000 0.24980  0.09980  0.16830  Biso   1.000  H
  H74      1.0000 0.24980  0.40020  0.66830  Biso   1.000  H
  C73      1.0000 0.57710  0.89706  0.88656  Biso   1.000  C
  C74      1.0000 0.57710  0.60294  0.38656  Biso   1.000  C
  C75      1.0000 0.42290  0.10294  0.11344  Biso   1.000  C
  C76      1.0000 0.42290  0.39706  0.61344  Biso   1.000  C
  H75      1.0000 0.55200  0.95160  0.87940  Biso   1.000  H
  H76      1.0000 0.55200  0.54840  0.37940  Biso   1.000  H
  H77      1.0000 0.44800  0.04840  0.12060  Biso   1.000  H
  H78      1.0000 0.44800  0.45160  0.62060  Biso   1.000  H
  C77      1.0000 0.49890  0.84167  0.92456  Biso   1.000  C
  C78      1.0000 0.49890  0.65833  0.42456  Biso   1.000  C
  C79      1.0000 0.50110  0.15833  0.07544  Biso   1.000  C
  C80      1.0000 0.50110  0.34167  0.57544  Biso   1.000  C
  H79      1.0000 0.42400  0.86090  0.94080  Biso   1.000  H
  H80      1.0000 0.42400  0.63910  0.44080  Biso   1.000  H
  H81      1.0000 0.57600  0.13910  0.05920  Biso   1.000  H
  H82      1.0000 0.57600  0.36090  0.55920  Biso   1.000  H
  O5       1.0000 0.70389  0.23910  0.29506  Biso   1.000  O
  O6       1.0000 0.70389  0.26090  0.79506  Biso   1.000  O
  O7       1.0000 0.29611  0.76090  0.70494  Biso   1.000  O
  O8       1.0000 0.29611  0.73910  0.20494  Biso   1.000  O
  O9       1.0000 0.95600  0.44762  0.07830  Biso   1.000  O
  O10      1.0000 0.95600  0.05238  0.57830  Biso   1.000  O
  O11      1.0000 0.04400  0.55238  0.92170  Biso   1.000  O
  O12      1.0000 0.04400  0.94762  0.42170  Biso   1.000  O
  O13      1.0000 0.81040  0.43055  0.84393  Biso   1.000  O
  O14      1.0000 0.81040  0.06945  0.34393  Biso   1.000  O
  O15      1.0000 0.18960  0.56945  0.15607  Biso   1.000  O
  O16      1.0000 0.18960  0.93055  0.65607  Biso   1.000  O
  N17      1.0000 0.69818  0.44690  0.19969  Biso   1.000  N
  N18      1.0000 0.69818  0.05310  0.69969  Biso   1.000  N
  N19      1.0000 0.30182  0.55310  0.80031  Biso   1.000  N
  N20      1.0000 0.30182  0.94690  0.30031  Biso   1.000  N
  O17      1.0000 0.63450  0.44450  0.26270  Biso   1.000  O
  O18      1.0000 0.63450  0.05550  0.76270  Biso   1.000  O
  O19      1.0000 0.36550  0.55550  0.73730  Biso   1.000  O
  O20      1.0000 0.36550  0.94450  0.23730  Biso   1.000  O
  O21      1.0000 0.74790  0.38420  0.17510  Biso   1.000  O
  O22      1.0000 0.74790  0.11580  0.67510  Biso   1.000  O
  O23      1.0000 0.25210  0.61580  0.82490  Biso   1.000  O
  O24      1.0000 0.25210  0.88420  0.32490  Biso   1.000  O
  O25      1.0000 0.73370  0.52329  0.16091  Biso   1.000  O
  O26      1.0000 0.73370  0.97671  0.66091  Biso   1.000  O
  O27      1.0000 0.26630  0.47671  0.83909  Biso   1.000  O
  O28      1.0000 0.26630  0.02329  0.33909  Biso   1.000  O
  O29      1.0000 0.61530  0.45140  0.24130  Biso   1.000  O
  O30      1.0000 0.61530  0.04860  0.74130  Biso   1.000  O
  O31      1.0000 0.38470  0.54860  0.75870  Biso   1.000  O
  O32      1.0000 0.38470  0.95140  0.25870  Biso   1.000  O
  O33      1.0000 0.73780  0.36740  0.18000  Biso   1.000  O
  O34      1.0000 0.73780  0.13260  0.68000  Biso   1.000  O
  O35      1.0000 0.26220  0.63260  0.82000  Biso   1.000  O
  O36      1.0000 0.26220  0.86740  0.32000  Biso   1.000  O
  O37      1.0000 0.72470  0.50579  0.17340  Biso   1.000  O
  O38      1.0000 0.72470  0.99421  0.67340  Biso   1.000  O
  O39      1.0000 0.27530  0.49421  0.82660  Biso   1.000  O
  O40      1.0000 0.27530  0.00579  0.32660  Biso   1.000  O
