data_image0
_cell_length_a       14.6143
_cell_length_b       14.492
_cell_length_c       9.8419
_cell_angle_alpha    90
_cell_angle_beta     98.208
_cell_angle_gamma    90

_symmetry_space_group_name_H-M    "P 1"
_symmetry_int_tables_number       1

loop_
  _symmetry_equiv_pos_as_xyz
  'x, y, z'

loop_
  _atom_site_label
  _atom_site_occupancy
  _atom_site_fract_x
  _atom_site_fract_y
  _atom_site_fract_z
  _atom_site_thermal_displace_type
  _atom_site_B_iso_or_equiv
  _atom_site_type_symbol
  Cu1      1.0000 0.38042  0.23582  0.56377  Biso   1.000  Cu
  Cu2      1.0000 0.61958  0.73582  0.93623  Biso   1.000  Cu
  Cu3      1.0000 0.61958  0.76418  0.43623  Biso   1.000  Cu
  Cu4      1.0000 0.38042  0.26418  0.06377  Biso   1.000  Cu
  Cl1      1.0000 0.34460  0.08697  0.51189  Biso   1.000  Cl
  Cl2      1.0000 0.65540  0.58697  0.98811  Biso   1.000  Cl
  Cl3      1.0000 0.65540  0.91303  0.48811  Biso   1.000  Cl
  Cl4      1.0000 0.34460  0.41303  0.01189  Biso   1.000  Cl
  O1       1.0000 0.26729  0.25754  0.64010  Biso   1.000  O
  O2       1.0000 0.73271  0.75754  0.85990  Biso   1.000  O
  O3       1.0000 0.73271  0.74246  0.35990  Biso   1.000  O
  O4       1.0000 0.26729  0.24246  0.14010  Biso   1.000  O
  O5       1.0000 0.33639  0.21019  0.84380  Biso   1.000  O
  O6       1.0000 0.66361  0.71019  0.65620  Biso   1.000  O
  O7       1.0000 0.66361  0.78981  0.15620  Biso   1.000  O
  O8       1.0000 0.33639  0.28981  0.34380  Biso   1.000  O
  O9       1.0000 0.87110  0.14930  0.89710  Biso   1.000  O
  O10      1.0000 0.12890  0.64930  0.60290  Biso   1.000  O
  O11      1.0000 0.12890  0.85070  0.10290  Biso   1.000  O
  O12      1.0000 0.87110  0.35070  0.39710  Biso   1.000  O
  N1       1.0000 0.51618  0.22377  0.53530  Biso   1.000  N
  N2       1.0000 0.48382  0.72377  0.96470  Biso   1.000  N
  N3       1.0000 0.48382  0.77623  0.46470  Biso   1.000  N
  N4       1.0000 0.51618  0.27623  0.03530  Biso   1.000  N
  N5       1.0000 0.42648  0.36312  0.62690  Biso   1.000  N
  N6       1.0000 0.57352  0.86312  0.87310  Biso   1.000  N
  N7       1.0000 0.57352  0.63688  0.37310  Biso   1.000  N
  N8       1.0000 0.42648  0.13688  0.12690  Biso   1.000  N
  C1       1.0000 0.26816  0.24062  0.76710  Biso   1.000  C
  C2       1.0000 0.73184  0.74062  0.73290  Biso   1.000  C
  C3       1.0000 0.73184  0.75938  0.23290  Biso   1.000  C
  C4       1.0000 0.26816  0.25938  0.26710  Biso   1.000  C
  C5       1.0000 0.17860  0.26300  0.82080  Biso   1.000  C
  C6       1.0000 0.82140  0.76300  0.67920  Biso   1.000  C
  C7       1.0000 0.82140  0.73700  0.17920  Biso   1.000  C
  C8       1.0000 0.17860  0.23700  0.32080  Biso   1.000  C
  H1       1.0000 0.18080  0.23640  0.91160  Biso   1.000  H
  H2       1.0000 0.81920  0.73640  0.58840  Biso   1.000  H
  H3       1.0000 0.81920  0.76360  0.08840  Biso   1.000  H
  H4       1.0000 0.18080  0.26360  0.41160  Biso   1.000  H
  H5       1.0000 0.17390  0.32940  0.82980  Biso   1.000  H
  H6       1.0000 0.82610  0.82940  0.67020  Biso   1.000  H
  H7       1.0000 0.82610  0.67060  0.17020  Biso   1.000  H
  H8       1.0000 0.17390  0.17060  0.32980  Biso   1.000  H
  C9       1.0000 0.09390  0.22850  0.73200  Biso   1.000  C
  C10      1.0000 0.90610  0.72850  0.76800  Biso   1.000  C
  C11      1.0000 0.90610  0.77150  0.26800  Biso   1.000  C
  C12      1.0000 0.09390  0.27150  0.23200  Biso   1.000  C
  H9       1.0000 0.09850  0.24370  0.63620  Biso   1.000  H
  H10      1.0000 0.90150  0.74370  0.86380  Biso   1.000  H
  H11      1.0000 0.90150  0.75630  0.36380  Biso   1.000  H
  H12      1.0000 0.09850  0.25630  0.13620  Biso   1.000  H
  C13      1.0000 0.06400  0.12550  0.73990  Biso   1.000  C
  C14      1.0000 0.93600  0.62550  0.76010  Biso   1.000  C
  C15      1.0000 0.93600  0.87450  0.26010  Biso   1.000  C
  C16      1.0000 0.06400  0.37450  0.23990  Biso   1.000  C
  C17      1.0000 0.09360  0.06220  0.63190  Biso   1.000  C
  C18      1.0000 0.90640  0.56220  0.86810  Biso   1.000  C
  C19      1.0000 0.90640  0.93780  0.36810  Biso   1.000  C
  C20      1.0000 0.09360  0.43780  0.13190  Biso   1.000  C
  H13      1.0000 0.15980  0.06150  0.64010  Biso   1.000  H
  H14      1.0000 0.84020  0.56150  0.85990  Biso   1.000  H
  H15      1.0000 0.84020  0.93850  0.35990  Biso   1.000  H
  H16      1.0000 0.15980  0.43850  0.14010  Biso   1.000  H
  H17      1.0000 0.06830  0.08420  0.54230  Biso   1.000  H
  H18      1.0000 0.93170  0.58420  0.95770  Biso   1.000  H
  H19      1.0000 0.93170  0.91580  0.45770  Biso   1.000  H
  H20      1.0000 0.06830  0.41580  0.04230  Biso   1.000  H
  H21      1.0000 0.07140  0.00100  0.64470  Biso   1.000  H
  H22      1.0000 0.92860  0.50100  0.85530  Biso   1.000  H
  H23      1.0000 0.92860  0.99900  0.35530  Biso   1.000  H
  H24      1.0000 0.07140  0.49900  0.14470  Biso   1.000  H
  C21      1.0000 0.09170  0.08590  0.88250  Biso   1.000  C
  C22      1.0000 0.90830  0.58590  0.61750  Biso   1.000  C
  C23      1.0000 0.90830  0.91410  0.11750  Biso   1.000  C
  C24      1.0000 0.09170  0.41410  0.38250  Biso   1.000  C
  H25      1.0000 0.06530  0.02560  0.88720  Biso   1.000  H
  H26      1.0000 0.93470  0.52560  0.61280  Biso   1.000  H
  H27      1.0000 0.93470  0.97440  0.11280  Biso   1.000  H
  H28      1.0000 0.06530  0.47440  0.38720  Biso   1.000  H
  H29      1.0000 0.06950  0.12550  0.94890  Biso   1.000  H
  H30      1.0000 0.93050  0.62550  0.55110  Biso   1.000  H
  H31      1.0000 0.93050  0.87450  0.05110  Biso   1.000  H
  H32      1.0000 0.06950  0.37450  0.44890  Biso   1.000  H
  H33      1.0000 0.15780  0.08170  0.90160  Biso   1.000  H
  H34      1.0000 0.84220  0.58170  0.59840  Biso   1.000  H
  H35      1.0000 0.84220  0.91830  0.09840  Biso   1.000  H
  H36      1.0000 0.15780  0.41830  0.40160  Biso   1.000  H
  C25      1.0000 0.96240  0.16270  0.71950  Biso   1.000  C
  C26      1.0000 0.03760  0.66270  0.78050  Biso   1.000  C
  C27      1.0000 0.03760  0.83730  0.28050  Biso   1.000  C
  C28      1.0000 0.96240  0.33730  0.21950  Biso   1.000  C
  H37      1.0000 0.93780  0.16330  0.62140  Biso   1.000  H
  H38      1.0000 0.06220  0.66330  0.87860  Biso   1.000  H
  H39      1.0000 0.06220  0.83670  0.37860  Biso   1.000  H
  H40      1.0000 0.93780  0.33670  0.12140  Biso   1.000  H
  C29      1.0000 0.99800  0.25840  0.76380  Biso   1.000  C
  C30      1.0000 0.00200  0.75840  0.73620  Biso   1.000  C
  C31      1.0000 0.00200  0.74160  0.23620  Biso   1.000  C
  C32      1.0000 0.99800  0.24160  0.26380  Biso   1.000  C
  H41      1.0000 0.99630  0.27180  0.86000  Biso   1.000  H
  H42      1.0000 0.00370  0.77180  0.64000  Biso   1.000  H
  H43      1.0000 0.00370  0.72820  0.14000  Biso   1.000  H
  H44      1.0000 0.99630  0.22820  0.36000  Biso   1.000  H
  H45      1.0000 0.97010  0.30790  0.70570  Biso   1.000  H
  H46      1.0000 0.02990  0.80790  0.79430  Biso   1.000  H
  H47      1.0000 0.02990  0.69210  0.29430  Biso   1.000  H
  H48      1.0000 0.97010  0.19210  0.20570  Biso   1.000  H
  C33      1.0000 0.89460  0.11420  0.79880  Biso   1.000  C
  C34      1.0000 0.10540  0.61420  0.70120  Biso   1.000  C
  C35      1.0000 0.10540  0.88580  0.20120  Biso   1.000  C
  C36      1.0000 0.89460  0.38580  0.29880  Biso   1.000  C
  C37      1.0000 0.85870  0.02300  0.74370  Biso   1.000  C
  C38      1.0000 0.14130  0.52300  0.75630  Biso   1.000  C
  C39      1.0000 0.14130  0.97700  0.25630  Biso   1.000  C
  C40      1.0000 0.85870  0.47700  0.24370  Biso   1.000  C
  H49      1.0000 0.83320  0.98980  0.81390  Biso   1.000  H
  H50      1.0000 0.16680  0.48980  0.68610  Biso   1.000  H
  H51      1.0000 0.16680  0.01020  0.18610  Biso   1.000  H
  H52      1.0000 0.83320  0.51020  0.31390  Biso   1.000  H
  H53      1.0000 0.90840  0.98790  0.71530  Biso   1.000  H
  H54      1.0000 0.09160  0.48790  0.78470  Biso   1.000  H
  H55      1.0000 0.09160  0.01210  0.28470  Biso   1.000  H
  H56      1.0000 0.90840  0.51210  0.21530  Biso   1.000  H
  H57      1.0000 0.81160  0.03260  0.66650  Biso   1.000  H
  H58      1.0000 0.18840  0.53260  0.83350  Biso   1.000  H
  H59      1.0000 0.18840  0.96740  0.33350  Biso   1.000  H
  H60      1.0000 0.81160  0.46740  0.16650  Biso   1.000  H
  C41      1.0000 0.55890  0.15290  0.48690  Biso   1.000  C
  C42      1.0000 0.44110  0.65290  0.01310  Biso   1.000  C
  C43      1.0000 0.44110  0.84710  0.51310  Biso   1.000  C
  C44      1.0000 0.55890  0.34710  0.98690  Biso   1.000  C
  H61      1.0000 0.52550  0.09950  0.46190  Biso   1.000  H
  H62      1.0000 0.47450  0.59950  0.03810  Biso   1.000  H
  H63      1.0000 0.47450  0.90050  0.53810  Biso   1.000  H
  H64      1.0000 0.52550  0.40050  0.96190  Biso   1.000  H
  C45      1.0000 0.65210  0.15590  0.47220  Biso   1.000  C
  C46      1.0000 0.34790  0.65590  0.02780  Biso   1.000  C
  C47      1.0000 0.34790  0.84410  0.52780  Biso   1.000  C
  C48      1.0000 0.65210  0.34410  0.97220  Biso   1.000  C
  H65      1.0000 0.68010  0.10480  0.43830  Biso   1.000  H
  H66      1.0000 0.31990  0.60480  0.06170  Biso   1.000  H
  H67      1.0000 0.31990  0.89520  0.56170  Biso   1.000  H
  H68      1.0000 0.68010  0.39520  0.93830  Biso   1.000  H
  C49      1.0000 0.70230  0.23340  0.50730  Biso   1.000  C
  C50      1.0000 0.29770  0.73340  0.99270  Biso   1.000  C
  C51      1.0000 0.29770  0.76660  0.49270  Biso   1.000  C
  C52      1.0000 0.70230  0.26660  0.00730  Biso   1.000  C
  H69      1.0000 0.76450  0.23580  0.49680  Biso   1.000  H
  H70      1.0000 0.23550  0.73580  0.00320  Biso   1.000  H
  H71      1.0000 0.23550  0.76420  0.50320  Biso   1.000  H
  H72      1.0000 0.76450  0.26420  0.99680  Biso   1.000  H
  C53      1.0000 0.66000  0.31000  0.55960  Biso   1.000  C
  C54      1.0000 0.34000  0.81000  0.94040  Biso   1.000  C
  C55      1.0000 0.34000  0.69000  0.44040  Biso   1.000  C
  C56      1.0000 0.66000  0.19000  0.05960  Biso   1.000  C
  C57      1.0000 0.70520  0.39560  0.59890  Biso   1.000  C
  C58      1.0000 0.29480  0.89560  0.90110  Biso   1.000  C
  C59      1.0000 0.29480  0.60440  0.40110  Biso   1.000  C
  C60      1.0000 0.70520  0.10440  0.09890  Biso   1.000  C
  H73      1.0000 0.76780  0.40190  0.59290  Biso   1.000  H
  H74      1.0000 0.23220  0.90190  0.90710  Biso   1.000  H
  H75      1.0000 0.23220  0.59810  0.40710  Biso   1.000  H
  H76      1.0000 0.76780  0.09810  0.09290  Biso   1.000  H
  C61      1.0000 0.65930  0.46680  0.64420  Biso   1.000  C
  C62      1.0000 0.34070  0.96680  0.85580  Biso   1.000  C
  C63      1.0000 0.34070  0.53320  0.35580  Biso   1.000  C
  C64      1.0000 0.65930  0.03320  0.14420  Biso   1.000  C
  H77      1.0000 0.69070  0.52140  0.66950  Biso   1.000  H
  H78      1.0000 0.30930  0.02140  0.83050  Biso   1.000  H
  H79      1.0000 0.30930  0.47860  0.33050  Biso   1.000  H
  H80      1.0000 0.69070  0.97860  0.16950  Biso   1.000  H
  C65      1.0000 0.56290  0.46000  0.65410  Biso   1.000  C
  C66      1.0000 0.43710  0.96000  0.84590  Biso   1.000  C
  C67      1.0000 0.43710  0.54000  0.34590  Biso   1.000  C
  C68      1.0000 0.56290  0.04000  0.15410  Biso   1.000  C
  C69      1.0000 0.50980  0.53310  0.69770  Biso   1.000  C
  C70      1.0000 0.49020  0.03310  0.80230  Biso   1.000  C
  C71      1.0000 0.49020  0.46690  0.30230  Biso   1.000  C
  C72      1.0000 0.50980  0.96690  0.19770  Biso   1.000  C
  H81      1.0000 0.53670  0.59010  0.72080  Biso   1.000  H
  H82      1.0000 0.46330  0.09010  0.77920  Biso   1.000  H
  H83      1.0000 0.46330  0.40990  0.27920  Biso   1.000  H
  H84      1.0000 0.53670  0.90990  0.22080  Biso   1.000  H
  C73      1.0000 0.41900  0.51830  0.70500  Biso   1.000  C
  C74      1.0000 0.58100  0.01830  0.79500  Biso   1.000  C
  C75      1.0000 0.58100  0.48170  0.29500  Biso   1.000  C
  C76      1.0000 0.41900  0.98170  0.20500  Biso   1.000  C
  H85      1.0000 0.38310  0.56560  0.73360  Biso   1.000  H
  H86      1.0000 0.61690  0.06560  0.76640  Biso   1.000  H
  H87      1.0000 0.61690  0.43440  0.26640  Biso   1.000  H
  H88      1.0000 0.38310  0.93440  0.23360  Biso   1.000  H
  C77      1.0000 0.37910  0.43240  0.66970  Biso   1.000  C
  C78      1.0000 0.62090  0.93240  0.83030  Biso   1.000  C
  C79      1.0000 0.62090  0.56760  0.33030  Biso   1.000  C
  C80      1.0000 0.37910  0.06760  0.16970  Biso   1.000  C
  H89      1.0000 0.31690  0.42360  0.67650  Biso   1.000  H
  H90      1.0000 0.68310  0.92360  0.82350  Biso   1.000  H
  H91      1.0000 0.68310  0.57640  0.32350  Biso   1.000  H
  H92      1.0000 0.31690  0.07640  0.17650  Biso   1.000  H
  C81      1.0000 0.51761  0.37713  0.61990  Biso   1.000  C
  C82      1.0000 0.48239  0.87713  0.88010  Biso   1.000  C
  C83      1.0000 0.48239  0.62287  0.38010  Biso   1.000  C
  C84      1.0000 0.51761  0.12287  0.11990  Biso   1.000  C
  C85      1.0000 0.56575  0.30110  0.57050  Biso   1.000  C
  C86      1.0000 0.43425  0.80110  0.92950  Biso   1.000  C
  C87      1.0000 0.43425  0.69890  0.42950  Biso   1.000  C
  C88      1.0000 0.56575  0.19890  0.07050  Biso   1.000  C
