data_image0
_cell_length_a       9.8971
_cell_length_b       15.5692
_cell_length_c       8.7255
_cell_angle_alpha    90
_cell_angle_beta     107.017
_cell_angle_gamma    90

_symmetry_space_group_name_H-M    "P 1"
_symmetry_int_tables_number       1

loop_
  _symmetry_equiv_pos_as_xyz
  'x, y, z'

loop_
  _atom_site_label
  _atom_site_occupancy
  _atom_site_fract_x
  _atom_site_fract_y
  _atom_site_fract_z
  _atom_site_thermal_displace_type
  _atom_site_B_iso_or_equiv
  _atom_site_type_symbol
  Cu1      1.0000 0.05368  0.89221  0.23214  Biso   1.000  Cu
  Cu2      1.0000 0.05368  0.60779  0.73214  Biso   1.000  Cu
  Cu3      1.0000 0.94632  0.10779  0.76786  Biso   1.000  Cu
  Cu4      1.0000 0.94632  0.39221  0.26786  Biso   1.000  Cu
  O1       1.0000 0.20984  0.94846  0.17040  Biso   1.000  O
  O2       1.0000 0.20984  0.55154  0.67040  Biso   1.000  O
  O3       1.0000 0.79016  0.05154  0.82960  Biso   1.000  O
  O4       1.0000 0.79016  0.44846  0.32960  Biso   1.000  O
  N1       1.0000 0.16710  0.78319  0.28830  Biso   1.000  N
  N2       1.0000 0.16710  0.71681  0.78830  Biso   1.000  N
  N3       1.0000 0.83290  0.21681  0.71170  Biso   1.000  N
  N4       1.0000 0.83290  0.28319  0.21170  Biso   1.000  N
  C1       1.0000 0.11030  0.70796  0.22700  Biso   1.000  C
  C2       1.0000 0.11030  0.79204  0.72700  Biso   1.000  C
  C3       1.0000 0.88970  0.29204  0.77300  Biso   1.000  C
  C4       1.0000 0.88970  0.20796  0.27300  Biso   1.000  C
  H1       1.0000 0.01920  0.70850  0.15680  Biso   1.000  H
  H2       1.0000 0.01920  0.79150  0.65680  Biso   1.000  H
  H3       1.0000 0.98080  0.29150  0.84320  Biso   1.000  H
  H4       1.0000 0.98080  0.20850  0.34320  Biso   1.000  H
  O5       1.0000 0.90766  0.83806  0.31630  Biso   1.000  O
  O6       1.0000 0.90766  0.66194  0.81630  Biso   1.000  O
  O7       1.0000 0.09234  0.16194  0.68370  Biso   1.000  O
  O8       1.0000 0.09234  0.33806  0.18370  Biso   1.000  O
  N5       1.0000 0.05570  0.50247  0.32250  Biso   1.000  N
  N6       1.0000 0.05570  0.99753  0.82250  Biso   1.000  N
  N7       1.0000 0.94430  0.49753  0.67750  Biso   1.000  N
  N8       1.0000 0.94430  0.00247  0.17750  Biso   1.000  N
  H5       1.0000 0.99720  0.54350  0.35740  Biso   1.000  H
  H6       1.0000 0.99720  0.95650  0.85740  Biso   1.000  H
  H7       1.0000 0.00280  0.45650  0.64260  Biso   1.000  H
  H8       1.0000 0.00280  0.04350  0.14260  Biso   1.000  H
  H9       1.0000 0.13770  0.49750  0.41380  Biso   1.000  H
  H10      1.0000 0.13770  0.00250  0.91380  Biso   1.000  H
  H11      1.0000 0.86230  0.50250  0.58620  Biso   1.000  H
  H12      1.0000 0.86230  0.99750  0.08620  Biso   1.000  H
  C5       1.0000 0.17830  0.62969  0.26130  Biso   1.000  C
  C6       1.0000 0.17830  0.87031  0.76130  Biso   1.000  C
  C7       1.0000 0.82170  0.37031  0.73870  Biso   1.000  C
  C8       1.0000 0.82170  0.12969  0.23870  Biso   1.000  C
  O9       1.0000 0.25440  0.98998  0.42200  Biso   1.000  O
  O10      1.0000 0.25440  0.51002  0.92200  Biso   1.000  O
  O11      1.0000 0.74560  0.01002  0.57800  Biso   1.000  O
  O12      1.0000 0.74560  0.48998  0.07800  Biso   1.000  O
  C9       1.0000 0.31410  0.63042  0.36450  Biso   1.000  C
  C10      1.0000 0.31410  0.86958  0.86450  Biso   1.000  C
  C11      1.0000 0.68590  0.36958  0.63550  Biso   1.000  C
  C12      1.0000 0.68590  0.13042  0.13550  Biso   1.000  C
  H13      1.0000 0.36420  0.57930  0.39100  Biso   1.000  H
  H14      1.0000 0.36420  0.92070  0.89100  Biso   1.000  H
  H15      1.0000 0.63580  0.42070  0.60900  Biso   1.000  H
  H16      1.0000 0.63580  0.07930  0.10900  Biso   1.000  H
  O13      1.0000 0.72050  0.86276  0.10470  Biso   1.000  O
  O14      1.0000 0.72050  0.63724  0.60470  Biso   1.000  O
  O15      1.0000 0.27950  0.13724  0.89530  Biso   1.000  O
  O16      1.0000 0.27950  0.36276  0.39530  Biso   1.000  O
  C13      1.0000 0.37520  0.70730  0.42810  Biso   1.000  C
  C14      1.0000 0.37520  0.79270  0.92810  Biso   1.000  C
  C15      1.0000 0.62480  0.29270  0.57190  Biso   1.000  C
  C16      1.0000 0.62480  0.20730  0.07190  Biso   1.000  C
  H17      1.0000 0.46700  0.70860  0.49670  Biso   1.000  H
  H18      1.0000 0.46700  0.79140  0.99670  Biso   1.000  H
  H19      1.0000 0.53300  0.29140  0.50330  Biso   1.000  H
  H20      1.0000 0.53300  0.20860  0.00330  Biso   1.000  H
  C17      1.0000 0.29860  0.78168  0.38850  Biso   1.000  C
  C18      1.0000 0.29860  0.71832  0.88850  Biso   1.000  C
  C19      1.0000 0.70140  0.21832  0.61150  Biso   1.000  C
  C20      1.0000 0.70140  0.28168  0.11150  Biso   1.000  C
  H21      1.0000 0.33970  0.83310  0.43310  Biso   1.000  H
  H22      1.0000 0.33970  0.66690  0.93310  Biso   1.000  H
  H23      1.0000 0.66030  0.16690  0.56690  Biso   1.000  H
  H24      1.0000 0.66030  0.33310  0.06690  Biso   1.000  H
  O17      1.0000 0.92060  0.84605  0.94780  Biso   1.000  O
  O18      1.0000 0.92060  0.65395  0.44780  Biso   1.000  O
  O19      1.0000 0.07940  0.15395  0.05220  Biso   1.000  O
  O20      1.0000 0.07940  0.34605  0.55220  Biso   1.000  O
  H25      1.0000 0.83880  0.84810  0.97850  Biso   1.000  H
  H26      1.0000 0.83880  0.65190  0.47850  Biso   1.000  H
  H27      1.0000 0.16120  0.15190  0.02150  Biso   1.000  H
  H28      1.0000 0.16120  0.34810  0.52150  Biso   1.000  H
  H29      1.0000 0.91900  0.79650  0.90240  Biso   1.000  H
  H30      1.0000 0.91900  0.70350  0.40240  Biso   1.000  H
  H31      1.0000 0.08100  0.20350  0.09760  Biso   1.000  H
  H32      1.0000 0.08100  0.29650  0.59760  Biso   1.000  H
  C21      1.0000 0.10280  0.54772  0.19740  Biso   1.000  C
  C22      1.0000 0.10280  0.95228  0.69740  Biso   1.000  C
  C23      1.0000 0.89720  0.45228  0.80260  Biso   1.000  C
  C24      1.0000 0.89720  0.04772  0.30260  Biso   1.000  C
  H33      1.0000 0.02150  0.56050  0.10670  Biso   1.000  H
  H34      1.0000 0.02150  0.93950  0.60670  Biso   1.000  H
  H35      1.0000 0.97850  0.43950  0.89330  Biso   1.000  H
  H36      1.0000 0.97850  0.06050  0.39330  Biso   1.000  H
  H37      1.0000 0.16560  0.51070  0.16030  Biso   1.000  H
  H38      1.0000 0.16560  0.98930  0.66030  Biso   1.000  H
  H39      1.0000 0.83440  0.48930  0.83970  Biso   1.000  H
  H40      1.0000 0.83440  0.01070  0.33970  Biso   1.000  H
  C25      1.0000 0.28210  0.99102  0.29270  Biso   1.000  C
  C26      1.0000 0.28210  0.50898  0.79270  Biso   1.000  C
  C27      1.0000 0.71790  0.00898  0.70730  Biso   1.000  C
  C28      1.0000 0.71790  0.49102  0.20730  Biso   1.000  C
  C29      1.0000 0.40490  0.04210  0.27260  Biso   1.000  C
  C30      1.0000 0.40490  0.45790  0.77260  Biso   1.000  C
  C31      1.0000 0.59510  0.95790  0.72740  Biso   1.000  C
  C32      1.0000 0.59510  0.54210  0.22740  Biso   1.000  C
  H41      1.0000 0.39360  0.10140  0.29650  Biso   1.000  H
  H42      1.0000 0.39360  0.39860  0.79650  Biso   1.000  H
  H43      1.0000 0.60640  0.89860  0.70350  Biso   1.000  H
  H44      1.0000 0.60640  0.60140  0.20350  Biso   1.000  H
  H45      1.0000 0.40820  0.03700  0.16410  Biso   1.000  H
  H46      1.0000 0.40820  0.46300  0.66410  Biso   1.000  H
  H47      1.0000 0.59180  0.96300  0.83590  Biso   1.000  H
  H48      1.0000 0.59180  0.53700  0.33590  Biso   1.000  H
  H49      1.0000 0.49120  0.02050  0.34440  Biso   1.000  H
  H50      1.0000 0.49120  0.47950  0.84440  Biso   1.000  H
  H51      1.0000 0.50880  0.97950  0.65560  Biso   1.000  H
  H52      1.0000 0.50880  0.52050  0.15560  Biso   1.000  H
  C33      1.0000 0.77350  0.84387  0.24760  Biso   1.000  C
  C34      1.0000 0.77350  0.65613  0.74760  Biso   1.000  C
  C35      1.0000 0.22650  0.15613  0.75240  Biso   1.000  C
  C36      1.0000 0.22650  0.34387  0.25240  Biso   1.000  C
  C37      1.0000 0.67900  0.82640  0.35140  Biso   1.000  C
  C38      1.0000 0.67900  0.67360  0.85140  Biso   1.000  C
  C39      1.0000 0.32100  0.17360  0.64860  Biso   1.000  C
  C40      1.0000 0.32100  0.32640  0.14860  Biso   1.000  C
  H53      1.0000 0.61890  0.87510  0.34880  Biso   1.000  H
  H54      1.0000 0.61890  0.62490  0.84880  Biso   1.000  H
  H55      1.0000 0.38110  0.12490  0.65120  Biso   1.000  H
  H56      1.0000 0.38110  0.37510  0.15120  Biso   1.000  H
  H57      1.0000 0.73590  0.81630  0.45960  Biso   1.000  H
  H58      1.0000 0.73590  0.68370  0.95960  Biso   1.000  H
  H59      1.0000 0.26410  0.18370  0.54040  Biso   1.000  H
  H60      1.0000 0.26410  0.31630  0.04040  Biso   1.000  H
  H61      1.0000 0.62210  0.77670  0.31210  Biso   1.000  H
  H62      1.0000 0.62210  0.72330  0.81210  Biso   1.000  H
  H63      1.0000 0.37790  0.22330  0.68790  Biso   1.000  H
  H64      1.0000 0.37790  0.27670  0.18790  Biso   1.000  H
