data_image0
_cell_length_a       11.457
_cell_length_b       40.814
_cell_length_c       14.502
_cell_angle_alpha    90
_cell_angle_beta     111.424
_cell_angle_gamma    90

_symmetry_space_group_name_H-M    "P 1"
_symmetry_int_tables_number       1

loop_
  _symmetry_equiv_pos_as_xyz
  'x, y, z'

loop_
  _atom_site_label
  _atom_site_occupancy
  _atom_site_fract_x
  _atom_site_fract_y
  _atom_site_fract_z
  _atom_site_thermal_displace_type
  _atom_site_B_iso_or_equiv
  _atom_site_type_symbol
  Cu1      1.0000 0.06154  0.39473  0.61177  Biso   1.000  Cu
  Cu2      1.0000 0.56154  0.89473  0.61177  Biso   1.000  Cu
  Cu3      1.0000 0.06154  0.60527  0.11177  Biso   1.000  Cu
  Cu4      1.0000 0.56154  0.10527  0.11177  Biso   1.000  Cu
  Cu5      1.0000 0.93846  0.60527  0.38823  Biso   1.000  Cu
  Cu6      1.0000 0.43846  0.10527  0.38823  Biso   1.000  Cu
  Cu7      1.0000 0.93846  0.39473  0.88823  Biso   1.000  Cu
  Cu8      1.0000 0.43846  0.89473  0.88823  Biso   1.000  Cu
  Cl1      1.0000 0.00000  0.37344  0.75000  Biso   1.000  Cl
  Cl2      1.0000 0.50000  0.87344  0.75000  Biso   1.000  Cl
  Cl3      1.0000 0.00000  0.62656  0.25000  Biso   1.000  Cl
  Cl4      1.0000 0.50000  0.12656  0.25000  Biso   1.000  Cl
  N1       1.0000 0.02710  0.44325  0.61630  Biso   1.000  N
  N2       1.0000 0.52710  0.94325  0.61630  Biso   1.000  N
  N3       1.0000 0.02710  0.55675  0.11630  Biso   1.000  N
  N4       1.0000 0.52710  0.05675  0.11630  Biso   1.000  N
  N5       1.0000 0.97290  0.55675  0.38370  Biso   1.000  N
  N6       1.0000 0.47290  0.05675  0.38370  Biso   1.000  N
  N7       1.0000 0.97290  0.44325  0.88370  Biso   1.000  N
  N8       1.0000 0.47290  0.94325  0.88370  Biso   1.000  N
  C1       1.0000 0.12360  0.46067  0.67890  Biso   1.000  C
  C2       1.0000 0.62360  0.96067  0.67890  Biso   1.000  C
  C3       1.0000 0.12360  0.53933  0.17890  Biso   1.000  C
  C4       1.0000 0.62360  0.03933  0.17890  Biso   1.000  C
  C5       1.0000 0.87640  0.53933  0.32110  Biso   1.000  C
  C6       1.0000 0.37640  0.03933  0.32110  Biso   1.000  C
  C7       1.0000 0.87640  0.46067  0.82110  Biso   1.000  C
  C8       1.0000 0.37640  0.96067  0.82110  Biso   1.000  C
  C9       1.0000 0.11400  0.49376  0.68730  Biso   1.000  C
  C10      1.0000 0.61400  0.99376  0.68730  Biso   1.000  C
  C11      1.0000 0.11400  0.50624  0.18730  Biso   1.000  C
  C12      1.0000 0.61400  0.00624  0.18730  Biso   1.000  C
  C13      1.0000 0.88600  0.50624  0.31270  Biso   1.000  C
  C14      1.0000 0.38600  0.00624  0.31270  Biso   1.000  C
  C15      1.0000 0.88600  0.49376  0.81270  Biso   1.000  C
  C16      1.0000 0.38600  0.99376  0.81270  Biso   1.000  C
  H1       1.0000 0.18200  0.50570  0.72910  Biso   1.000  H
  H2       1.0000 0.68200  0.00570  0.72910  Biso   1.000  H
  H3       1.0000 0.18200  0.49430  0.22910  Biso   1.000  H
  H4       1.0000 0.68200  0.99430  0.22910  Biso   1.000  H
  H5       1.0000 0.81800  0.49430  0.27090  Biso   1.000  H
  H6       1.0000 0.31800  0.99430  0.27090  Biso   1.000  H
  H7       1.0000 0.81800  0.50570  0.77090  Biso   1.000  H
  H8       1.0000 0.31800  0.00570  0.77090  Biso   1.000  H
  C17      1.0000 0.00380  0.50960  0.63400  Biso   1.000  C
  C18      1.0000 0.50380  0.00960  0.63400  Biso   1.000  C
  C19      1.0000 0.00380  0.49040  0.13400  Biso   1.000  C
  C20      1.0000 0.50380  0.99040  0.13400  Biso   1.000  C
  C21      1.0000 0.99620  0.49040  0.36600  Biso   1.000  C
  C22      1.0000 0.49620  0.99040  0.36600  Biso   1.000  C
  C23      1.0000 0.99620  0.50960  0.86600  Biso   1.000  C
  C24      1.0000 0.49620  0.00960  0.86600  Biso   1.000  C
  H9       1.0000 0.99590  0.53210  0.64080  Biso   1.000  H
  H10      1.0000 0.49590  0.03210  0.64080  Biso   1.000  H
  H11      1.0000 0.99590  0.46790  0.14080  Biso   1.000  H
  H12      1.0000 0.49590  0.96790  0.14080  Biso   1.000  H
  H13      1.0000 0.00410  0.46790  0.35920  Biso   1.000  H
  H14      1.0000 0.50410  0.96790  0.35920  Biso   1.000  H
  H15      1.0000 0.00410  0.53210  0.85920  Biso   1.000  H
  H16      1.0000 0.50410  0.03210  0.85920  Biso   1.000  H
  C25      1.0000 0.90640  0.49180  0.57110  Biso   1.000  C
  C26      1.0000 0.40640  0.99180  0.57110  Biso   1.000  C
  C27      1.0000 0.90640  0.50820  0.07110  Biso   1.000  C
  C28      1.0000 0.40640  0.00820  0.07110  Biso   1.000  C
  C29      1.0000 0.09360  0.50820  0.42890  Biso   1.000  C
  C30      1.0000 0.59360  0.00820  0.42890  Biso   1.000  C
  C31      1.0000 0.09360  0.49180  0.92890  Biso   1.000  C
  C32      1.0000 0.59360  0.99180  0.92890  Biso   1.000  C
  H17      1.0000 0.83140  0.50190  0.53330  Biso   1.000  H
  H18      1.0000 0.33140  0.00190  0.53330  Biso   1.000  H
  H19      1.0000 0.83140  0.49810  0.03330  Biso   1.000  H
  H20      1.0000 0.33140  0.99810  0.03330  Biso   1.000  H
  H21      1.0000 0.16860  0.49810  0.46670  Biso   1.000  H
  H22      1.0000 0.66860  0.99810  0.46670  Biso   1.000  H
  H23      1.0000 0.16860  0.50190  0.96670  Biso   1.000  H
  H24      1.0000 0.66860  0.00190  0.96670  Biso   1.000  H
  C33      1.0000 0.92130  0.45971  0.56500  Biso   1.000  C
  C34      1.0000 0.42130  0.95971  0.56500  Biso   1.000  C
  C35      1.0000 0.92130  0.54029  0.06500  Biso   1.000  C
  C36      1.0000 0.42130  0.04029  0.06500  Biso   1.000  C
  C37      1.0000 0.07870  0.54029  0.43500  Biso   1.000  C
  C38      1.0000 0.57870  0.04029  0.43500  Biso   1.000  C
  C39      1.0000 0.07870  0.45971  0.93500  Biso   1.000  C
  C40      1.0000 0.57870  0.95971  0.93500  Biso   1.000  C
  H25      1.0000 0.85410  0.44780  0.52230  Biso   1.000  H
  H26      1.0000 0.35410  0.94780  0.52230  Biso   1.000  H
  H27      1.0000 0.85410  0.55220  0.02230  Biso   1.000  H
  H28      1.0000 0.35410  0.05220  0.02230  Biso   1.000  H
  H29      1.0000 0.14590  0.55220  0.47770  Biso   1.000  H
  H30      1.0000 0.64590  0.05220  0.47770  Biso   1.000  H
  H31      1.0000 0.14590  0.44780  0.97770  Biso   1.000  H
  H32      1.0000 0.64590  0.94780  0.97770  Biso   1.000  H
  N9       1.0000 0.22690  0.40890  0.71300  Biso   1.000  N
  N10      1.0000 0.72690  0.90890  0.71300  Biso   1.000  N
  N11      1.0000 0.22690  0.59110  0.21300  Biso   1.000  N
  N12      1.0000 0.72690  0.09110  0.21300  Biso   1.000  N
  N13      1.0000 0.77310  0.59110  0.28700  Biso   1.000  N
  N14      1.0000 0.27310  0.09110  0.28700  Biso   1.000  N
  N15      1.0000 0.77310  0.40890  0.78700  Biso   1.000  N
  N16      1.0000 0.27310  0.90890  0.78700  Biso   1.000  N
  C41      1.0000 0.23170  0.44105  0.73580  Biso   1.000  C
  C42      1.0000 0.73170  0.94105  0.73580  Biso   1.000  C
  C43      1.0000 0.23170  0.55895  0.23580  Biso   1.000  C
  C44      1.0000 0.73170  0.05895  0.23580  Biso   1.000  C
  C45      1.0000 0.76830  0.55895  0.26420  Biso   1.000  C
  C46      1.0000 0.26830  0.05895  0.26420  Biso   1.000  C
  C47      1.0000 0.76830  0.44105  0.76420  Biso   1.000  C
  C48      1.0000 0.26830  0.94105  0.76420  Biso   1.000  C
  C49      1.0000 0.66730  0.45420  0.68680  Biso   1.000  C
  C50      1.0000 0.16730  0.95420  0.68680  Biso   1.000  C
  C51      1.0000 0.66730  0.54580  0.18680  Biso   1.000  C
  C52      1.0000 0.16730  0.04580  0.18680  Biso   1.000  C
  C53      1.0000 0.33270  0.54580  0.31320  Biso   1.000  C
  C54      1.0000 0.83270  0.04580  0.31320  Biso   1.000  C
  C55      1.0000 0.33270  0.45420  0.81320  Biso   1.000  C
  C56      1.0000 0.83270  0.95420  0.81320  Biso   1.000  C
  H33      1.0000 0.66460  0.47640  0.67180  Biso   1.000  H
  H34      1.0000 0.16460  0.97640  0.67180  Biso   1.000  H
  H35      1.0000 0.66460  0.52360  0.17180  Biso   1.000  H
  H36      1.0000 0.16460  0.02360  0.17180  Biso   1.000  H
  H37      1.0000 0.33540  0.52360  0.32820  Biso   1.000  H
  H38      1.0000 0.83540  0.02360  0.32820  Biso   1.000  H
  H39      1.0000 0.33540  0.47640  0.82820  Biso   1.000  H
  H40      1.0000 0.83540  0.97640  0.82820  Biso   1.000  H
  C57      1.0000 0.57120  0.43350  0.63270  Biso   1.000  C
  C58      1.0000 0.07120  0.93350  0.63270  Biso   1.000  C
  C59      1.0000 0.57120  0.56650  0.13270  Biso   1.000  C
  C60      1.0000 0.07120  0.06650  0.13270  Biso   1.000  C
  C61      1.0000 0.42880  0.56650  0.36730  Biso   1.000  C
  C62      1.0000 0.92880  0.06650  0.36730  Biso   1.000  C
  C63      1.0000 0.42880  0.43350  0.86730  Biso   1.000  C
  C64      1.0000 0.92880  0.93350  0.86730  Biso   1.000  C
  H41      1.0000 0.50370  0.44160  0.57960  Biso   1.000  H
  H42      1.0000 0.00370  0.94160  0.57960  Biso   1.000  H
  H43      1.0000 0.50370  0.55840  0.07960  Biso   1.000  H
  H44      1.0000 0.00370  0.05840  0.07960  Biso   1.000  H
  H45      1.0000 0.49630  0.55840  0.42040  Biso   1.000  H
  H46      1.0000 0.99630  0.05840  0.42040  Biso   1.000  H
  H47      1.0000 0.49630  0.44160  0.92040  Biso   1.000  H
  H48      1.0000 0.99630  0.94160  0.92040  Biso   1.000  H
  C65      1.0000 0.57590  0.40130  0.65770  Biso   1.000  C
  C66      1.0000 0.07590  0.90130  0.65770  Biso   1.000  C
  C67      1.0000 0.57590  0.59870  0.15770  Biso   1.000  C
  C68      1.0000 0.07590  0.09870  0.15770  Biso   1.000  C
  C69      1.0000 0.42410  0.59870  0.34230  Biso   1.000  C
  C70      1.0000 0.92410  0.09870  0.34230  Biso   1.000  C
  C71      1.0000 0.42410  0.40130  0.84230  Biso   1.000  C
  C72      1.0000 0.92410  0.90130  0.84230  Biso   1.000  C
  H49      1.0000 0.51000  0.38730  0.62360  Biso   1.000  H
  H50      1.0000 0.01000  0.88730  0.62360  Biso   1.000  H
  H51      1.0000 0.51000  0.61270  0.12360  Biso   1.000  H
  H52      1.0000 0.01000  0.11270  0.12360  Biso   1.000  H
  H53      1.0000 0.49000  0.61270  0.37640  Biso   1.000  H
  H54      1.0000 0.99000  0.11270  0.37640  Biso   1.000  H
  H55      1.0000 0.49000  0.38730  0.87640  Biso   1.000  H
  H56      1.0000 0.99000  0.88730  0.87640  Biso   1.000  H
  C73      1.0000 0.67990  0.38930  0.73450  Biso   1.000  C
  C74      1.0000 0.17990  0.88930  0.73450  Biso   1.000  C
  C75      1.0000 0.67990  0.61070  0.23450  Biso   1.000  C
  C76      1.0000 0.17990  0.11070  0.23450  Biso   1.000  C
  C77      1.0000 0.32010  0.61070  0.26550  Biso   1.000  C
  C78      1.0000 0.82010  0.11070  0.26550  Biso   1.000  C
  C79      1.0000 0.32010  0.38930  0.76550  Biso   1.000  C
  C80      1.0000 0.82010  0.88930  0.76550  Biso   1.000  C
  H57      1.0000 0.68440  0.36710  0.74950  Biso   1.000  H
  H58      1.0000 0.18440  0.86710  0.74950  Biso   1.000  H
  H59      1.0000 0.68440  0.63290  0.24950  Biso   1.000  H
  H60      1.0000 0.18440  0.13290  0.24950  Biso   1.000  H
  H61      1.0000 0.31560  0.63290  0.25050  Biso   1.000  H
  H62      1.0000 0.81560  0.13290  0.25050  Biso   1.000  H
  H63      1.0000 0.31560  0.36710  0.75050  Biso   1.000  H
  H64      1.0000 0.81560  0.86710  0.75050  Biso   1.000  H
  N17      1.0000 0.89820  0.38675  0.49870  Biso   1.000  N
  N18      1.0000 0.39820  0.88675  0.49870  Biso   1.000  N
  N19      1.0000 0.89820  0.61325  0.99870  Biso   1.000  N
  N20      1.0000 0.39820  0.11325  0.99870  Biso   1.000  N
  N21      1.0000 0.10180  0.61325  0.50130  Biso   1.000  N
  N22      1.0000 0.60180  0.11325  0.50130  Biso   1.000  N
  N23      1.0000 0.10180  0.38675  0.00130  Biso   1.000  N
  N24      1.0000 0.60180  0.88675  0.00130  Biso   1.000  N
  C81      1.0000 0.79250  0.37960  0.51350  Biso   1.000  C
  C82      1.0000 0.29250  0.87960  0.51350  Biso   1.000  C
  C83      1.0000 0.79250  0.62040  0.01350  Biso   1.000  C
  C84      1.0000 0.29250  0.12040  0.01350  Biso   1.000  C
  C85      1.0000 0.20750  0.62040  0.48650  Biso   1.000  C
  C86      1.0000 0.70750  0.12040  0.48650  Biso   1.000  C
  C87      1.0000 0.20750  0.37960  0.98650  Biso   1.000  C
  C88      1.0000 0.70750  0.87960  0.98650  Biso   1.000  C
  H65      1.0000 0.79540  0.37670  0.57790  Biso   1.000  H
  H66      1.0000 0.29540  0.87670  0.57790  Biso   1.000  H
  H67      1.0000 0.79540  0.62330  0.07790  Biso   1.000  H
  H68      1.0000 0.29540  0.12330  0.07790  Biso   1.000  H
  H69      1.0000 0.20460  0.62330  0.42210  Biso   1.000  H
  H70      1.0000 0.70460  0.12330  0.42210  Biso   1.000  H
  H71      1.0000 0.20460  0.37670  0.92210  Biso   1.000  H
  H72      1.0000 0.70460  0.87670  0.92210  Biso   1.000  H
  C89      1.0000 0.67820  0.37640  0.43510  Biso   1.000  C
  C90      1.0000 0.17820  0.87640  0.43510  Biso   1.000  C
  C91      1.0000 0.67820  0.62360  0.93510  Biso   1.000  C
  C92      1.0000 0.17820  0.12360  0.93510  Biso   1.000  C
  C93      1.0000 0.32180  0.62360  0.56490  Biso   1.000  C
  C94      1.0000 0.82180  0.12360  0.56490  Biso   1.000  C
  C95      1.0000 0.32180  0.37640  0.06490  Biso   1.000  C
  C96      1.0000 0.82180  0.87640  0.06490  Biso   1.000  C
  H73      1.0000 0.60540  0.37220  0.44730  Biso   1.000  H
  H74      1.0000 0.10540  0.87220  0.44730  Biso   1.000  H
  H75      1.0000 0.60540  0.62780  0.94730  Biso   1.000  H
  H76      1.0000 0.10540  0.12780  0.94730  Biso   1.000  H
  H77      1.0000 0.39460  0.62780  0.55270  Biso   1.000  H
  H78      1.0000 0.89460  0.12780  0.55270  Biso   1.000  H
  H79      1.0000 0.39460  0.37220  0.05270  Biso   1.000  H
  H80      1.0000 0.89460  0.87220  0.05270  Biso   1.000  H
  C97      1.0000 0.67370  0.37950  0.33790  Biso   1.000  C
  C98      1.0000 0.17370  0.87950  0.33790  Biso   1.000  C
  C99      1.0000 0.67370  0.62050  0.83790  Biso   1.000  C
  C100     1.0000 0.17370  0.12050  0.83790  Biso   1.000  C
  C101     1.0000 0.32630  0.62050  0.66210  Biso   1.000  C
  C102     1.0000 0.82630  0.12050  0.66210  Biso   1.000  C
  C103     1.0000 0.32630  0.37950  0.16210  Biso   1.000  C
  C104     1.0000 0.82630  0.87950  0.16210  Biso   1.000  C
  C105     1.0000 0.78420  0.38650  0.32540  Biso   1.000  C
  C106     1.0000 0.28420  0.88650  0.32540  Biso   1.000  C
  C107     1.0000 0.78420  0.61350  0.82540  Biso   1.000  C
  C108     1.0000 0.28420  0.11350  0.82540  Biso   1.000  C
  C109     1.0000 0.21580  0.61350  0.67460  Biso   1.000  C
  C110     1.0000 0.71580  0.11350  0.67460  Biso   1.000  C
  C111     1.0000 0.21580  0.38650  0.17460  Biso   1.000  C
  C112     1.0000 0.71580  0.88650  0.17460  Biso   1.000  C
  H81      1.0000 0.78560  0.38880  0.26210  Biso   1.000  H
  H82      1.0000 0.28560  0.88880  0.26210  Biso   1.000  H
  H83      1.0000 0.78560  0.61120  0.76210  Biso   1.000  H
  H84      1.0000 0.28560  0.11120  0.76210  Biso   1.000  H
  H85      1.0000 0.21440  0.61120  0.73790  Biso   1.000  H
  H86      1.0000 0.71440  0.11120  0.73790  Biso   1.000  H
  H87      1.0000 0.21440  0.38880  0.23790  Biso   1.000  H
  H88      1.0000 0.71440  0.88880  0.23790  Biso   1.000  H
  C113     1.0000 0.89110  0.39000  0.40550  Biso   1.000  C
  C114     1.0000 0.39110  0.89000  0.40550  Biso   1.000  C
  C115     1.0000 0.89110  0.61000  0.90550  Biso   1.000  C
  C116     1.0000 0.39110  0.11000  0.90550  Biso   1.000  C
  C117     1.0000 0.10890  0.61000  0.59450  Biso   1.000  C
  C118     1.0000 0.60890  0.11000  0.59450  Biso   1.000  C
  C119     1.0000 0.10890  0.39000  0.09450  Biso   1.000  C
  C120     1.0000 0.60890  0.89000  0.09450  Biso   1.000  C
  H89      1.0000 0.96430  0.39490  0.39470  Biso   1.000  H
  H90      1.0000 0.46430  0.89490  0.39470  Biso   1.000  H
  H91      1.0000 0.96430  0.60510  0.89470  Biso   1.000  H
  H92      1.0000 0.46430  0.10510  0.89470  Biso   1.000  H
  H93      1.0000 0.03570  0.60510  0.60530  Biso   1.000  H
  H94      1.0000 0.53570  0.10510  0.60530  Biso   1.000  H
  H95      1.0000 0.03570  0.39490  0.10530  Biso   1.000  H
  H96      1.0000 0.53570  0.89490  0.10530  Biso   1.000  H
  C121     1.0000 0.55760  0.37740  0.24920  Biso   1.000  C
  C122     1.0000 0.05760  0.87740  0.24920  Biso   1.000  C
  C123     1.0000 0.55760  0.62260  0.74920  Biso   1.000  C
  C124     1.0000 0.05760  0.12260  0.74920  Biso   1.000  C
  C125     1.0000 0.44240  0.62260  0.75080  Biso   1.000  C
  C126     1.0000 0.94240  0.12260  0.75080  Biso   1.000  C
  C127     1.0000 0.44240  0.37740  0.25080  Biso   1.000  C
  C128     1.0000 0.94240  0.87740  0.25080  Biso   1.000  C
  H97      1.0000 0.43430  0.37600  0.31220  Biso   1.000  H
  H98      1.0000 0.93430  0.87600  0.31220  Biso   1.000  H
  H99      1.0000 0.43430  0.62400  0.81220  Biso   1.000  H
  H100     1.0000 0.93430  0.12400  0.81220  Biso   1.000  H
  H101     1.0000 0.56570  0.62400  0.68780  Biso   1.000  H
  H102     1.0000 0.06570  0.12400  0.68780  Biso   1.000  H
  H103     1.0000 0.56570  0.37600  0.18780  Biso   1.000  H
  H104     1.0000 0.06570  0.87600  0.18780  Biso   1.000  H
  C129     1.0000 0.26340  0.26350  0.49790  Biso   1.000  C
  C130     1.0000 0.76340  0.76350  0.49790  Biso   1.000  C
  C131     1.0000 0.26340  0.73650  0.99790  Biso   1.000  C
  C132     1.0000 0.76340  0.23650  0.99790  Biso   1.000  C
  C133     1.0000 0.73660  0.73650  0.50210  Biso   1.000  C
  C134     1.0000 0.23660  0.23650  0.50210  Biso   1.000  C
  C135     1.0000 0.73660  0.26350  0.00210  Biso   1.000  C
  C136     1.0000 0.23660  0.76350  0.00210  Biso   1.000  C
  H105     1.0000 0.17410  0.23320  0.52780  Biso   1.000  H
  H106     1.0000 0.67410  0.73320  0.52780  Biso   1.000  H
  H107     1.0000 0.17410  0.76680  0.02780  Biso   1.000  H
  H108     1.0000 0.67410  0.26680  0.02780  Biso   1.000  H
  H109     1.0000 0.82590  0.76680  0.47220  Biso   1.000  H
  H110     1.0000 0.32590  0.26680  0.47220  Biso   1.000  H
  H111     1.0000 0.82590  0.23320  0.97220  Biso   1.000  H
  H112     1.0000 0.32590  0.73320  0.97220  Biso   1.000  H
  N25      1.0000 0.12670  0.35216  0.57920  Biso   1.000  N
  N26      1.0000 0.62670  0.85216  0.57920  Biso   1.000  N
  N27      1.0000 0.12670  0.64784  0.07920  Biso   1.000  N
  N28      1.0000 0.62670  0.14784  0.07920  Biso   1.000  N
  N29      1.0000 0.87330  0.64784  0.42080  Biso   1.000  N
  N30      1.0000 0.37330  0.14784  0.42080  Biso   1.000  N
  N31      1.0000 0.87330  0.35216  0.92080  Biso   1.000  N
  N32      1.0000 0.37330  0.85216  0.92080  Biso   1.000  N
  C137     1.0000 0.07460  0.32390  0.58940  Biso   1.000  C
  C138     1.0000 0.57460  0.82390  0.58940  Biso   1.000  C
  C139     1.0000 0.07460  0.67610  0.08940  Biso   1.000  C
  C140     1.0000 0.57460  0.17610  0.08940  Biso   1.000  C
  C141     1.0000 0.92540  0.67610  0.41060  Biso   1.000  C
  C142     1.0000 0.42540  0.17610  0.41060  Biso   1.000  C
  C143     1.0000 0.92540  0.32390  0.91060  Biso   1.000  C
  C144     1.0000 0.42540  0.82390  0.91060  Biso   1.000  C
  H113     1.0000 0.00870  0.32370  0.61230  Biso   1.000  H
  H114     1.0000 0.50870  0.82370  0.61230  Biso   1.000  H
  H115     1.0000 0.00870  0.67630  0.11230  Biso   1.000  H
  H116     1.0000 0.50870  0.17630  0.11230  Biso   1.000  H
  H117     1.0000 0.99130  0.67630  0.38770  Biso   1.000  H
  H118     1.0000 0.49130  0.17630  0.38770  Biso   1.000  H
  H119     1.0000 0.99130  0.32370  0.88770  Biso   1.000  H
  H120     1.0000 0.49130  0.82370  0.88770  Biso   1.000  H
  C145     1.0000 0.11980  0.29420  0.56510  Biso   1.000  C
  C146     1.0000 0.61980  0.79420  0.56510  Biso   1.000  C
  C147     1.0000 0.11980  0.70580  0.06510  Biso   1.000  C
  C148     1.0000 0.61980  0.20580  0.06510  Biso   1.000  C
  C149     1.0000 0.88020  0.70580  0.43490  Biso   1.000  C
  C150     1.0000 0.38020  0.20580  0.43490  Biso   1.000  C
  C151     1.0000 0.88020  0.29420  0.93490  Biso   1.000  C
  C152     1.0000 0.38020  0.79420  0.93490  Biso   1.000  C
  H121     1.0000 0.08580  0.27440  0.57490  Biso   1.000  H
  H122     1.0000 0.58580  0.77440  0.57490  Biso   1.000  H
  H123     1.0000 0.08580  0.72560  0.07490  Biso   1.000  H
  H124     1.0000 0.58580  0.22560  0.07490  Biso   1.000  H
  H125     1.0000 0.91420  0.72560  0.42510  Biso   1.000  H
  H126     1.0000 0.41420  0.22560  0.42510  Biso   1.000  H
  H127     1.0000 0.91420  0.27440  0.92510  Biso   1.000  H
  H128     1.0000 0.41420  0.77440  0.92510  Biso   1.000  H
  C153     1.0000 0.21400  0.29420  0.52700  Biso   1.000  C
  C154     1.0000 0.71400  0.79420  0.52700  Biso   1.000  C
  C155     1.0000 0.21400  0.70580  0.02700  Biso   1.000  C
  C156     1.0000 0.71400  0.20580  0.02700  Biso   1.000  C
  C157     1.0000 0.78600  0.70580  0.47300  Biso   1.000  C
  C158     1.0000 0.28600  0.20580  0.47300  Biso   1.000  C
  C159     1.0000 0.78600  0.29420  0.97300  Biso   1.000  C
  C160     1.0000 0.28600  0.79420  0.97300  Biso   1.000  C
  C161     1.0000 0.21780  0.35180  0.54130  Biso   1.000  C
  C162     1.0000 0.71780  0.85180  0.54130  Biso   1.000  C
  C163     1.0000 0.21780  0.64820  0.04130  Biso   1.000  C
  C164     1.0000 0.71780  0.14820  0.04130  Biso   1.000  C
  C165     1.0000 0.78220  0.64820  0.45870  Biso   1.000  C
  C166     1.0000 0.28220  0.14820  0.45870  Biso   1.000  C
  C167     1.0000 0.78220  0.35180  0.95870  Biso   1.000  C
  C168     1.0000 0.28220  0.85180  0.95870  Biso   1.000  C
  H129     1.0000 0.25360  0.37140  0.53280  Biso   1.000  H
  H130     1.0000 0.75360  0.87140  0.53280  Biso   1.000  H
  H131     1.0000 0.25360  0.62860  0.03280  Biso   1.000  H
  H132     1.0000 0.75360  0.12860  0.03280  Biso   1.000  H
  H133     1.0000 0.74640  0.62860  0.46720  Biso   1.000  H
  H134     1.0000 0.24640  0.12860  0.46720  Biso   1.000  H
  H135     1.0000 0.74640  0.37140  0.96720  Biso   1.000  H
  H136     1.0000 0.24640  0.87140  0.96720  Biso   1.000  H
  C169     1.0000 0.25870  0.32310  0.51510  Biso   1.000  C
  C170     1.0000 0.75870  0.82310  0.51510  Biso   1.000  C
  C171     1.0000 0.25870  0.67690  0.01510  Biso   1.000  C
  C172     1.0000 0.75870  0.17690  0.01510  Biso   1.000  C
  C173     1.0000 0.74130  0.67690  0.48490  Biso   1.000  C
  C174     1.0000 0.24130  0.17690  0.48490  Biso   1.000  C
  C175     1.0000 0.74130  0.32310  0.98490  Biso   1.000  C
  C176     1.0000 0.24130  0.82310  0.98490  Biso   1.000  C
  H137     1.0000 0.17950  0.17610  0.51210  Biso   1.000  H
  H138     1.0000 0.67950  0.67610  0.51210  Biso   1.000  H
  H139     1.0000 0.17950  0.82390  0.01210  Biso   1.000  H
  H140     1.0000 0.67950  0.32390  0.01210  Biso   1.000  H
  H141     1.0000 0.82050  0.82390  0.48790  Biso   1.000  H
  H142     1.0000 0.32050  0.32390  0.48790  Biso   1.000  H
  H143     1.0000 0.82050  0.17610  0.98790  Biso   1.000  H
  H144     1.0000 0.32050  0.67610  0.98790  Biso   1.000  H
  O1       1.0000 0.50000  0.17650  0.75000  Biso   1.000  O
  O2       1.0000 0.00000  0.67650  0.75000  Biso   1.000  O
  O3       1.0000 0.50000  0.82350  0.25000  Biso   1.000  O
  O4       1.0000 0.00000  0.32350  0.25000  Biso   1.000  O
  O5       1.0000 0.56600  0.20870  0.73700  Biso   1.000  O
  O6       1.0000 0.06600  0.70870  0.73700  Biso   1.000  O
  O7       1.0000 0.56600  0.79130  0.23700  Biso   1.000  O
  O8       1.0000 0.06600  0.29130  0.23700  Biso   1.000  O
  O9       1.0000 0.43400  0.79130  0.26300  Biso   1.000  O
  O10      1.0000 0.93400  0.29130  0.26300  Biso   1.000  O
  O11      1.0000 0.43400  0.20870  0.76300  Biso   1.000  O
  O12      1.0000 0.93400  0.70870  0.76300  Biso   1.000  O
  O13      1.0000 0.71600  0.20490  0.74300  Biso   1.000  O
  O14      1.0000 0.21600  0.70490  0.74300  Biso   1.000  O
  O15      1.0000 0.71600  0.79510  0.24300  Biso   1.000  O
  O16      1.0000 0.21600  0.29510  0.24300  Biso   1.000  O
  O17      1.0000 0.28400  0.79510  0.25700  Biso   1.000  O
  O18      1.0000 0.78400  0.29510  0.25700  Biso   1.000  O
  O19      1.0000 0.28400  0.20490  0.75700  Biso   1.000  O
  O20      1.0000 0.78400  0.70490  0.75700  Biso   1.000  O
  O21      1.0000 0.92700  0.20960  0.78600  Biso   1.000  O
  O22      1.0000 0.42700  0.70960  0.78600  Biso   1.000  O
  O23      1.0000 0.92700  0.79040  0.28600  Biso   1.000  O
  O24      1.0000 0.42700  0.29040  0.28600  Biso   1.000  O
  O25      1.0000 0.07300  0.79040  0.21400  Biso   1.000  O
  O26      1.0000 0.57300  0.29040  0.21400  Biso   1.000  O
  O27      1.0000 0.07300  0.20960  0.71400  Biso   1.000  O
  O28      1.0000 0.57300  0.70960  0.71400  Biso   1.000  O
  B1       1.0000 0.87300  0.19740  0.37700  Biso   1.000  B
  B2       1.0000 0.37300  0.69740  0.37700  Biso   1.000  B
  B3       1.0000 0.87300  0.80260  0.87700  Biso   1.000  B
  B4       1.0000 0.37300  0.30260  0.87700  Biso   1.000  B
  B5       1.0000 0.12700  0.80260  0.62300  Biso   1.000  B
  B6       1.0000 0.62700  0.30260  0.62300  Biso   1.000  B
  B7       1.0000 0.12700  0.19740  0.12300  Biso   1.000  B
  B8       1.0000 0.62700  0.69740  0.12300  Biso   1.000  B
  F1       1.0000 0.90400  0.22820  0.41000  Biso   1.000  F
  F2       1.0000 0.40400  0.72820  0.41000  Biso   1.000  F
  F3       1.0000 0.90400  0.77180  0.91000  Biso   1.000  F
  F4       1.0000 0.40400  0.27180  0.91000  Biso   1.000  F
  F5       1.0000 0.09600  0.77180  0.59000  Biso   1.000  F
  F6       1.0000 0.59600  0.27180  0.59000  Biso   1.000  F
  F7       1.0000 0.09600  0.22820  0.09000  Biso   1.000  F
  F8       1.0000 0.59600  0.72820  0.09000  Biso   1.000  F
  F9       1.0000 0.90300  0.19250  0.29700  Biso   1.000  F
  F10      1.0000 0.40300  0.69250  0.29700  Biso   1.000  F
  F11      1.0000 0.90300  0.80750  0.79700  Biso   1.000  F
  F12      1.0000 0.40300  0.30750  0.79700  Biso   1.000  F
  F13      1.0000 0.09700  0.80750  0.70300  Biso   1.000  F
  F14      1.0000 0.59700  0.30750  0.70300  Biso   1.000  F
  F15      1.0000 0.09700  0.19250  0.20300  Biso   1.000  F
  F16      1.0000 0.59700  0.69250  0.20300  Biso   1.000  F
  F17      1.0000 0.93900  0.17680  0.44900  Biso   1.000  F
  F18      1.0000 0.43900  0.67680  0.44900  Biso   1.000  F
  F19      1.0000 0.93900  0.82320  0.94900  Biso   1.000  F
  F20      1.0000 0.43900  0.32320  0.94900  Biso   1.000  F
  F21      1.0000 0.06100  0.82320  0.55100  Biso   1.000  F
  F22      1.0000 0.56100  0.32320  0.55100  Biso   1.000  F
  F23      1.0000 0.06100  0.17680  0.05100  Biso   1.000  F
  F24      1.0000 0.56100  0.67680  0.05100  Biso   1.000  F
  F25      1.0000 0.75100  0.19290  0.35600  Biso   1.000  F
  F26      1.0000 0.25100  0.69290  0.35600  Biso   1.000  F
  F27      1.0000 0.75100  0.80710  0.85600  Biso   1.000  F
  F28      1.0000 0.25100  0.30710  0.85600  Biso   1.000  F
  F29      1.0000 0.24900  0.80710  0.64400  Biso   1.000  F
  F30      1.0000 0.74900  0.30710  0.64400  Biso   1.000  F
  F31      1.0000 0.24900  0.19290  0.14400  Biso   1.000  F
  F32      1.0000 0.74900  0.69290  0.14400  Biso   1.000  F
  B9       1.0000 0.75710  0.06930  0.91650  Biso   1.000  B
  B10      1.0000 0.25710  0.56930  0.91650  Biso   1.000  B
  B11      1.0000 0.75710  0.93070  0.41650  Biso   1.000  B
  B12      1.0000 0.25710  0.43070  0.41650  Biso   1.000  B
  B13      1.0000 0.24290  0.93070  0.08350  Biso   1.000  B
  B14      1.0000 0.74290  0.43070  0.08350  Biso   1.000  B
  B15      1.0000 0.24290  0.06930  0.58350  Biso   1.000  B
  B16      1.0000 0.74290  0.56930  0.58350  Biso   1.000  B
  F33      1.0000 0.84110  0.09382  0.92880  Biso   1.000  F
  F34      1.0000 0.34110  0.59382  0.92880  Biso   1.000  F
  F35      1.0000 0.84110  0.90618  0.42880  Biso   1.000  F
  F36      1.0000 0.34110  0.40618  0.42880  Biso   1.000  F
  F37      1.0000 0.15890  0.90618  0.07120  Biso   1.000  F
  F38      1.0000 0.65890  0.40618  0.07120  Biso   1.000  F
  F39      1.0000 0.15890  0.09382  0.57120  Biso   1.000  F
  F40      1.0000 0.65890  0.59382  0.57120  Biso   1.000  F
  F41      1.0000 0.64590  0.07740  0.84550  Biso   1.000  F
  F42      1.0000 0.14590  0.57740  0.84550  Biso   1.000  F
  F43      1.0000 0.64590  0.92260  0.34550  Biso   1.000  F
  F44      1.0000 0.14590  0.42260  0.34550  Biso   1.000  F
  F45      1.0000 0.35410  0.92260  0.15450  Biso   1.000  F
  F46      1.0000 0.85410  0.42260  0.15450  Biso   1.000  F
  F47      1.0000 0.35410  0.07740  0.65450  Biso   1.000  F
  F48      1.0000 0.85410  0.57740  0.65450  Biso   1.000  F
  F49      1.0000 0.73500  0.06470  0.00070  Biso   1.000  F
  F50      1.0000 0.23500  0.56470  0.00070  Biso   1.000  F
  F51      1.0000 0.73500  0.93530  0.50070  Biso   1.000  F
  F52      1.0000 0.23500  0.43530  0.50070  Biso   1.000  F
  F53      1.0000 0.26500  0.93530  0.99930  Biso   1.000  F
  F54      1.0000 0.76500  0.43530  0.99930  Biso   1.000  F
  F55      1.0000 0.26500  0.06470  0.49930  Biso   1.000  F
  F56      1.0000 0.76500  0.56470  0.49930  Biso   1.000  F
  F57      1.0000 0.79650  0.04220  0.88740  Biso   1.000  F
  F58      1.0000 0.29650  0.54220  0.88740  Biso   1.000  F
  F59      1.0000 0.79650  0.95780  0.38740  Biso   1.000  F
  F60      1.0000 0.29650  0.45780  0.38740  Biso   1.000  F
  F61      1.0000 0.20350  0.95780  0.11260  Biso   1.000  F
  F62      1.0000 0.70350  0.45780  0.11260  Biso   1.000  F
  F63      1.0000 0.20350  0.04220  0.61260  Biso   1.000  F
  F64      1.0000 0.70350  0.54220  0.61260  Biso   1.000  F
  F65      1.0000 0.65700  0.08040  0.93400  Biso   1.000  F
  F66      1.0000 0.15700  0.58040  0.93400  Biso   1.000  F
  F67      1.0000 0.65700  0.91960  0.43400  Biso   1.000  F
  F68      1.0000 0.15700  0.41960  0.43400  Biso   1.000  F
  F69      1.0000 0.34300  0.91960  0.06600  Biso   1.000  F
  F70      1.0000 0.84300  0.41960  0.06600  Biso   1.000  F
  F71      1.0000 0.34300  0.08040  0.56600  Biso   1.000  F
  F72      1.0000 0.84300  0.58040  0.56600  Biso   1.000  F
  F73      1.0000 0.81100  0.04500  0.98100  Biso   1.000  F
  F74      1.0000 0.31100  0.54500  0.98100  Biso   1.000  F
  F75      1.0000 0.81100  0.95500  0.48100  Biso   1.000  F
  F76      1.0000 0.31100  0.45500  0.48100  Biso   1.000  F
  F77      1.0000 0.18900  0.95500  0.01900  Biso   1.000  F
  F78      1.0000 0.68900  0.45500  0.01900  Biso   1.000  F
  F79      1.0000 0.18900  0.04500  0.51900  Biso   1.000  F
  F80      1.0000 0.68900  0.54500  0.51900  Biso   1.000  F
  F81      1.0000 0.72100  0.05710  0.82510  Biso   1.000  F
  F82      1.0000 0.22100  0.55710  0.82510  Biso   1.000  F
  F83      1.0000 0.72100  0.94290  0.32510  Biso   1.000  F
  F84      1.0000 0.22100  0.44290  0.32510  Biso   1.000  F
  F85      1.0000 0.27900  0.94290  0.17490  Biso   1.000  F
  F86      1.0000 0.77900  0.44290  0.17490  Biso   1.000  F
  F87      1.0000 0.27900  0.05710  0.67490  Biso   1.000  F
  F88      1.0000 0.77900  0.55710  0.67490  Biso   1.000  F
  Cl5      1.0000 0.91320  0.01692  0.65000  Biso   1.000  Cl
  Cl6      1.0000 0.41320  0.51692  0.65000  Biso   1.000  Cl
  Cl7      1.0000 0.91320  0.98308  0.15000  Biso   1.000  Cl
  Cl8      1.0000 0.41320  0.48308  0.15000  Biso   1.000  Cl
  Cl9      1.0000 0.08680  0.98308  0.35000  Biso   1.000  Cl
  Cl10     1.0000 0.58680  0.48308  0.35000  Biso   1.000  Cl
  Cl11     1.0000 0.08680  0.01692  0.85000  Biso   1.000  Cl
  Cl12     1.0000 0.58680  0.51692  0.85000  Biso   1.000  Cl
  C177     1.0000 0.00000  0.04050  0.75000  Biso   1.000  C
  C178     1.0000 0.50000  0.54050  0.75000  Biso   1.000  C
  C179     1.0000 0.00000  0.95950  0.25000  Biso   1.000  C
  C180     1.0000 0.50000  0.45950  0.25000  Biso   1.000  C
  H145     1.0000 0.05600  0.05440  0.73110  Biso   1.000  H
  H146     1.0000 0.55600  0.55440  0.73110  Biso   1.000  H
  H147     1.0000 0.05600  0.94560  0.23110  Biso   1.000  H
  H148     1.0000 0.55600  0.44560  0.23110  Biso   1.000  H
  H149     1.0000 0.94400  0.94560  0.26890  Biso   1.000  H
  H150     1.0000 0.44400  0.44560  0.26890  Biso   1.000  H
  H151     1.0000 0.94400  0.05440  0.76890  Biso   1.000  H
  H152     1.0000 0.44400  0.55440  0.76890  Biso   1.000  H
