data_image0
_cell_length_a       7.35
_cell_length_b       8.508
_cell_length_c       10.947
_cell_angle_alpha    98.14
_cell_angle_beta     102.77
_cell_angle_gamma    107.7

_symmetry_space_group_name_H-M    "P 1"
_symmetry_int_tables_number       1

loop_
  _symmetry_equiv_pos_as_xyz
  'x, y, z'

loop_
  _atom_site_label
  _atom_site_occupancy
  _atom_site_fract_x
  _atom_site_fract_y
  _atom_site_fract_z
  _atom_site_thermal_displace_type
  _atom_site_B_iso_or_equiv
  _atom_site_type_symbol
  Ag1      1.0000 0.33427  0.84089  0.81557  Biso   1.000  Ag
  Ag2      1.0000 0.66573  0.15911  0.18443  Biso   1.000  Ag
  Cu1      1.0000 0.25172  0.53882  0.99435  Biso   1.000  Cu
  Cu2      1.0000 0.74828  0.46118  0.00565  Biso   1.000  Cu
  O1       1.0000 0.96840  0.70470  0.65970  Biso   1.000  O
  O2       1.0000 0.03160  0.29530  0.34030  Biso   1.000  O
  O3       1.0000 0.43210  0.77340  0.07020  Biso   1.000  O
  O4       1.0000 0.56790  0.22660  0.92980  Biso   1.000  O
  N1       1.0000 0.10600  0.30000  0.94680  Biso   1.000  N
  N2       1.0000 0.89400  0.70000  0.05320  Biso   1.000  N
  O5       1.0000 0.11420  0.58700  0.84630  Biso   1.000  O
  O6       1.0000 0.88580  0.41300  0.15370  Biso   1.000  O
  N3       1.0000 0.39760  0.48970  0.13950  Biso   1.000  N
  N4       1.0000 0.60240  0.51030  0.86050  Biso   1.000  N
  C1       1.0000 0.35250  0.33250  0.14920  Biso   1.000  C
  C2       1.0000 0.64750  0.66750  0.85080  Biso   1.000  C
  C3       1.0000 0.90380  0.29690  0.74010  Biso   1.000  C
  C4       1.0000 0.09620  0.70310  0.25990  Biso   1.000  C
  C5       1.0000 0.16870  0.21120  0.04610  Biso   1.000  C
  C6       1.0000 0.83130  0.78880  0.95390  Biso   1.000  C
  H1       1.0000 0.19800  0.11550  0.00710  Biso   1.000  H
  H2       1.0000 0.80200  0.88450  0.99290  Biso   1.000  H
  H3       1.0000 0.06170  0.16890  0.08450  Biso   1.000  H
  H4       1.0000 0.93830  0.83110  0.91550  Biso   1.000  H
  C7       1.0000 0.97130  0.21740  0.84010  Biso   1.000  C
  C8       1.0000 0.02870  0.78260  0.15990  Biso   1.000  C
  H5       1.0000 0.91490  0.10050  0.82720  Biso   1.000  H
  H6       1.0000 0.08510  0.89950  0.17280  Biso   1.000  H
  C9       1.0000 0.89260  0.53470  0.64330  Biso   1.000  C
  C10      1.0000 0.10740  0.46530  0.35670  Biso   1.000  C
  C11      1.0000 0.97360  0.47070  0.74810  Biso   1.000  C
  C12      1.0000 0.02640  0.52930  0.25190  Biso   1.000  C
  C13      1.0000 0.54900  0.63060  0.23000  Biso   1.000  C
  C14      1.0000 0.45100  0.36940  0.77000  Biso   1.000  C
  H7       1.0000 0.67610  0.61380  0.24310  Biso   1.000  H
  H8       1.0000 0.32390  0.38620  0.75690  Biso   1.000  H
  H9       1.0000 0.51870  0.64310  0.31190  Biso   1.000  H
  H10      1.0000 0.48130  0.35690  0.68810  Biso   1.000  H
  C15      1.0000 0.75980  0.18910  0.62700  Biso   1.000  C
  C16      1.0000 0.24020  0.81090  0.37300  Biso   1.000  C
  H11      1.0000 0.71470  0.07280  0.62050  Biso   1.000  H
  H12      1.0000 0.28530  0.92720  0.37950  Biso   1.000  H
  C17      1.0000 0.68610  0.25280  0.52720  Biso   1.000  C
  C18      1.0000 0.31390  0.74720  0.47280  Biso   1.000  C
  H13      1.0000 0.59020  0.18040  0.45400  Biso   1.000  H
  H14      1.0000 0.40980  0.81960  0.54600  Biso   1.000  H
  C19      1.0000 0.75410  0.42390  0.53560  Biso   1.000  C
  C20      1.0000 0.24590  0.57610  0.46440  Biso   1.000  C
  H15      1.0000 0.70520  0.46610  0.46650  Biso   1.000  H
  H16      1.0000 0.29480  0.53390  0.53350  Biso   1.000  H
  C21      1.0000 0.88690  0.77840  0.56240  Biso   1.000  C
  C22      1.0000 0.11310  0.22160  0.43760  Biso   1.000  C
  H17      1.0000 0.95290  0.89900  0.58570  Biso   1.000  H
  H18      1.0000 0.04710  0.10100  0.41430  Biso   1.000  H
  H19      1.0000 0.74730  0.75230  0.55350  Biso   1.000  H
  H20      1.0000 0.25270  0.24770  0.44650  Biso   1.000  H
  H21      1.0000 0.90530  0.73360  0.48230  Biso   1.000  H
  H22      1.0000 0.09470  0.26640  0.51770  Biso   1.000  H
  O7       1.0000 0.43420  0.27460  0.23670  Biso   1.000  O
  O8       1.0000 0.56580  0.72540  0.76330  Biso   1.000  O
  C23      1.0000 0.55860  0.78820  0.17700  Biso   1.000  C
  C24      1.0000 0.44140  0.21180  0.82300  Biso   1.000  C
  O9       1.0000 0.69140  0.92480  0.23870  Biso   1.000  O
  O10      1.0000 0.30860  0.07520  0.76130  Biso   1.000  O
