data_image0
_cell_length_a       6.3398
_cell_length_b       10.861
_cell_length_c       11.399
_cell_angle_alpha    110.561
_cell_angle_beta     96.751
_cell_angle_gamma    97.779

_symmetry_space_group_name_H-M    "P 1"
_symmetry_int_tables_number       1

loop_
  _symmetry_equiv_pos_as_xyz
  'x, y, z'

loop_
  _atom_site_label
  _atom_site_occupancy
  _atom_site_fract_x
  _atom_site_fract_y
  _atom_site_fract_z
  _atom_site_thermal_displace_type
  _atom_site_B_iso_or_equiv
  _atom_site_type_symbol
  Cu1      1.0000 0.08999  0.15900  0.02931  Biso   1.000  Cu
  Cu2      1.0000 0.91001  0.84100  0.97069  Biso   1.000  Cu
  O1       1.0000 0.24500  0.22450  0.20220  Biso   1.000  O
  O2       1.0000 0.75500  0.77550  0.79780  Biso   1.000  O
  N1       1.0000 0.34030  0.25440  0.97720  Biso   1.000  N
  N2       1.0000 0.65970  0.74560  0.02280  Biso   1.000  N
  N3       1.0000 0.94840  0.13030  0.85210  Biso   1.000  N
  N4       1.0000 0.05160  0.86970  0.14790  Biso   1.000  N
  N5       1.0000 0.17460  0.93370  0.93790  Biso   1.000  N
  N6       1.0000 0.82540  0.06630  0.06210  Biso   1.000  N
  O3       1.0000 0.07380  0.39380  0.22080  Biso   1.000  O
  O4       1.0000 0.92620  0.60620  0.77920  Biso   1.000  O
  C1       1.0000 0.20920  0.34170  0.26230  Biso   1.000  C
  C2       1.0000 0.79080  0.65830  0.73770  Biso   1.000  C
  N7       1.0000 0.19910  0.91210  0.82940  Biso   1.000  N
  N8       1.0000 0.80090  0.08790  0.17060  Biso   1.000  N
  C3       1.0000 0.28710  0.25460  0.85790  Biso   1.000  C
  C4       1.0000 0.71290  0.74540  0.14210  Biso   1.000  C
  C5       1.0000 0.35780  0.41990  0.38780  Biso   1.000  C
  C6       1.0000 0.64220  0.58010  0.61220  Biso   1.000  C
  C7       1.0000 0.16110  0.24140  0.61070  Biso   1.000  C
  C8       1.0000 0.83890  0.75860  0.38930  Biso   1.000  C
  H1       1.0000 0.12060  0.23670  0.52790  Biso   1.000  H
  H2       1.0000 0.87940  0.76330  0.47210  Biso   1.000  H
  C9       1.0000 0.55910  0.38840  0.41420  Biso   1.000  C
  C10      1.0000 0.44090  0.61160  0.58580  Biso   1.000  C
  C11      1.0000 0.53810  0.31370  0.04060  Biso   1.000  C
  C12      1.0000 0.46190  0.68630  0.95940  Biso   1.000  C
  H3       1.0000 0.57790  0.31150  0.12090  Biso   1.000  H
  H4       1.0000 0.42210  0.68850  0.87910  Biso   1.000  H
  C13      1.0000 0.07610  0.18710  0.79040  Biso   1.000  C
  C14      1.0000 0.92390  0.81290  0.20960  Biso   1.000  C
  C15      1.0000 0.75500  0.05970  0.78910  Biso   1.000  C
  C16      1.0000 0.24500  0.94030  0.21090  Biso   1.000  C
  H5       1.0000 0.66460  0.02030  0.82990  Biso   1.000  H
  H6       1.0000 0.33540  0.97970  0.17010  Biso   1.000  H
  C17      1.0000 0.29970  0.53220  0.47400  Biso   1.000  C
  C18      1.0000 0.70030  0.46780  0.52600  Biso   1.000  C
  C19      1.0000 0.43050  0.31720  0.80210  Biso   1.000  C
  C20      1.0000 0.56950  0.68280  0.19790  Biso   1.000  C
  C21      1.0000 0.63810  0.38160  0.87480  Biso   1.000  C
  C22      1.0000 0.36190  0.61840  0.12520  Biso   1.000  C
  H7       1.0000 0.73820  0.42510  0.84210  Biso   1.000  H
  H8       1.0000 0.26180  0.57490  0.15790  Biso   1.000  H
  C23      1.0000 0.68990  0.37940  0.99240  Biso   1.000  C
  C24      1.0000 0.31010  0.62060  0.00760  Biso   1.000  C
  H9       1.0000 0.82610  0.42160  0.04110  Biso   1.000  H
  H10      1.0000 0.17390  0.57840  0.95890  Biso   1.000  H
  N9       1.0000 0.22620  0.89500  0.72690  Biso   1.000  N
  N10      1.0000 0.77380  0.10500  0.27310  Biso   1.000  N
  C25      1.0000 0.01340  0.17730  0.66500  Biso   1.000  C
  C26      1.0000 0.98660  0.82270  0.33500  Biso   1.000  C
  C27      1.0000 0.35690  0.30830  0.67560  Biso   1.000  C
  C28      1.0000 0.64310  0.69170  0.32440  Biso   1.000  C
  H11      1.0000 0.44820  0.35060  0.63730  Biso   1.000  H
  H12      1.0000 0.55180  0.64940  0.36270  Biso   1.000  H
  C29      1.0000 0.80880  0.10260  0.60310  Biso   1.000  C
  C30      1.0000 0.19120  0.89740  0.39690  Biso   1.000  C
  H13      1.0000 0.75770  0.09360  0.52000  Biso   1.000  H
  H14      1.0000 0.24230  0.90640  0.48000  Biso   1.000  H
  C31      1.0000 0.68470  0.04320  0.66410  Biso   1.000  C
  C32      1.0000 0.31530  0.95680  0.33590  Biso   1.000  C
  H15      1.0000 0.55020  0.99060  0.62150  Biso   1.000  H
  H16      1.0000 0.44980  0.00940  0.37850  Biso   1.000  H
  H17      1.0000 0.59900  0.31000  0.35700  Biso   1.000  H
  H18      1.0000 0.40100  0.69000  0.64300  Biso   1.000  H
  H19      1.0000 0.14800  0.55700  0.45400  Biso   1.000  H
  H20      1.0000 0.85200  0.44300  0.54600  Biso   1.000  H
