data_image0
_cell_length_a       10.6096
_cell_length_b       11.6951
_cell_length_c       13.1796
_cell_angle_alpha    71.369
_cell_angle_beta     70.79
_cell_angle_gamma    80.738

_symmetry_space_group_name_H-M    "P 1"
_symmetry_int_tables_number       1

loop_
  _symmetry_equiv_pos_as_xyz
  'x, y, z'

loop_
  _atom_site_label
  _atom_site_occupancy
  _atom_site_fract_x
  _atom_site_fract_y
  _atom_site_fract_z
  _atom_site_thermal_displace_type
  _atom_site_B_iso_or_equiv
  _atom_site_type_symbol
  Cu1      1.0000 0.53785  0.61541  0.61951  Biso   1.000  Cu
  Cu2      1.0000 0.46215  0.38459  0.38049  Biso   1.000  Cu
  Cu3      1.0000 0.00528  0.88585  0.86273  Biso   1.000  Cu
  Cu4      1.0000 0.99472  0.11415  0.13727  Biso   1.000  Cu
  V1       1.0000 0.89467  0.18253  0.75831  Biso   1.000  V
  V2       1.0000 0.10533  0.81747  0.24169  Biso   1.000  V
  V3       1.0000 0.59613  0.33355  0.76958  Biso   1.000  V
  V4       1.0000 0.40387  0.66645  0.23042  Biso   1.000  V
  P1       1.0000 0.38940  0.38777  0.64229  Biso   1.000  P
  P2       1.0000 0.61060  0.61223  0.35771  Biso   1.000  P
  P3       1.0000 0.11029  0.11212  0.88481  Biso   1.000  P
  P4       1.0000 0.88971  0.88788  0.11519  Biso   1.000  P
  O1       1.0000 0.12429  0.98421  0.87648  Biso   1.000  O
  O2       1.0000 0.87571  0.01579  0.12352  Biso   1.000  O
  O3       1.0000 0.92850  0.04912  0.73493  Biso   1.000  O
  O4       1.0000 0.07150  0.95088  0.26507  Biso   1.000  O
  O5       1.0000 0.12310  0.12193  0.99298  Biso   1.000  O
  O6       1.0000 0.87690  0.87807  0.00702  Biso   1.000  O
  O7       1.0000 0.97730  0.18004  0.86454  Biso   1.000  O
  O8       1.0000 0.02270  0.81996  0.13546  Biso   1.000  O
  O9       1.0000 0.96160  0.28400  0.64383  Biso   1.000  O
  O10      1.0000 0.03840  0.71600  0.35617  Biso   1.000  O
  O11      1.0000 0.71580  0.21199  0.80666  Biso   1.000  O
  O12      1.0000 0.28420  0.78801  0.19334  Biso   1.000  O
  O13      1.0000 0.66570  0.46271  0.69958  Biso   1.000  O
  O14      1.0000 0.33430  0.53729  0.30042  Biso   1.000  O
  O15      1.0000 0.48210  0.34990  0.88211  Biso   1.000  O
  O16      1.0000 0.51790  0.65010  0.11789  Biso   1.000  O
  O17      1.0000 0.51135  0.30742  0.67524  Biso   1.000  O
  O18      1.0000 0.48865  0.69258  0.32476  Biso   1.000  O
  O19      1.0000 0.39575  0.51738  0.63975  Biso   1.000  O
  O20      1.0000 0.60425  0.48262  0.36025  Biso   1.000  O
  O21      1.0000 0.37710  0.37037  0.53779  Biso   1.000  O
  O22      1.0000 0.62290  0.62963  0.46221  Biso   1.000  O
  N1       1.0000 0.91330  0.75540  0.85138  Biso   1.000  N
  N2       1.0000 0.08670  0.24460  0.14862  Biso   1.000  N
  N3       1.0000 0.14050  0.85290  0.72350  Biso   1.000  N
  N4       1.0000 0.85950  0.14710  0.27650  Biso   1.000  N
  N5       1.0000 0.65860  0.73820  0.60800  Biso   1.000  N
  N6       1.0000 0.34140  0.26180  0.39200  Biso   1.000  N
  N7       1.0000 0.43350  0.66300  0.76120  Biso   1.000  N
  N8       1.0000 0.56650  0.33700  0.23880  Biso   1.000  N
  C1       1.0000 0.79670  0.70990  0.91760  Biso   1.000  C
  C2       1.0000 0.20330  0.29010  0.08240  Biso   1.000  C
  H1       1.0000 0.74850  0.74040  0.97730  Biso   1.000  H
  H2       1.0000 0.25150  0.25960  0.02270  Biso   1.000  H
  C3       1.0000 0.74470  0.61790  0.89990  Biso   1.000  C
  C4       1.0000 0.25530  0.38210  0.10010  Biso   1.000  C
  H3       1.0000 0.66330  0.58770  0.94760  Biso   1.000  H
  H4       1.0000 0.33670  0.41230  0.05240  Biso   1.000  H
  C5       1.0000 0.81460  0.57200  0.81140  Biso   1.000  C
  C6       1.0000 0.18540  0.42800  0.18860  Biso   1.000  C
  H5       1.0000 0.78120  0.51000  0.79990  Biso   1.000  H
  H6       1.0000 0.21880  0.49000  0.20010  Biso   1.000  H
  C7       1.0000 0.93670  0.61930  0.73870  Biso   1.000  C
  C8       1.0000 0.06330  0.38070  0.26130  Biso   1.000  C
  C9       1.0000 0.98160  0.71210  0.76270  Biso   1.000  C
  C10      1.0000 0.01840  0.28790  0.23730  Biso   1.000  C
  C11      1.0000 0.01610  0.58220  0.64140  Biso   1.000  C
  C12      1.0000 0.98390  0.41780  0.35860  Biso   1.000  C
  H7       1.0000 0.98820  0.52050  0.62500  Biso   1.000  H
  H8       1.0000 0.01180  0.47950  0.37500  Biso   1.000  H
  C13      1.0000 0.13060  0.63510  0.57310  Biso   1.000  C
  C14      1.0000 0.86940  0.36490  0.42690  Biso   1.000  C
  H9       1.0000 0.17940  0.60980  0.51030  Biso   1.000  H
  H10      1.0000 0.82060  0.39020  0.48970  Biso   1.000  H
  C15      1.0000 0.17820  0.73030  0.59650  Biso   1.000  C
  C16      1.0000 0.82180  0.26970  0.40350  Biso   1.000  C
  C17      1.0000 0.10360  0.76660  0.69200  Biso   1.000  C
  C18      1.0000 0.89640  0.23340  0.30800  Biso   1.000  C
  C19      1.0000 0.29590  0.78860  0.53080  Biso   1.000  C
  C20      1.0000 0.70410  0.21140  0.46920  Biso   1.000  C
  H11      1.0000 0.34840  0.76840  0.46620  Biso   1.000  H
  H12      1.0000 0.65160  0.23160  0.53380  Biso   1.000  H
  C21      1.0000 0.33330  0.87630  0.56280  Biso   1.000  C
  C22      1.0000 0.66670  0.12370  0.43720  Biso   1.000  C
  H13      1.0000 0.41130  0.91570  0.51990  Biso   1.000  H
  H14      1.0000 0.58870  0.08430  0.48010  Biso   1.000  H
  C23      1.0000 0.25280  0.90580  0.66060  Biso   1.000  C
  C24      1.0000 0.74720  0.09420  0.33940  Biso   1.000  C
  H15      1.0000 0.27940  0.96440  0.68190  Biso   1.000  H
  H16      1.0000 0.72060  0.03560  0.31810  Biso   1.000  H
  C25      1.0000 0.77550  0.76870  0.53230  Biso   1.000  C
  C26      1.0000 0.22450  0.23130  0.46770  Biso   1.000  C
  H17      1.0000 0.80940  0.73000  0.47640  Biso   1.000  H
  H18      1.0000 0.19060  0.27000  0.52360  Biso   1.000  H
  C27      1.0000 0.85000  0.85700  0.53320  Biso   1.000  C
  C28      1.0000 0.15000  0.14300  0.46680  Biso   1.000  C
  H19      1.0000 0.93120  0.87650  0.47850  Biso   1.000  H
  H20      1.0000 0.06880  0.12350  0.52150  Biso   1.000  H
  C29      1.0000 0.80130  0.91470  0.61660  Biso   1.000  C
  C30      1.0000 0.19870  0.08530  0.38340  Biso   1.000  C
  H21      1.0000 0.84950  0.97330  0.61850  Biso   1.000  H
  H22      1.0000 0.15050  0.02670  0.38150  Biso   1.000  H
  C31      1.0000 0.67780  0.88360  0.69850  Biso   1.000  C
  C32      1.0000 0.32220  0.11640  0.30150  Biso   1.000  C
  C33      1.0000 0.61100  0.79370  0.69100  Biso   1.000  C
  C34      1.0000 0.38900  0.20630  0.30900  Biso   1.000  C
  C35      1.0000 0.61710  0.93710  0.79010  Biso   1.000  C
  C36      1.0000 0.38290  0.06290  0.20990  Biso   1.000  C
  H23      1.0000 0.65900  0.99780  0.79570  Biso   1.000  H
  H24      1.0000 0.34100  0.00220  0.20430  Biso   1.000  H
  C37      1.0000 0.49970  0.89930  0.86760  Biso   1.000  C
  C38      1.0000 0.50030  0.10070  0.13240  Biso   1.000  C
  H25      1.0000 0.46190  0.93530  0.92530  Biso   1.000  H
  H26      1.0000 0.53810  0.06470  0.07470  Biso   1.000  H
  C39      1.0000 0.43230  0.80480  0.86270  Biso   1.000  C
  C40      1.0000 0.56770  0.19520  0.13730  Biso   1.000  C
  C41      1.0000 0.48870  0.75290  0.77440  Biso   1.000  C
  C42      1.0000 0.51130  0.24710  0.22560  Biso   1.000  C
  C43      1.0000 0.31030  0.76070  0.94110  Biso   1.000  C
  C44      1.0000 0.68970  0.23930  0.05890  Biso   1.000  C
  H27      1.0000 0.26770  0.79290  0.00070  Biso   1.000  H
  H28      1.0000 0.73230  0.20710  0.99930  Biso   1.000  H
  C45      1.0000 0.25620  0.67020  0.92790  Biso   1.000  C
  C46      1.0000 0.74380  0.32980  0.07210  Biso   1.000  C
  H29      1.0000 0.17640  0.64000  0.97920  Biso   1.000  H
  H30      1.0000 0.82360  0.36000  0.02080  Biso   1.000  H
  C47      1.0000 0.32020  0.62240  0.83710  Biso   1.000  C
  C48      1.0000 0.67980  0.37760  0.16290  Biso   1.000  C
  H31      1.0000 0.28200  0.56010  0.83020  Biso   1.000  H
  H32      1.0000 0.71800  0.43990  0.16980  Biso   1.000  H
  C49      1.0000 0.24570  0.32500  0.75510  Biso   1.000  C
  C50      1.0000 0.75430  0.67500  0.24490  Biso   1.000  C
  H33      1.0000 0.24740  0.33770  0.82390  Biso   1.000  H
  H34      1.0000 0.75260  0.66230  0.17610  Biso   1.000  H
  H35      1.0000 0.16470  0.36590  0.73840  Biso   1.000  H
  H36      1.0000 0.83530  0.63410  0.26160  Biso   1.000  H
  C51      1.0000 0.24510  0.18880  0.77130  Biso   1.000  C
  C52      1.0000 0.75490  0.81120  0.22870  Biso   1.000  C
  H37      1.0000 0.32900  0.15020  0.78370  Biso   1.000  H
  H38      1.0000 0.67100  0.84980  0.21630  Biso   1.000  H
  H39      1.0000 0.24170  0.17800  0.70230  Biso   1.000  H
  H40      1.0000 0.75830  0.82200  0.29770  Biso   1.000  H
