data_image0
_cell_length_a       9.0656
_cell_length_b       8.6584
_cell_length_c       20.9345
_cell_angle_alpha    90
_cell_angle_beta     97.306
_cell_angle_gamma    90

_symmetry_space_group_name_H-M    "P 1"
_symmetry_int_tables_number       1

loop_
  _symmetry_equiv_pos_as_xyz
  'x, y, z'

loop_
  _atom_site_label
  _atom_site_occupancy
  _atom_site_fract_x
  _atom_site_fract_y
  _atom_site_fract_z
  _atom_site_thermal_displace_type
  _atom_site_B_iso_or_equiv
  _atom_site_type_symbol
  Cu1      1.0000 0.40049  0.05207  0.13969  Biso   1.000  Cu
  Cu2      1.0000 0.40049  0.44793  0.63969  Biso   1.000  Cu
  Cu3      1.0000 0.59951  0.94793  0.86031  Biso   1.000  Cu
  Cu4      1.0000 0.59951  0.55207  0.36031  Biso   1.000  Cu
  V1       1.0000 0.87901  0.08163  0.29994  Biso   1.000  V
  V2       1.0000 0.87901  0.41837  0.79994  Biso   1.000  V
  V3       1.0000 0.12099  0.91837  0.70006  Biso   1.000  V
  V4       1.0000 0.12099  0.58163  0.20006  Biso   1.000  V
  P1       1.0000 0.14541  0.95307  0.21812  Biso   1.000  P
  P2       1.0000 0.14541  0.54693  0.71812  Biso   1.000  P
  P3       1.0000 0.85459  0.04693  0.78188  Biso   1.000  P
  P4       1.0000 0.85459  0.45307  0.28188  Biso   1.000  P
  P5       1.0000 0.42686  0.78013  0.24006  Biso   1.000  P
  P6       1.0000 0.42686  0.71987  0.74006  Biso   1.000  P
  P7       1.0000 0.57314  0.21987  0.75994  Biso   1.000  P
  P8       1.0000 0.57314  0.28013  0.25994  Biso   1.000  P
  O1       1.0000 0.47750  0.86670  0.18323  Biso   1.000  O
  O2       1.0000 0.47750  0.63330  0.68323  Biso   1.000  O
  O3       1.0000 0.52250  0.13330  0.81677  Biso   1.000  O
  O4       1.0000 0.52250  0.36670  0.31677  Biso   1.000  O
  O5       1.0000 0.55860  0.73470  0.28859  Biso   1.000  O
  O6       1.0000 0.55860  0.76530  0.78859  Biso   1.000  O
  O7       1.0000 0.44140  0.26530  0.71141  Biso   1.000  O
  O8       1.0000 0.44140  0.23470  0.21141  Biso   1.000  O
  O9       1.0000 0.19750  0.02640  0.15901  Biso   1.000  O
  O10      1.0000 0.19750  0.47360  0.65901  Biso   1.000  O
  O11      1.0000 0.80250  0.97360  0.84099  Biso   1.000  O
  O12      1.0000 0.80250  0.52640  0.34099  Biso   1.000  O
  O13      1.0000 0.04410  0.06480  0.24910  Biso   1.000  O
  O14      1.0000 0.04410  0.43520  0.74910  Biso   1.000  O
  O15      1.0000 0.95590  0.93520  0.75090  Biso   1.000  O
  O16      1.0000 0.95590  0.56480  0.25090  Biso   1.000  O
  O17      1.0000 0.81030  0.86970  0.26647  Biso   1.000  O
  O18      1.0000 0.81030  0.63030  0.76647  Biso   1.000  O
  O19      1.0000 0.18970  0.13030  0.73353  Biso   1.000  O
  O20      1.0000 0.18970  0.36970  0.23353  Biso   1.000  O
  O21      1.0000 0.32980  0.63740  0.21856  Biso   1.000  O
  O22      1.0000 0.32980  0.86260  0.71856  Biso   1.000  O
  O23      1.0000 0.67020  0.36260  0.78144  Biso   1.000  O
  O24      1.0000 0.67020  0.13740  0.28144  Biso   1.000  O
  O25      1.0000 0.06380  0.80060  0.20209  Biso   1.000  O
  O26      1.0000 0.06380  0.69940  0.70209  Biso   1.000  O
  O27      1.0000 0.93620  0.19940  0.79791  Biso   1.000  O
  O28      1.0000 0.93620  0.30060  0.29791  Biso   1.000  O
  O29      1.0000 0.92760  0.04160  0.37442  Biso   1.000  O
  O30      1.0000 0.92760  0.45840  0.87442  Biso   1.000  O
  O31      1.0000 0.07240  0.95840  0.62558  Biso   1.000  O
  O32      1.0000 0.07240  0.54160  0.12558  Biso   1.000  O
  N1       1.0000 0.58840  0.06830  0.09759  Biso   1.000  N
  N2       1.0000 0.58840  0.43170  0.59759  Biso   1.000  N
  N3       1.0000 0.41160  0.93170  0.90241  Biso   1.000  N
  N4       1.0000 0.41160  0.56830  0.40241  Biso   1.000  N
  N5       1.0000 0.32560  0.19910  0.06668  Biso   1.000  N
  N6       1.0000 0.32560  0.30090  0.56668  Biso   1.000  N
  N7       1.0000 0.67440  0.80090  0.93332  Biso   1.000  N
  N8       1.0000 0.67440  0.69910  0.43332  Biso   1.000  N
  C1       1.0000 0.71810  0.99910  0.11473  Biso   1.000  C
  C2       1.0000 0.71810  0.50090  0.61473  Biso   1.000  C
  C3       1.0000 0.28190  0.00090  0.88527  Biso   1.000  C
  C4       1.0000 0.28190  0.49910  0.38527  Biso   1.000  C
  H1       1.0000 0.72900  0.93590  0.15090  Biso   1.000  H
  H2       1.0000 0.72900  0.56410  0.65090  Biso   1.000  H
  H3       1.0000 0.27100  0.06410  0.84910  Biso   1.000  H
  H4       1.0000 0.27100  0.43590  0.34910  Biso   1.000  H
  C5       1.0000 0.84000  0.01850  0.07975  Biso   1.000  C
  C6       1.0000 0.84000  0.48150  0.57975  Biso   1.000  C
  C7       1.0000 0.16000  0.98150  0.92025  Biso   1.000  C
  C8       1.0000 0.16000  0.51850  0.42025  Biso   1.000  C
  H5       1.0000 0.93030  0.97030  0.09320  Biso   1.000  H
  H6       1.0000 0.93030  0.52970  0.59320  Biso   1.000  H
  H7       1.0000 0.06970  0.02970  0.90680  Biso   1.000  H
  H8       1.0000 0.06970  0.47030  0.40680  Biso   1.000  H
  C9       1.0000 0.82340  0.10990  0.02534  Biso   1.000  C
  C10      1.0000 0.82340  0.39010  0.52534  Biso   1.000  C
  C11      1.0000 0.17660  0.89010  0.97466  Biso   1.000  C
  C12      1.0000 0.17660  0.60990  0.47466  Biso   1.000  C
  H9       1.0000 0.90220  0.12230  0.00140  Biso   1.000  H
  H10      1.0000 0.90220  0.37770  0.50140  Biso   1.000  H
  H11      1.0000 0.09780  0.87770  0.99860  Biso   1.000  H
  H12      1.0000 0.09780  0.62230  0.49860  Biso   1.000  H
  C13      1.0000 0.68720  0.18430  0.00620  Biso   1.000  C
  C14      1.0000 0.68720  0.31570  0.50620  Biso   1.000  C
  C15      1.0000 0.31280  0.81570  0.99380  Biso   1.000  C
  C16      1.0000 0.31280  0.68430  0.49380  Biso   1.000  C
  C17      1.0000 0.57340  0.15970  0.04413  Biso   1.000  C
  C18      1.0000 0.57340  0.34030  0.54413  Biso   1.000  C
  C19      1.0000 0.42660  0.84030  0.95587  Biso   1.000  C
  C20      1.0000 0.42660  0.65970  0.45587  Biso   1.000  C
  C21      1.0000 0.65860  0.28180  0.95022  Biso   1.000  C
  C22      1.0000 0.65860  0.21820  0.45022  Biso   1.000  C
  C23      1.0000 0.34140  0.71820  0.04978  Biso   1.000  C
  C24      1.0000 0.34140  0.78180  0.54978  Biso   1.000  C
  H13      1.0000 0.73400  0.30010  0.92490  Biso   1.000  H
  H14      1.0000 0.73400  0.19990  0.42490  Biso   1.000  H
  H15      1.0000 0.26600  0.69990  0.07510  Biso   1.000  H
  H16      1.0000 0.26600  0.80010  0.57510  Biso   1.000  H
  C25      1.0000 0.52320  0.34720  0.93391  Biso   1.000  C
  C26      1.0000 0.52320  0.15280  0.43391  Biso   1.000  C
  C27      1.0000 0.47680  0.65280  0.06609  Biso   1.000  C
  C28      1.0000 0.47680  0.84720  0.56609  Biso   1.000  C
  H17      1.0000 0.50730  0.40960  0.89750  Biso   1.000  H
  H18      1.0000 0.50730  0.09040  0.39750  Biso   1.000  H
  H19      1.0000 0.49270  0.59040  0.10250  Biso   1.000  H
  H20      1.0000 0.49270  0.90960  0.60250  Biso   1.000  H
  C29      1.0000 0.40370  0.32190  0.97188  Biso   1.000  C
  C30      1.0000 0.40370  0.17810  0.47188  Biso   1.000  C
  C31      1.0000 0.59630  0.67810  0.02812  Biso   1.000  C
  C32      1.0000 0.59630  0.82190  0.52812  Biso   1.000  C
  C33      1.0000 0.42960  0.23030  0.02704  Biso   1.000  C
  C34      1.0000 0.42960  0.26970  0.52704  Biso   1.000  C
  C35      1.0000 0.57040  0.76970  0.97296  Biso   1.000  C
  C36      1.0000 0.57040  0.73030  0.47296  Biso   1.000  C
  C37      1.0000 0.25760  0.38030  0.95659  Biso   1.000  C
  C38      1.0000 0.25760  0.11970  0.45659  Biso   1.000  C
  C39      1.0000 0.74240  0.61970  0.04341  Biso   1.000  C
  C40      1.0000 0.74240  0.88030  0.54341  Biso   1.000  C
  H21      1.0000 0.23260  0.43920  0.91960  Biso   1.000  H
  H22      1.0000 0.23260  0.06080  0.41960  Biso   1.000  H
  H23      1.0000 0.76740  0.56080  0.08040  Biso   1.000  H
  H24      1.0000 0.76740  0.93920  0.58040  Biso   1.000  H
  C41      1.0000 0.15380  0.34910  0.99672  Biso   1.000  C
  C42      1.0000 0.15380  0.15090  0.49672  Biso   1.000  C
  C43      1.0000 0.84620  0.65090  0.00328  Biso   1.000  C
  C44      1.0000 0.84620  0.84910  0.50328  Biso   1.000  C
  H25      1.0000 0.05770  0.38720  0.98710  Biso   1.000  H
  H26      1.0000 0.05770  0.11280  0.48710  Biso   1.000  H
  H27      1.0000 0.94230  0.61280  0.01290  Biso   1.000  H
  H28      1.0000 0.94230  0.88720  0.51290  Biso   1.000  H
  C45      1.0000 0.19120  0.26000  0.05238  Biso   1.000  C
  C46      1.0000 0.19120  0.24000  0.55238  Biso   1.000  C
  C47      1.0000 0.80880  0.74000  0.94762  Biso   1.000  C
  C48      1.0000 0.80880  0.76000  0.44762  Biso   1.000  C
  H29      1.0000 0.12000  0.24320  0.07990  Biso   1.000  H
  H30      1.0000 0.12000  0.25680  0.57990  Biso   1.000  H
  H31      1.0000 0.88000  0.75680  0.92010  Biso   1.000  H
  H32      1.0000 0.88000  0.74320  0.42010  Biso   1.000  H
  C49      1.0000 0.30420  0.91000  0.27652  Biso   1.000  C
  C50      1.0000 0.30420  0.59000  0.77652  Biso   1.000  C
  C51      1.0000 0.69580  0.09000  0.72348  Biso   1.000  C
  C52      1.0000 0.69580  0.41000  0.22348  Biso   1.000  C
  H33      1.0000 0.27170  0.86180  0.31420  Biso   1.000  H
  H34      1.0000 0.27170  0.63820  0.81420  Biso   1.000  H
  H35      1.0000 0.72830  0.13820  0.68580  Biso   1.000  H
  H36      1.0000 0.72830  0.36180  0.18580  Biso   1.000  H
  H37      1.0000 0.35660  0.00450  0.29000  Biso   1.000  H
  H38      1.0000 0.35660  0.49550  0.79000  Biso   1.000  H
  H39      1.0000 0.64340  0.99550  0.71000  Biso   1.000  H
  H40      1.0000 0.64340  0.50450  0.21000  Biso   1.000  H
