data_image0
_cell_length_a       9.4356
_cell_length_b       10.6556
_cell_length_c       11.0354
_cell_angle_alpha    118.187
_cell_angle_beta     91.416
_cell_angle_gamma    107.821

_symmetry_space_group_name_H-M    "P 1"
_symmetry_int_tables_number       1

loop_
  _symmetry_equiv_pos_as_xyz
  'x, y, z'

loop_
  _atom_site_label
  _atom_site_occupancy
  _atom_site_fract_x
  _atom_site_fract_y
  _atom_site_fract_z
  _atom_site_thermal_displace_type
  _atom_site_B_iso_or_equiv
  _atom_site_type_symbol
  Cu1      1.0000 0.28203  0.49406  0.29711  Biso   1.000  Cu
  Cu2      1.0000 0.71797  0.50594  0.70289  Biso   1.000  Cu
  V1       1.0000 0.47282  0.52893  0.03986  Biso   1.000  V
  V2       1.0000 0.52718  0.47107  0.96014  Biso   1.000  V
  V3       1.0000 0.81960  0.59770  0.05300  Biso   1.000  V
  V4       1.0000 0.18040  0.40230  0.94700  Biso   1.000  V
  V5       1.0000 0.85943  0.68136  0.14502  Biso   1.000  V
  V6       1.0000 0.14057  0.31864  0.85498  Biso   1.000  V
  P1       1.0000 0.94612  0.38781  0.11807  Biso   1.000  P
  P2       1.0000 0.05388  0.61219  0.88193  Biso   1.000  P
  P3       1.0000 0.31415  0.22961  0.03760  Biso   1.000  P
  P4       1.0000 0.68585  0.77039  0.96240  Biso   1.000  P
  O1       1.0000 0.29470  0.29540  0.18920  Biso   1.000  O
  O2       1.0000 0.70530  0.70460  0.81080  Biso   1.000  O
  O3       1.0000 0.36380  0.58310  0.14780  Biso   1.000  O
  O4       1.0000 0.63620  0.41690  0.85220  Biso   1.000  O
  O5       1.0000 0.30700  0.58160  0.11700  Biso   1.000  O
  O6       1.0000 0.69300  0.41840  0.88300  Biso   1.000  O
  O7       1.0000 0.89210  0.52280  0.16750  Biso   1.000  O
  O8       1.0000 0.10790  0.47720  0.83250  Biso   1.000  O
  O9       1.0000 0.06830  0.41970  0.23140  Biso   1.000  O
  O10      1.0000 0.93170  0.58030  0.76860  Biso   1.000  O
  O11      1.0000 0.98670  0.34160  0.97300  Biso   1.000  O
  O12      1.0000 0.01330  0.65840  0.02700  Biso   1.000  O
  O13      1.0000 0.93960  0.82170  0.29950  Biso   1.000  O
  O14      1.0000 0.06040  0.17830  0.70050  Biso   1.000  O
  O15      1.0000 0.17860  0.20290  0.93780  Biso   1.000  O
  O16      1.0000 0.82140  0.79710  0.06220  Biso   1.000  O
  O17      1.0000 0.66780  0.61700  0.14800  Biso   1.000  O
  O18      1.0000 0.33220  0.38300  0.85200  Biso   1.000  O
  O19      1.0000 0.46530  0.33170  0.02710  Biso   1.000  O
  O20      1.0000 0.53470  0.66830  0.97290  Biso   1.000  O
  N1       1.0000 0.50100  0.58550  0.39750  Biso   1.000  N
  N2       1.0000 0.49900  0.41450  0.60250  Biso   1.000  N
  N3       1.0000 0.28650  0.70360  0.43810  Biso   1.000  N
  N4       1.0000 0.71350  0.29640  0.56190  Biso   1.000  N
  C1       1.0000 0.60540  0.52170  0.37290  Biso   1.000  C
  C2       1.0000 0.39460  0.47830  0.62710  Biso   1.000  C
  H1       1.0000 0.58030  0.42220  0.29900  Biso   1.000  H
  H2       1.0000 0.41970  0.57780  0.70100  Biso   1.000  H
  C3       1.0000 0.75300  0.60030  0.45550  Biso   1.000  C
  C4       1.0000 0.24700  0.39970  0.54450  Biso   1.000  C
  H3       1.0000 0.82340  0.55210  0.43760  Biso   1.000  H
  H4       1.0000 0.17660  0.44790  0.56240  Biso   1.000  H
  C5       1.0000 0.79280  0.74800  0.56250  Biso   1.000  C
  C6       1.0000 0.20720  0.25200  0.43750  Biso   1.000  C
  H5       1.0000 0.89000  0.79980  0.61820  Biso   1.000  H
  H6       1.0000 0.11000  0.20020  0.38180  Biso   1.000  H
  C7       1.0000 0.68740  0.82110  0.58800  Biso   1.000  C
  C8       1.0000 0.31260  0.17890  0.41200  Biso   1.000  C
  C9       1.0000 0.54130  0.73300  0.50290  Biso   1.000  C
  C10      1.0000 0.45870  0.26700  0.49710  Biso   1.000  C
  C11      1.0000 0.71670  0.97580  0.69230  Biso   1.000  C
  C12      1.0000 0.28330  0.02420  0.30770  Biso   1.000  C
  H7       1.0000 0.81270  0.03490  0.74970  Biso   1.000  H
  H8       1.0000 0.18730  0.96510  0.25030  Biso   1.000  H
  C13      1.0000 0.60840  0.03980  0.71050  Biso   1.000  C
  C14      1.0000 0.39160  0.96020  0.28950  Biso   1.000  C
  H9       1.0000 0.63230  0.14190  0.77800  Biso   1.000  H
  H10      1.0000 0.36770  0.85810  0.22200  Biso   1.000  H
  C15      1.0000 0.45800  0.95120  0.62650  Biso   1.000  C
  C16      1.0000 0.54200  0.04880  0.37350  Biso   1.000  C
  C17      1.0000 0.42550  0.79760  0.52410  Biso   1.000  C
  C18      1.0000 0.57450  0.20240  0.47590  Biso   1.000  C
  C19      1.0000 0.33900  0.00750  0.63810  Biso   1.000  C
  C20      1.0000 0.66100  0.99250  0.36190  Biso   1.000  C
  H11      1.0000 0.35460  0.10820  0.70470  Biso   1.000  H
  H12      1.0000 0.64540  0.89180  0.29530  Biso   1.000  H
  C21      1.0000 0.19980  0.91290  0.55040  Biso   1.000  C
  C22      1.0000 0.80020  0.08710  0.44960  Biso   1.000  C
  H13      1.0000 0.12100  0.94960  0.55650  Biso   1.000  H
  H14      1.0000 0.87900  0.05040  0.44350  Biso   1.000  H
  C23      1.0000 0.17650  0.76070  0.45150  Biso   1.000  C
  C24      1.0000 0.82350  0.23930  0.54850  Biso   1.000  C
  H15      1.0000 0.08130  0.69750  0.39340  Biso   1.000  H
  H16      1.0000 0.91870  0.30250  0.60660  Biso   1.000  H
  C25      1.0000 0.78590  0.23070  0.09790  Biso   1.000  C
  C26      1.0000 0.21410  0.76930  0.90210  Biso   1.000  C
  H17      1.0000 0.75210  0.26070  0.18640  Biso   1.000  H
  H18      1.0000 0.24790  0.73930  0.81360  Biso   1.000  H
  H19      1.0000 0.70360  0.21000  0.02870  Biso   1.000  H
  H20      1.0000 0.29640  0.79000  0.97130  Biso   1.000  H
  C27      1.0000 0.81670  0.08300  0.05270  Biso   1.000  C
  C28      1.0000 0.18330  0.91700  0.94730  Biso   1.000  C
  H21      1.0000 0.86330  0.05870  0.97110  Biso   1.000  H
  H22      1.0000 0.13670  0.94130  0.02890  Biso   1.000  H
  H23      1.0000 0.88650  0.09700  0.12790  Biso   1.000  H
  H24      1.0000 0.11350  0.90300  0.87210  Biso   1.000  H
  C29      1.0000 0.33220  0.04840  0.98250  Biso   1.000  C
  C30      1.0000 0.66780  0.95160  0.01750  Biso   1.000  C
  H25      1.0000 0.40130  0.05940  0.05650  Biso   1.000  H
  H26      1.0000 0.59870  0.94060  0.94350  Biso   1.000  H
  H27      1.0000 0.37810  0.02140  0.90040  Biso   1.000  H
  H28      1.0000 0.62190  0.97860  0.09960  Biso   1.000  H
