data_image0
_cell_length_a       8.3947
_cell_length_b       16.8401
_cell_length_c       11.9144
_cell_angle_alpha    90
_cell_angle_beta     93.903
_cell_angle_gamma    90

_symmetry_space_group_name_H-M    "P 1"
_symmetry_int_tables_number       1

loop_
  _symmetry_equiv_pos_as_xyz
  'x, y, z'

loop_
  _atom_site_label
  _atom_site_occupancy
  _atom_site_fract_x
  _atom_site_fract_y
  _atom_site_fract_z
  _atom_site_thermal_displace_type
  _atom_site_B_iso_or_equiv
  _atom_site_type_symbol
  Cu1      1.0000 0.55527  0.21975  0.45533  Biso   1.000  Cu
  Cu2      1.0000 0.05527  0.28025  0.95533  Biso   1.000  Cu
  Cu3      1.0000 0.44473  0.78025  0.54467  Biso   1.000  Cu
  Cu4      1.0000 0.94473  0.71975  0.04467  Biso   1.000  Cu
  V1       1.0000 0.47241  0.50943  0.51477  Biso   1.000  V
  V2       1.0000 0.97241  0.99057  0.01477  Biso   1.000  V
  V3       1.0000 0.52759  0.49057  0.48523  Biso   1.000  V
  V4       1.0000 0.02759  0.00943  0.98523  Biso   1.000  V
  V5       1.0000 0.97077  0.24511  0.39184  Biso   1.000  V
  V6       1.0000 0.47077  0.25489  0.89184  Biso   1.000  V
  V7       1.0000 0.02923  0.75489  0.60816  Biso   1.000  V
  V8       1.0000 0.52923  0.74511  0.10816  Biso   1.000  V
  P1       1.0000 0.49849  0.34029  0.64886  Biso   1.000  P
  P2       1.0000 0.99849  0.15971  0.14886  Biso   1.000  P
  P3       1.0000 0.50151  0.65971  0.35114  Biso   1.000  P
  P4       1.0000 0.00151  0.84029  0.85114  Biso   1.000  P
  P5       1.0000 0.27957  0.34607  0.44932  Biso   1.000  P
  P6       1.0000 0.77957  0.15393  0.94932  Biso   1.000  P
  P7       1.0000 0.72043  0.65393  0.55068  Biso   1.000  P
  P8       1.0000 0.22043  0.84607  0.05068  Biso   1.000  P
  O1       1.0000 0.38430  0.28738  0.39252  Biso   1.000  O
  O2       1.0000 0.88430  0.21262  0.89252  Biso   1.000  O
  O3       1.0000 0.61570  0.71262  0.60748  Biso   1.000  O
  O4       1.0000 0.11570  0.78738  0.10748  Biso   1.000  O
  O5       1.0000 0.78310  0.27144  0.37602  Biso   1.000  O
  O6       1.0000 0.28310  0.22856  0.87602  Biso   1.000  O
  O7       1.0000 0.21690  0.72856  0.62398  Biso   1.000  O
  O8       1.0000 0.71690  0.77144  0.12398  Biso   1.000  O
  O9       1.0000 0.60020  0.28093  0.59084  Biso   1.000  O
  O10      1.0000 0.10020  0.21907  0.09084  Biso   1.000  O
  O11      1.0000 0.39980  0.71907  0.40916  Biso   1.000  O
  O12      1.0000 0.89980  0.78093  0.90916  Biso   1.000  O
  O13      1.0000 0.53790  0.42656  0.62802  Biso   1.000  O
  O14      1.0000 0.03790  0.07344  0.12802  Biso   1.000  O
  O15      1.0000 0.46210  0.57344  0.37198  Biso   1.000  O
  O16      1.0000 0.96210  0.92656  0.87198  Biso   1.000  O
  O17      1.0000 0.32440  0.43241  0.43497  Biso   1.000  O
  O18      1.0000 0.82440  0.06759  0.93497  Biso   1.000  O
  O19      1.0000 0.67560  0.56759  0.56503  Biso   1.000  O
  O20      1.0000 0.17560  0.93241  0.06503  Biso   1.000  O
  O21      1.0000 0.10291  0.33462  0.40193  Biso   1.000  O
  O22      1.0000 0.60291  0.16538  0.90193  Biso   1.000  O
  O23      1.0000 0.89709  0.66538  0.59807  Biso   1.000  O
  O24      1.0000 0.39709  0.83462  0.09807  Biso   1.000  O
  O25      1.0000 0.99930  0.19743  0.50870  Biso   1.000  O
  O26      1.0000 0.49930  0.30257  0.00870  Biso   1.000  O
  O27      1.0000 0.00070  0.80257  0.49130  Biso   1.000  O
  O28      1.0000 0.50070  0.69743  0.99130  Biso   1.000  O
  O29      1.0000 0.01560  0.17535  0.27771  Biso   1.000  O
  O30      1.0000 0.51560  0.32465  0.77771  Biso   1.000  O
  O31      1.0000 0.98440  0.82465  0.72229  Biso   1.000  O
  O32      1.0000 0.48440  0.67535  0.22229  Biso   1.000  O
  O33      1.0000 0.34560  0.55895  0.58617  Biso   1.000  O
  O34      1.0000 0.84560  0.94105  0.08617  Biso   1.000  O
  O35      1.0000 0.65440  0.44105  0.41383  Biso   1.000  O
  O36      1.0000 0.15440  0.05895  0.91383  Biso   1.000  O
  N1       1.0000 0.66900  0.12537  0.52489  Biso   1.000  N
  N2       1.0000 0.16900  0.37463  0.02489  Biso   1.000  N
  N3       1.0000 0.33100  0.87463  0.47511  Biso   1.000  N
  N4       1.0000 0.83100  0.62537  0.97511  Biso   1.000  N
  N5       1.0000 0.51280  0.14433  0.32689  Biso   1.000  N
  N6       1.0000 0.01280  0.35567  0.82689  Biso   1.000  N
  N7       1.0000 0.48720  0.85567  0.67311  Biso   1.000  N
  N8       1.0000 0.98720  0.64433  0.17311  Biso   1.000  N
  C1       1.0000 0.74470  0.11807  0.62600  Biso   1.000  C
  C2       1.0000 0.24470  0.38193  0.12600  Biso   1.000  C
  C3       1.0000 0.25530  0.88193  0.37400  Biso   1.000  C
  C4       1.0000 0.75530  0.61807  0.87400  Biso   1.000  C
  H1       1.0000 0.74440  0.16070  0.67570  Biso   1.000  H
  H2       1.0000 0.24440  0.33930  0.17570  Biso   1.000  H
  H3       1.0000 0.25560  0.83930  0.32430  Biso   1.000  H
  H4       1.0000 0.75560  0.66070  0.82430  Biso   1.000  H
  C5       1.0000 0.82530  0.04786  0.66040  Biso   1.000  C
  C6       1.0000 0.32530  0.45214  0.16040  Biso   1.000  C
  C7       1.0000 0.17470  0.95214  0.33960  Biso   1.000  C
  C8       1.0000 0.67470  0.54786  0.83960  Biso   1.000  C
  H5       1.0000 0.87680  0.04430  0.73180  Biso   1.000  H
  H6       1.0000 0.37680  0.45570  0.23180  Biso   1.000  H
  H7       1.0000 0.12320  0.95570  0.26820  Biso   1.000  H
  H8       1.0000 0.62320  0.54430  0.76820  Biso   1.000  H
  C9       1.0000 0.82720  0.98493  0.58770  Biso   1.000  C
  C10      1.0000 0.32720  0.51507  0.08770  Biso   1.000  C
  C11      1.0000 0.17280  0.01507  0.41230  Biso   1.000  C
  C12      1.0000 0.67280  0.48493  0.91230  Biso   1.000  C
  H9       1.0000 0.88090  0.93850  0.60940  Biso   1.000  H
  H10      1.0000 0.38090  0.56150  0.10940  Biso   1.000  H
  H11      1.0000 0.11910  0.06150  0.39060  Biso   1.000  H
  H12      1.0000 0.61910  0.43850  0.89060  Biso   1.000  H
  C13      1.0000 0.74780  0.99068  0.48020  Biso   1.000  C
  C14      1.0000 0.24780  0.50932  0.98020  Biso   1.000  C
  C15      1.0000 0.25220  0.00932  0.51980  Biso   1.000  C
  C16      1.0000 0.75220  0.49068  0.01980  Biso   1.000  C
  C17      1.0000 0.67030  0.06259  0.45310  Biso   1.000  C
  C18      1.0000 0.17030  0.43741  0.95310  Biso   1.000  C
  C19      1.0000 0.32970  0.93741  0.54690  Biso   1.000  C
  C20      1.0000 0.82970  0.56259  0.04690  Biso   1.000  C
  C21      1.0000 0.73890  0.92815  0.39790  Biso   1.000  C
  C22      1.0000 0.23890  0.57185  0.89790  Biso   1.000  C
  C23      1.0000 0.26110  0.07185  0.60210  Biso   1.000  C
  C24      1.0000 0.76110  0.42815  0.10210  Biso   1.000  C
  H13      1.0000 0.78980  0.88010  0.41470  Biso   1.000  H
  H14      1.0000 0.28980  0.61990  0.91470  Biso   1.000  H
  H15      1.0000 0.21020  0.11990  0.58530  Biso   1.000  H
  H16      1.0000 0.71020  0.38010  0.08530  Biso   1.000  H
  C25      1.0000 0.65750  0.93769  0.29580  Biso   1.000  C
  C26      1.0000 0.15750  0.56231  0.79580  Biso   1.000  C
  C27      1.0000 0.34250  0.06231  0.70420  Biso   1.000  C
  C28      1.0000 0.84250  0.43769  0.20420  Biso   1.000  C
  H17      1.0000 0.65410  0.89620  0.24420  Biso   1.000  H
  H18      1.0000 0.15410  0.60380  0.74420  Biso   1.000  H
  H19      1.0000 0.34590  0.10380  0.75580  Biso   1.000  H
  H20      1.0000 0.84590  0.39620  0.25580  Biso   1.000  H
  C29      1.0000 0.57690  0.01088  0.26690  Biso   1.000  C
  C30      1.0000 0.07690  0.48912  0.76690  Biso   1.000  C
  C31      1.0000 0.42310  0.98912  0.73310  Biso   1.000  C
  C32      1.0000 0.92310  0.51088  0.23310  Biso   1.000  C
  C33      1.0000 0.58560  0.07278  0.34560  Biso   1.000  C
  C34      1.0000 0.08560  0.42722  0.84560  Biso   1.000  C
  C35      1.0000 0.41440  0.92722  0.65440  Biso   1.000  C
  C36      1.0000 0.91440  0.57278  0.15440  Biso   1.000  C
  C37      1.0000 0.48670  0.02455  0.16410  Biso   1.000  C
  C38      1.0000 0.98670  0.47545  0.66410  Biso   1.000  C
  C39      1.0000 0.51330  0.97545  0.83590  Biso   1.000  C
  C40      1.0000 0.01330  0.52455  0.33590  Biso   1.000  C
  H21      1.0000 0.47710  0.98510  0.10950  Biso   1.000  H
  H22      1.0000 0.97710  0.51490  0.60950  Biso   1.000  H
  H23      1.0000 0.52290  0.01490  0.89050  Biso   1.000  H
  H24      1.0000 0.02290  0.48510  0.39050  Biso   1.000  H
  C41      1.0000 0.41330  0.09677  0.14610  Biso   1.000  C
  C42      1.0000 0.91330  0.40323  0.64610  Biso   1.000  C
  C43      1.0000 0.58670  0.90323  0.85390  Biso   1.000  C
  C44      1.0000 0.08670  0.59677  0.35390  Biso   1.000  C
  H25      1.0000 0.35350  0.10660  0.07890  Biso   1.000  H
  H26      1.0000 0.85350  0.39340  0.57890  Biso   1.000  H
  H27      1.0000 0.64650  0.89340  0.92110  Biso   1.000  H
  H28      1.0000 0.14650  0.60660  0.42110  Biso   1.000  H
  C45      1.0000 0.42910  0.15577  0.22940  Biso   1.000  C
  C46      1.0000 0.92910  0.34423  0.72940  Biso   1.000  C
  C47      1.0000 0.57090  0.84423  0.77060  Biso   1.000  C
  C48      1.0000 0.07090  0.65577  0.27060  Biso   1.000  C
  H29      1.0000 0.37920  0.20450  0.21600  Biso   1.000  H
  H30      1.0000 0.87920  0.29550  0.71600  Biso   1.000  H
  H31      1.0000 0.62080  0.79550  0.78400  Biso   1.000  H
  H32      1.0000 0.12080  0.70450  0.28400  Biso   1.000  H
  C49      1.0000 0.29320  0.32540  0.59880  Biso   1.000  C
  C50      1.0000 0.79320  0.17460  0.09880  Biso   1.000  C
  C51      1.0000 0.70680  0.67460  0.40120  Biso   1.000  C
  C52      1.0000 0.20680  0.82540  0.90120  Biso   1.000  C
  H33      1.0000 0.26090  0.27110  0.61240  Biso   1.000  H
  H34      1.0000 0.76090  0.22890  0.11240  Biso   1.000  H
  H35      1.0000 0.73910  0.72890  0.38760  Biso   1.000  H
  H36      1.0000 0.23910  0.77110  0.88760  Biso   1.000  H
  H37      1.0000 0.22400  0.36090  0.63720  Biso   1.000  H
  H38      1.0000 0.72400  0.13910  0.13720  Biso   1.000  H
  H39      1.0000 0.77600  0.63910  0.36280  Biso   1.000  H
  H40      1.0000 0.27600  0.86090  0.86280  Biso   1.000  H
