data_image0
_cell_length_a       8.2912
_cell_length_b       8.2912
_cell_length_c       15.52
_cell_angle_alpha    90
_cell_angle_beta     90
_cell_angle_gamma    90

_symmetry_space_group_name_H-M    "P 1"
_symmetry_int_tables_number       1

loop_
  _symmetry_equiv_pos_as_xyz
  'x, y, z'

loop_
  _atom_site_label
  _atom_site_occupancy
  _atom_site_fract_x
  _atom_site_fract_y
  _atom_site_fract_z
  _atom_site_thermal_displace_type
  _atom_site_B_iso_or_equiv
  _atom_site_type_symbol
  Cu1      1.0000 0.57261  0.80171  0.74214  Biso   1.000  Cu
  Cu2      1.0000 0.42739  0.19829  0.24214  Biso   1.000  Cu
  Cu3      1.0000 0.19829  0.57261  0.49214  Biso   1.000  Cu
  Cu4      1.0000 0.80171  0.42739  0.99214  Biso   1.000  Cu
  O1       1.0000 0.67120  0.58010  0.75990  Biso   1.000  O
  O2       1.0000 0.32880  0.41990  0.25990  Biso   1.000  O
  O3       1.0000 0.41990  0.67120  0.50990  Biso   1.000  O
  O4       1.0000 0.58010  0.32880  0.00990  Biso   1.000  O
  O5       1.0000 0.77300  0.43390  0.86710  Biso   1.000  O
  O6       1.0000 0.22700  0.56610  0.36710  Biso   1.000  O
  O7       1.0000 0.56610  0.77300  0.61710  Biso   1.000  O
  O8       1.0000 0.43390  0.22700  0.11710  Biso   1.000  O
  C1       1.0000 0.70960  0.56110  0.83690  Biso   1.000  C
  C2       1.0000 0.29040  0.43890  0.33690  Biso   1.000  C
  C3       1.0000 0.43890  0.70960  0.58690  Biso   1.000  C
  C4       1.0000 0.56110  0.29040  0.08690  Biso   1.000  C
  O9       1.0000 0.72520  0.68580  0.97690  Biso   1.000  O
  O10      1.0000 0.27480  0.31420  0.47690  Biso   1.000  O
  O11      1.0000 0.31420  0.72520  0.72690  Biso   1.000  O
  O12      1.0000 0.68580  0.27480  0.22690  Biso   1.000  O
  C5       1.0000 0.68340  0.70140  0.90070  Biso   1.000  C
  C6       1.0000 0.31660  0.29860  0.40070  Biso   1.000  C
  C7       1.0000 0.29860  0.68340  0.65070  Biso   1.000  C
  C8       1.0000 0.70140  0.31660  0.15070  Biso   1.000  C
  N1       1.0000 0.61930  0.82380  0.86150  Biso   1.000  N
  N2       1.0000 0.38070  0.17620  0.36150  Biso   1.000  N
  N3       1.0000 0.17620  0.61930  0.61150  Biso   1.000  N
  N4       1.0000 0.82380  0.38070  0.11150  Biso   1.000  N
  C9       1.0000 0.58670  0.97890  0.90170  Biso   1.000  C
  C10      1.0000 0.41330  0.02110  0.40170  Biso   1.000  C
  C11      1.0000 0.02110  0.58670  0.65170  Biso   1.000  C
  C12      1.0000 0.97890  0.41330  0.15170  Biso   1.000  C
  H1       1.0000 0.68680  0.03120  0.91790  Biso   1.000  H
  H2       1.0000 0.31320  0.96880  0.41790  Biso   1.000  H
  H3       1.0000 0.96880  0.68680  0.66790  Biso   1.000  H
  H4       1.0000 0.03120  0.31320  0.16790  Biso   1.000  H
  H5       1.0000 0.52140  0.96460  0.95300  Biso   1.000  H
  H6       1.0000 0.47860  0.03540  0.45300  Biso   1.000  H
  H7       1.0000 0.03540  0.52140  0.70300  Biso   1.000  H
  H8       1.0000 0.96460  0.47860  0.20300  Biso   1.000  H
  C13      1.0000 0.49850  0.07810  0.83690  Biso   1.000  C
  C14      1.0000 0.50150  0.92190  0.33690  Biso   1.000  C
  C15      1.0000 0.92190  0.49850  0.58690  Biso   1.000  C
  C16      1.0000 0.07810  0.50150  0.08690  Biso   1.000  C
  H9       1.0000 0.38420  0.05410  0.84060  Biso   1.000  H
  H10      1.0000 0.61580  0.94590  0.34060  Biso   1.000  H
  H11      1.0000 0.94590  0.38420  0.59060  Biso   1.000  H
  H12      1.0000 0.05410  0.61580  0.09060  Biso   1.000  H
  H13      1.0000 0.51290  0.19130  0.85060  Biso   1.000  H
  H14      1.0000 0.48710  0.80870  0.35060  Biso   1.000  H
  H15      1.0000 0.80870  0.51290  0.60060  Biso   1.000  H
  H16      1.0000 0.19130  0.48710  0.10060  Biso   1.000  H
  N5       1.0000 0.55410  0.04870  0.74710  Biso   1.000  N
  N6       1.0000 0.44590  0.95130  0.24710  Biso   1.000  N
  N7       1.0000 0.95130  0.55410  0.49710  Biso   1.000  N
  N8       1.0000 0.04870  0.44590  0.99710  Biso   1.000  N
  C17      1.0000 0.43160  0.10930  0.68400  Biso   1.000  C
  C18      1.0000 0.56840  0.89070  0.18400  Biso   1.000  C
  C19      1.0000 0.89070  0.43160  0.43400  Biso   1.000  C
  C20      1.0000 0.10930  0.56840  0.93400  Biso   1.000  C
  H17      1.0000 0.33230  0.04970  0.69280  Biso   1.000  H
  H18      1.0000 0.66770  0.95030  0.19280  Biso   1.000  H
  H19      1.0000 0.95030  0.33230  0.44280  Biso   1.000  H
  H20      1.0000 0.04970  0.66770  0.94280  Biso   1.000  H
  H21      1.0000 0.46960  0.08480  0.62640  Biso   1.000  H
  H22      1.0000 0.53040  0.91520  0.12640  Biso   1.000  H
  H23      1.0000 0.91520  0.46960  0.37640  Biso   1.000  H
  H24      1.0000 0.08480  0.53040  0.87640  Biso   1.000  H
  C21      1.0000 0.39340  0.28710  0.68820  Biso   1.000  C
  C22      1.0000 0.60660  0.71290  0.18820  Biso   1.000  C
  C23      1.0000 0.71290  0.39340  0.43820  Biso   1.000  C
  C24      1.0000 0.28710  0.60660  0.93820  Biso   1.000  C
  H25      1.0000 0.31520  0.31340  0.64480  Biso   1.000  H
  H26      1.0000 0.68480  0.68660  0.14480  Biso   1.000  H
  H27      1.0000 0.68660  0.31520  0.39480  Biso   1.000  H
  H28      1.0000 0.31340  0.68480  0.89480  Biso   1.000  H
  H29      1.0000 0.49000  0.34820  0.67850  Biso   1.000  H
  H30      1.0000 0.51000  0.65180  0.17850  Biso   1.000  H
  H31      1.0000 0.65180  0.49000  0.42850  Biso   1.000  H
  H32      1.0000 0.34820  0.51000  0.92850  Biso   1.000  H
  H33      1.0000 0.35050  0.31280  0.74400  Biso   1.000  H
  H34      1.0000 0.64950  0.68720  0.24400  Biso   1.000  H
  H35      1.0000 0.68720  0.35050  0.49400  Biso   1.000  H
  H36      1.0000 0.31280  0.64950  0.99400  Biso   1.000  H
  C25      1.0000 0.71730  0.12030  0.73600  Biso   1.000  C
  C26      1.0000 0.28270  0.87970  0.23600  Biso   1.000  C
  C27      1.0000 0.87970  0.71730  0.48600  Biso   1.000  C
  C28      1.0000 0.12030  0.28270  0.98600  Biso   1.000  C
  H37      1.0000 0.70610  0.23680  0.73480  Biso   1.000  H
  H38      1.0000 0.29390  0.76320  0.23480  Biso   1.000  H
  H39      1.0000 0.76320  0.70610  0.48480  Biso   1.000  H
  H40      1.0000 0.23680  0.29390  0.98480  Biso   1.000  H
  H41      1.0000 0.78150  0.09320  0.78610  Biso   1.000  H
  H42      1.0000 0.21850  0.90680  0.28610  Biso   1.000  H
  H43      1.0000 0.90680  0.78150  0.53610  Biso   1.000  H
  H44      1.0000 0.09320  0.21850  0.03610  Biso   1.000  H
  C29      1.0000 0.80600  0.07090  0.65940  Biso   1.000  C
  C30      1.0000 0.19400  0.92910  0.15940  Biso   1.000  C
  C31      1.0000 0.92910  0.80600  0.40940  Biso   1.000  C
  C32      1.0000 0.07090  0.19400  0.90940  Biso   1.000  C
  H45      1.0000 0.91110  0.11960  0.65990  Biso   1.000  H
  H46      1.0000 0.08890  0.88040  0.15990  Biso   1.000  H
  H47      1.0000 0.88040  0.91110  0.40990  Biso   1.000  H
  H48      1.0000 0.11960  0.08890  0.90990  Biso   1.000  H
  H49      1.0000 0.74860  0.10490  0.60880  Biso   1.000  H
  H50      1.0000 0.25140  0.89510  0.10880  Biso   1.000  H
  H51      1.0000 0.89510  0.74860  0.35880  Biso   1.000  H
  H52      1.0000 0.10490  0.25140  0.85880  Biso   1.000  H
  H53      1.0000 0.81690  0.95560  0.65890  Biso   1.000  H
  H54      1.0000 0.18310  0.04440  0.15890  Biso   1.000  H
  H55      1.0000 0.04440  0.81690  0.40890  Biso   1.000  H
  H56      1.0000 0.95560  0.18310  0.90890  Biso   1.000  H
