data_image0
_cell_length_a       3.7852
_cell_length_b       13.8685
_cell_length_c       13.1154
_cell_angle_alpha    90
_cell_angle_beta     91.6796
_cell_angle_gamma    90

_symmetry_space_group_name_H-M    "P 1"
_symmetry_int_tables_number       1

loop_
  _symmetry_equiv_pos_as_xyz
  'x, y, z'

loop_
  _atom_site_label
  _atom_site_occupancy
  _atom_site_fract_x
  _atom_site_fract_y
  _atom_site_fract_z
  _atom_site_thermal_displace_type
  _atom_site_B_iso_or_equiv
  _atom_site_type_symbol
  C1       1.0000 0.13260  0.20410  0.04890  Biso   1.000  C
  C2       1.0000 0.86740  0.70410  0.45110  Biso   1.000  C
  C3       1.0000 0.86740  0.79590  0.95110  Biso   1.000  C
  C4       1.0000 0.13260  0.29590  0.54890  Biso   1.000  C
  C5       1.0000 0.17620  0.28530  0.11400  Biso   1.000  C
  C6       1.0000 0.82380  0.78530  0.38600  Biso   1.000  C
  C7       1.0000 0.82380  0.71470  0.88600  Biso   1.000  C
  C8       1.0000 0.17620  0.21470  0.61400  Biso   1.000  C
  C9       1.0000 0.09150  0.27390  0.21590  Biso   1.000  C
  C10      1.0000 0.90850  0.77390  0.28410  Biso   1.000  C
  C11      1.0000 0.90850  0.72610  0.78410  Biso   1.000  C
  C12      1.0000 0.09150  0.22610  0.71590  Biso   1.000  C
  C13      1.0000 0.97900  0.18940  0.25710  Biso   1.000  C
  C14      1.0000 0.02100  0.68940  0.24290  Biso   1.000  C
  C15      1.0000 0.02100  0.81060  0.74290  Biso   1.000  C
  C16      1.0000 0.97900  0.31060  0.75710  Biso   1.000  C
  C17      1.0000 0.95240  0.11350  0.18360  Biso   1.000  C
  C18      1.0000 0.04760  0.61350  0.31640  Biso   1.000  C
  C19      1.0000 0.04760  0.88650  0.81640  Biso   1.000  C
  C20      1.0000 0.95240  0.38650  0.68360  Biso   1.000  C
  C21      1.0000 0.29810  0.37430  0.06150  Biso   1.000  C
  C22      1.0000 0.70190  0.87430  0.43850  Biso   1.000  C
  C23      1.0000 0.70190  0.62570  0.93850  Biso   1.000  C
  C24      1.0000 0.29810  0.12570  0.56150  Biso   1.000  C
  N1       1.0000 0.01420  0.12100  0.09010  Biso   1.000  N
  N2       1.0000 0.98580  0.62100  0.40990  Biso   1.000  N
  N3       1.0000 0.98580  0.87900  0.90990  Biso   1.000  N
  N4       1.0000 0.01420  0.37900  0.59010  Biso   1.000  N
  N5       1.0000 0.43450  0.44310  0.12480  Biso   1.000  N
  N6       1.0000 0.56550  0.94310  0.37520  Biso   1.000  N
  N7       1.0000 0.56550  0.55690  0.87520  Biso   1.000  N
  N8       1.0000 0.43450  0.05690  0.62480  Biso   1.000  N
  O1       1.0000 0.27370  0.38500  0.97260  Biso   1.000  O
  O2       1.0000 0.72630  0.88500  0.52740  Biso   1.000  O
  O3       1.0000 0.72630  0.61500  0.02740  Biso   1.000  O
  O4       1.0000 0.27370  0.11500  0.47260  Biso   1.000  O
  Cu1      1.0000 0.00000  0.00000  0.00000  Biso   1.000  Cu
  Cu2      1.0000 0.00000  0.50000  0.50000  Biso   1.000  Cu
  H1       1.0000 0.18616  0.20809  0.98107  Biso   1.000  H
  H2       1.0000 0.81384  0.70809  0.51893  Biso   1.000  H
  H3       1.0000 0.81384  0.79191  0.01893  Biso   1.000  H
  H4       1.0000 0.18616  0.29191  0.48107  Biso   1.000  H
  H5       1.0000 0.10540  0.32720  0.25832  Biso   1.000  H
  H6       1.0000 0.89460  0.82720  0.24168  Biso   1.000  H
  H7       1.0000 0.89460  0.67280  0.74168  Biso   1.000  H
  H8       1.0000 0.10540  0.17280  0.75832  Biso   1.000  H
  H9       1.0000 0.93107  0.18175  0.32507  Biso   1.000  H
  H10      1.0000 0.06893  0.68175  0.17493  Biso   1.000  H
  H11      1.0000 0.06893  0.81825  0.67493  Biso   1.000  H
  H12      1.0000 0.93107  0.31825  0.82507  Biso   1.000  H
  H13      1.0000 0.88702  0.05289  0.20633  Biso   1.000  H
  H14      1.0000 0.11298  0.55289  0.29367  Biso   1.000  H
  H15      1.0000 0.11298  0.94711  0.79367  Biso   1.000  H
  H16      1.0000 0.88702  0.44711  0.70633  Biso   1.000  H
  H17      1.0000 0.51059  0.49592  0.09824  Biso   1.000  H
  H18      1.0000 0.48941  0.99592  0.40176  Biso   1.000  H
  H19      1.0000 0.48941  0.50408  0.90176  Biso   1.000  H
  H20      1.0000 0.51059  0.00408  0.59824  Biso   1.000  H
  H21      1.0000 0.44952  0.43314  0.18818  Biso   1.000  H
  H22      1.0000 0.55048  0.93314  0.31182  Biso   1.000  H
  H23      1.0000 0.55048  0.56686  0.81182  Biso   1.000  H
  H24      1.0000 0.44952  0.06686  0.68818  Biso   1.000  H
  Cl1      1.0000 0.38730  0.92465  0.11241  Biso   1.000  Cl
  Cl2      1.0000 0.61270  0.42465  0.38759  Biso   1.000  Cl
  Cl3      1.0000 0.61270  0.07535  0.88759  Biso   1.000  Cl
  Cl4      1.0000 0.38730  0.57535  0.61241  Biso   1.000  Cl
