data_image0
_cell_length_a       7.78
_cell_length_b       9.701
_cell_length_c       10.188
_cell_angle_alpha    114.51
_cell_angle_beta     93.27
_cell_angle_gamma    110.72

_symmetry_space_group_name_H-M    "P 1"
_symmetry_int_tables_number       1

loop_
  _symmetry_equiv_pos_as_xyz
  'x, y, z'

loop_
  _atom_site_label
  _atom_site_occupancy
  _atom_site_fract_x
  _atom_site_fract_y
  _atom_site_fract_z
  _atom_site_thermal_displace_type
  _atom_site_B_iso_or_equiv
  _atom_site_type_symbol
  Cu1      1.0000 0.00000  0.00000  0.50000  Biso   1.000  Cu
  Cu2      1.0000 0.24089  0.06205  0.80979  Biso   1.000  Cu
  Cu3      1.0000 0.75911  0.93795  0.19021  Biso   1.000  Cu
  O1       1.0000 0.16640  0.14230  0.68890  Biso   1.000  O
  O2       1.0000 0.83360  0.85770  0.31110  Biso   1.000  O
  O3       1.0000 0.30010  0.90090  0.64830  Biso   1.000  O
  O4       1.0000 0.69990  0.09910  0.35170  Biso   1.000  O
  O5       1.0000 0.14710  0.86690  0.43590  Biso   1.000  O
  O6       1.0000 0.85290  0.13310  0.56410  Biso   1.000  O
  O7       1.0000 0.30440  0.26400  0.99300  Biso   1.000  O
  O8       1.0000 0.69560  0.73600  0.00700  Biso   1.000  O
  O9       1.0000 0.18640  0.42560  0.94960  Biso   1.000  O
  O10      1.0000 0.81360  0.57440  0.05040  Biso   1.000  O
  O11      1.0000 0.82000  0.53930  0.42900  Biso   1.000  O
  O12      1.0000 0.18000  0.46070  0.57100  Biso   1.000  O
  O13      1.0000 0.83730  0.75660  0.61810  Biso   1.000  O
  O14      1.0000 0.16270  0.24340  0.38190  Biso   1.000  O
  C1       1.0000 0.25570  0.84210  0.50990  Biso   1.000  C
  C2       1.0000 0.74430  0.15790  0.49010  Biso   1.000  C
  C3       1.0000 0.34400  0.72850  0.42370  Biso   1.000  C
  C4       1.0000 0.65600  0.27150  0.57630  Biso   1.000  C
  C5       1.0000 0.50250  0.73320  0.49800  Biso   1.000  C
  C6       1.0000 0.49750  0.26680  0.50200  Biso   1.000  C
  H1       1.0000 0.56110  0.79800  0.59840  Biso   1.000  H
  H2       1.0000 0.43890  0.20200  0.40160  Biso   1.000  H
  C7       1.0000 0.58190  0.62740  0.41850  Biso   1.000  C
  C8       1.0000 0.41810  0.37260  0.58150  Biso   1.000  C
  C9       1.0000 0.50660  0.51440  0.26940  Biso   1.000  C
  C10      1.0000 0.49340  0.48560  0.73060  Biso   1.000  C
  H3       1.0000 0.56990  0.43570  0.20790  Biso   1.000  H
  H4       1.0000 0.43010  0.56430  0.79210  Biso   1.000  H
  C11      1.0000 0.35040  0.51290  0.19480  Biso   1.000  C
  C12      1.0000 0.64960  0.48710  0.80520  Biso   1.000  C
  C13      1.0000 0.26960  0.62090  0.27170  Biso   1.000  C
  C14      1.0000 0.73040  0.37910  0.72830  Biso   1.000  C
  H5       1.0000 0.15460  0.61730  0.21430  Biso   1.000  H
  H6       1.0000 0.84540  0.38270  0.78570  Biso   1.000  H
  C15      1.0000 0.27170  0.39310  0.03140  Biso   1.000  C
  C16      1.0000 0.72830  0.60690  0.96860  Biso   1.000  C
  C17      1.0000 0.22580  0.78910  0.87470  Biso   1.000  C
  C18      1.0000 0.77420  0.21090  0.12530  Biso   1.000  C
  H7       1.0000 0.22770  0.71590  0.76180  Biso   1.000  H
  H8       1.0000 0.77230  0.28410  0.23820  Biso   1.000  H
  C19      1.0000 0.22000  0.74600  0.98270  Biso   1.000  C
  C20      1.0000 0.78000  0.25400  0.01730  Biso   1.000  C
  H9       1.0000 0.23430  0.66040  0.98150  Biso   1.000  H
  H10      1.0000 0.76570  0.33960  0.01850  Biso   1.000  H
  C21      1.0000 0.24010  0.99830  0.07210  Biso   1.000  C
  C22      1.0000 0.75990  0.00170  0.92790  Biso   1.000  C
  H11      1.0000 0.27820  0.11360  0.15240  Biso   1.000  H
  H12      1.0000 0.72180  0.88640  0.84760  Biso   1.000  H
  N1       1.0000 0.75810  0.64090  0.49440  Biso   1.000  N
  N2       1.0000 0.24190  0.35910  0.50560  Biso   1.000  N
  N3       1.0000 0.24080  0.94390  0.92500  Biso   1.000  N
  N4       1.0000 0.75920  0.05610  0.07500  Biso   1.000  N
  N5       1.0000 0.22970  0.87680  0.10920  Biso   1.000  N
  N6       1.0000 0.77030  0.12320  0.89080  Biso   1.000  N
  H13      1.0000 0.23640  0.88020  0.21720  Biso   1.000  H
  H14      1.0000 0.76360  0.11980  0.78280  Biso   1.000  H
  H15      1.0000 0.14250  0.22170  0.73990  Biso   1.000  H
  H16      1.0000 0.85750  0.77830  0.26010  Biso   1.000  H
