data_image0
_cell_length_a       24.32
_cell_length_b       3.7549
_cell_length_c       16.433
_cell_angle_alpha    90
_cell_angle_beta     111.754
_cell_angle_gamma    90

_symmetry_space_group_name_H-M    "P 1"
_symmetry_int_tables_number       1

loop_
  _symmetry_equiv_pos_as_xyz
  'x, y, z'

loop_
  _atom_site_label
  _atom_site_occupancy
  _atom_site_fract_x
  _atom_site_fract_y
  _atom_site_fract_z
  _atom_site_thermal_displace_type
  _atom_site_B_iso_or_equiv
  _atom_site_type_symbol
  C1       1.0000 0.94610  0.10600  0.80740  Biso   1.000  C
  C2       1.0000 0.05390  0.10600  0.69260  Biso   1.000  C
  C3       1.0000 0.44610  0.60600  0.80740  Biso   1.000  C
  C4       1.0000 0.55390  0.60600  0.69260  Biso   1.000  C
  C5       1.0000 0.05390  0.89400  0.19260  Biso   1.000  C
  C6       1.0000 0.94610  0.89400  0.30740  Biso   1.000  C
  C7       1.0000 0.55390  0.39400  0.19260  Biso   1.000  C
  C8       1.0000 0.44610  0.39400  0.30740  Biso   1.000  C
  C9       1.0000 0.90540  0.03100  0.72680  Biso   1.000  C
  C10      1.0000 0.09460  0.03100  0.77320  Biso   1.000  C
  C11      1.0000 0.40540  0.53100  0.72680  Biso   1.000  C
  C12      1.0000 0.59460  0.53100  0.77320  Biso   1.000  C
  C13      1.0000 0.09460  0.96900  0.27320  Biso   1.000  C
  C14      1.0000 0.90540  0.96900  0.22680  Biso   1.000  C
  C15      1.0000 0.59460  0.46900  0.27320  Biso   1.000  C
  C16      1.0000 0.40540  0.46900  0.22680  Biso   1.000  C
  C17      1.0000 0.85040  0.92800  0.71300  Biso   1.000  C
  C18      1.0000 0.14960  0.92800  0.78700  Biso   1.000  C
  C19      1.0000 0.35040  0.42800  0.71300  Biso   1.000  C
  C20      1.0000 0.64960  0.42800  0.78700  Biso   1.000  C
  C21      1.0000 0.14960  0.07200  0.28700  Biso   1.000  C
  C22      1.0000 0.85040  0.07200  0.21300  Biso   1.000  C
  C23      1.0000 0.64960  0.57200  0.28700  Biso   1.000  C
  C24      1.0000 0.35040  0.57200  0.21300  Biso   1.000  C
  C25      1.0000 0.83730  0.86900  0.78390  Biso   1.000  C
  C26      1.0000 0.16270  0.86900  0.71610  Biso   1.000  C
  C27      1.0000 0.33730  0.36900  0.78390  Biso   1.000  C
  C28      1.0000 0.66270  0.36900  0.71610  Biso   1.000  C
  C29      1.0000 0.16270  0.13100  0.21610  Biso   1.000  C
  C30      1.0000 0.83730  0.13100  0.28390  Biso   1.000  C
  C31      1.0000 0.66270  0.63100  0.21610  Biso   1.000  C
  C32      1.0000 0.33730  0.63100  0.28390  Biso   1.000  C
  C33      1.0000 0.87860  0.93000  0.86420  Biso   1.000  C
  C34      1.0000 0.12140  0.93000  0.63580  Biso   1.000  C
  C35      1.0000 0.37860  0.43000  0.86420  Biso   1.000  C
  C36      1.0000 0.62140  0.43000  0.63580  Biso   1.000  C
  C37      1.0000 0.12140  0.07000  0.13580  Biso   1.000  C
  C38      1.0000 0.87860  0.07000  0.36420  Biso   1.000  C
  C39      1.0000 0.62140  0.57000  0.13580  Biso   1.000  C
  C40      1.0000 0.37860  0.57000  0.36420  Biso   1.000  C
  C41      1.0000 0.80640  0.92400  0.61810  Biso   1.000  C
  C42      1.0000 0.19360  0.92400  0.88190  Biso   1.000  C
  C43      1.0000 0.30640  0.42400  0.61810  Biso   1.000  C
  C44      1.0000 0.69360  0.42400  0.88190  Biso   1.000  C
  C45      1.0000 0.19360  0.07600  0.38190  Biso   1.000  C
  C46      1.0000 0.80640  0.07600  0.11810  Biso   1.000  C
  C47      1.0000 0.69360  0.57600  0.38190  Biso   1.000  C
  C48      1.0000 0.30640  0.57600  0.11810  Biso   1.000  C
  N1       1.0000 0.93440  0.00300  0.87450  Biso   1.000  N
  N2       1.0000 0.06560  0.00300  0.62550  Biso   1.000  N
  N3       1.0000 0.43440  0.50300  0.87450  Biso   1.000  N
  N4       1.0000 0.56560  0.50300  0.62550  Biso   1.000  N
  N5       1.0000 0.06560  0.99700  0.12550  Biso   1.000  N
  N6       1.0000 0.93440  0.99700  0.37450  Biso   1.000  N
  N7       1.0000 0.56560  0.49700  0.12550  Biso   1.000  N
  N8       1.0000 0.43440  0.49700  0.37450  Biso   1.000  N
  N9       1.0000 0.82070  0.93800  0.55650  Biso   1.000  N
  N10      1.0000 0.17930  0.93800  0.94350  Biso   1.000  N
  N11      1.0000 0.32070  0.43800  0.55650  Biso   1.000  N
  N12      1.0000 0.67930  0.43800  0.94350  Biso   1.000  N
  N13      1.0000 0.17930  0.06200  0.44350  Biso   1.000  N
  N14      1.0000 0.82070  0.06200  0.05650  Biso   1.000  N
  N15      1.0000 0.67930  0.56200  0.44350  Biso   1.000  N
  N16      1.0000 0.32070  0.56200  0.05650  Biso   1.000  N
  O1       1.0000 0.75460  0.84500  0.61980  Biso   1.000  O
  O2       1.0000 0.24540  0.84500  0.88020  Biso   1.000  O
  O3       1.0000 0.25460  0.34500  0.61980  Biso   1.000  O
  O4       1.0000 0.74540  0.34500  0.88020  Biso   1.000  O
  O5       1.0000 0.24540  0.15500  0.38020  Biso   1.000  O
  O6       1.0000 0.75460  0.15500  0.11980  Biso   1.000  O
  O7       1.0000 0.74540  0.65500  0.38020  Biso   1.000  O
  O8       1.0000 0.25460  0.65500  0.11980  Biso   1.000  O
  H1       1.0000 0.98024  0.23505  0.81401  Biso   1.000  H
  H2       1.0000 0.01976  0.23505  0.68599  Biso   1.000  H
  H3       1.0000 0.48024  0.73505  0.81401  Biso   1.000  H
  H4       1.0000 0.51976  0.73505  0.68599  Biso   1.000  H
  H5       1.0000 0.01976  0.76495  0.18599  Biso   1.000  H
  H6       1.0000 0.98024  0.76495  0.31401  Biso   1.000  H
  H7       1.0000 0.51976  0.26495  0.18599  Biso   1.000  H
  H8       1.0000 0.48024  0.26495  0.31401  Biso   1.000  H
  H9       1.0000 0.91681  0.04833  0.67892  Biso   1.000  H
  H10      1.0000 0.08319  0.04833  0.82108  Biso   1.000  H
  H11      1.0000 0.41681  0.54833  0.67892  Biso   1.000  H
  H12      1.0000 0.58319  0.54833  0.82108  Biso   1.000  H
  H13      1.0000 0.08319  0.95167  0.32108  Biso   1.000  H
  H14      1.0000 0.91681  0.95167  0.17892  Biso   1.000  H
  H15      1.0000 0.58319  0.45167  0.32108  Biso   1.000  H
  H16      1.0000 0.41681  0.45167  0.17892  Biso   1.000  H
  H17      1.0000 0.80017  0.77969  0.77820  Biso   1.000  H
  H18      1.0000 0.19983  0.77969  0.72180  Biso   1.000  H
  H19      1.0000 0.30017  0.27969  0.77820  Biso   1.000  H
  H20      1.0000 0.69983  0.27969  0.72180  Biso   1.000  H
  H21      1.0000 0.19983  0.22031  0.22180  Biso   1.000  H
  H22      1.0000 0.80017  0.22031  0.27820  Biso   1.000  H
  H23      1.0000 0.69983  0.72031  0.22180  Biso   1.000  H
  H24      1.0000 0.30017  0.72031  0.27820  Biso   1.000  H
  H25      1.0000 0.86810  0.91824  0.91312  Biso   1.000  H
  H26      1.0000 0.13190  0.91824  0.58688  Biso   1.000  H
  H27      1.0000 0.36810  0.41824  0.91312  Biso   1.000  H
  H28      1.0000 0.63190  0.41824  0.58688  Biso   1.000  H
  H29      1.0000 0.13190  0.08176  0.08688  Biso   1.000  H
  H30      1.0000 0.86810  0.08176  0.41312  Biso   1.000  H
  H31      1.0000 0.63190  0.58176  0.08688  Biso   1.000  H
  H32      1.0000 0.36810  0.58176  0.41312  Biso   1.000  H
  H33      1.0000 0.79777  0.85842  0.50736  Biso   1.000  H
  H34      1.0000 0.20223  0.85842  0.99264  Biso   1.000  H
  H35      1.0000 0.29777  0.35842  0.50736  Biso   1.000  H
  H36      1.0000 0.70223  0.35842  0.99264  Biso   1.000  H
  H37      1.0000 0.20223  0.14158  0.49264  Biso   1.000  H
  H38      1.0000 0.79777  0.14158  0.00736  Biso   1.000  H
  H39      1.0000 0.70223  0.64158  0.49264  Biso   1.000  H
  H40      1.0000 0.29777  0.64158  0.00736  Biso   1.000  H
  H41      1.0000 0.85656  0.00140  0.56449  Biso   1.000  H
  H42      1.0000 0.14344  0.00140  0.93551  Biso   1.000  H
  H43      1.0000 0.35656  0.50140  0.56449  Biso   1.000  H
  H44      1.0000 0.64344  0.50140  0.93551  Biso   1.000  H
  H45      1.0000 0.14344  0.99860  0.43551  Biso   1.000  H
  H46      1.0000 0.85656  0.99860  0.06449  Biso   1.000  H
  H47      1.0000 0.64344  0.49860  0.43551  Biso   1.000  H
  H48      1.0000 0.35656  0.49860  0.06449  Biso   1.000  H
  Cu1      1.0000 0.00000  0.00000  0.00000  Biso   1.000  Cu
  Cu2      1.0000 0.00000  0.00000  0.50000  Biso   1.000  Cu
  Cu3      1.0000 0.50000  0.50000  0.00000  Biso   1.000  Cu
  Cu4      1.0000 0.50000  0.50000  0.50000  Biso   1.000  Cu
  Cl1      1.0000 0.94322  0.40720  0.04320  Biso   1.000  Cl
  Cl2      1.0000 0.05678  0.40720  0.45680  Biso   1.000  Cl
  Cl3      1.0000 0.44322  0.90720  0.04320  Biso   1.000  Cl
  Cl4      1.0000 0.55678  0.90720  0.45680  Biso   1.000  Cl
  Cl5      1.0000 0.05678  0.59280  0.95680  Biso   1.000  Cl
  Cl6      1.0000 0.94322  0.59280  0.54320  Biso   1.000  Cl
  Cl7      1.0000 0.55678  0.09280  0.95680  Biso   1.000  Cl
  Cl8      1.0000 0.44322  0.09280  0.54320  Biso   1.000  Cl
