data_image0
_cell_length_a       7.534
_cell_length_b       10.537
_cell_length_c       11.233
_cell_angle_alpha    84.977
_cell_angle_beta     77.515
_cell_angle_gamma    84.379

_symmetry_space_group_name_H-M    "P 1"
_symmetry_int_tables_number       1

loop_
  _symmetry_equiv_pos_as_xyz
  'x, y, z'

loop_
  _atom_site_label
  _atom_site_occupancy
  _atom_site_fract_x
  _atom_site_fract_y
  _atom_site_fract_z
  _atom_site_thermal_displace_type
  _atom_site_B_iso_or_equiv
  _atom_site_type_symbol
  Cu1      1.0000 0.91169  0.78000  0.66408  Biso   1.000  Cu
  Cu2      1.0000 0.08831  0.22000  0.33592  Biso   1.000  Cu
  Cu3      1.0000 0.39529  0.78891  0.46843  Biso   1.000  Cu
  Cu4      1.0000 0.60471  0.21109  0.53157  Biso   1.000  Cu
  O1       1.0000 0.10830  0.92060  0.65690  Biso   1.000  O
  O2       1.0000 0.89170  0.07940  0.34310  Biso   1.000  O
  O3       1.0000 0.41000  0.88020  0.60780  Biso   1.000  O
  O4       1.0000 0.59000  0.11980  0.39220  Biso   1.000  O
  O5       1.0000 0.70880  0.05780  0.61080  Biso   1.000  O
  O6       1.0000 0.29120  0.94220  0.38920  Biso   1.000  O
  O7       1.0000 0.70560  0.88930  0.74460  Biso   1.000  O
  O8       1.0000 0.29440  0.11070  0.25540  Biso   1.000  O
  O9       1.0000 0.59270  0.30620  0.67500  Biso   1.000  O
  O10      1.0000 0.40730  0.69380  0.32500  Biso   1.000  O
  O11      1.0000 0.89050  0.32140  0.65020  Biso   1.000  O
  O12      1.0000 0.10950  0.67860  0.34980  Biso   1.000  O
  O13      1.0000 0.72900  0.58330  0.69640  Biso   1.000  O
  O14      1.0000 0.27100  0.41670  0.30360  Biso   1.000  O
  O15      1.0000 0.88690  0.66280  0.81220  Biso   1.000  O
  O16      1.0000 0.11310  0.33720  0.18780  Biso   1.000  O
  O17      1.0000 0.63810  0.13860  0.89380  Biso   1.000  O
  O18      1.0000 0.36190  0.86140  0.10620  Biso   1.000  O
  C1       1.0000 0.28560  0.01900  0.76350  Biso   1.000  C
  C2       1.0000 0.71440  0.98100  0.23650  Biso   1.000  C
  C3       1.0000 0.46030  0.04410  0.78260  Biso   1.000  C
  C4       1.0000 0.53970  0.95590  0.21740  Biso   1.000  C
  C5       1.0000 0.46400  0.11880  0.87800  Biso   1.000  C
  C6       1.0000 0.53600  0.88120  0.12200  Biso   1.000  C
  C7       1.0000 0.31010  0.16820  0.95440  Biso   1.000  C
  C8       1.0000 0.68990  0.83180  0.04560  Biso   1.000  C
  H1       1.0000 0.31730  0.21630  0.01860  Biso   1.000  H
  H2       1.0000 0.68270  0.78370  0.98140  Biso   1.000  H
  C9       1.0000 0.14220  0.14310  0.93180  Biso   1.000  C
  C10      1.0000 0.85780  0.85690  0.06820  Biso   1.000  C
  H3       1.0000 0.03540  0.17640  0.98140  Biso   1.000  H
  H4       1.0000 0.96460  0.82360  0.01860  Biso   1.000  H
  C11      1.0000 0.13070  0.07210  0.84030  Biso   1.000  C
  C12      1.0000 0.86930  0.92790  0.15970  Biso   1.000  C
  H5       1.0000 0.01620  0.05810  0.82800  Biso   1.000  H
  H6       1.0000 0.98380  0.94190  0.17200  Biso   1.000  H
  C13      1.0000 0.26470  0.93470  0.67010  Biso   1.000  C
  C14      1.0000 0.73530  0.06530  0.32990  Biso   1.000  C
  C15      1.0000 0.63460  0.99310  0.70710  Biso   1.000  C
  C16      1.0000 0.36540  0.00690  0.29290  Biso   1.000  C
  C17      1.0000 0.66160  0.25610  0.93130  Biso   1.000  C
  C18      1.0000 0.33840  0.74390  0.06870  Biso   1.000  C
  C19      1.0000 0.70750  0.35420  0.84440  Biso   1.000  C
  C20      1.0000 0.29250  0.64580  0.15560  Biso   1.000  C
  C21      1.0000 0.75190  0.46780  0.88190  Biso   1.000  C
  C22      1.0000 0.24810  0.53220  0.11810  Biso   1.000  C
  C23      1.0000 0.75110  0.48050  0.00590  Biso   1.000  C
  C24      1.0000 0.24890  0.51950  0.99410  Biso   1.000  C
  H7       1.0000 0.78520  0.55490  0.03040  Biso   1.000  H
  H8       1.0000 0.21480  0.44510  0.96960  Biso   1.000  H
  C25      1.0000 0.69880  0.38030  0.09060  Biso   1.000  C
  C26      1.0000 0.30120  0.61970  0.90940  Biso   1.000  C
  H9       1.0000 0.69630  0.38820  0.17270  Biso   1.000  H
  H10      1.0000 0.30370  0.61180  0.82730  Biso   1.000  H
  C27      1.0000 0.65080  0.26970  0.05500  Biso   1.000  C
  C28      1.0000 0.34920  0.73030  0.94500  Biso   1.000  C
  H11      1.0000 0.61130  0.20430  0.11280  Biso   1.000  H
  H12      1.0000 0.38870  0.79570  0.88720  Biso   1.000  H
  C29      1.0000 0.73390  0.32730  0.71400  Biso   1.000  C
  C30      1.0000 0.26610  0.67270  0.28600  Biso   1.000  C
  C31      1.0000 0.78920  0.57980  0.79000  Biso   1.000  C
  C32      1.0000 0.21080  0.42020  0.21000  Biso   1.000  C
  O19      1.0000 0.87620  0.84740  0.49870  Biso   1.000  O
  O20      1.0000 0.12380  0.15260  0.50130  Biso   1.000  O
  H13      1.0000 0.76270  0.85710  0.49890  Biso   1.000  H
  H14      1.0000 0.23730  0.14290  0.50110  Biso   1.000  H
  H15      1.0000 0.92590  0.79370  0.44680  Biso   1.000  H
  H16      1.0000 0.07410  0.20630  0.55320  Biso   1.000  H
  O21      1.0000 0.11910  0.66410  0.58230  Biso   1.000  O
  O22      1.0000 0.88090  0.33590  0.41770  Biso   1.000  O
  H17      1.0000 0.10690  0.58820  0.61330  Biso   1.000  H
  H18      1.0000 0.89310  0.41180  0.38670  Biso   1.000  H
  H19      1.0000 0.12030  0.66690  0.50630  Biso   1.000  H
  H20      1.0000 0.87970  0.33310  0.49370  Biso   1.000  H
  O23      1.0000 0.53300  0.63940  0.52630  Biso   1.000  O
  O24      1.0000 0.46700  0.36060  0.47370  Biso   1.000  O
  H21      1.0000 0.63540  0.66560  0.52840  Biso   1.000  H
  H22      1.0000 0.36460  0.33440  0.47160  Biso   1.000  H
  H23      1.0000 0.48980  0.61240  0.59940  Biso   1.000  H
  H24      1.0000 0.51020  0.38760  0.40060  Biso   1.000  H
  O25      1.0000 0.19890  0.41990  0.68660  Biso   1.000  O
  O26      1.0000 0.80110  0.58010  0.31340  Biso   1.000  O
  H25      1.0000 0.30670  0.44160  0.65920  Biso   1.000  H
  H26      1.0000 0.69330  0.55840  0.34080  Biso   1.000  H
  H27      1.0000 0.18450  0.35560  0.64990  Biso   1.000  H
  H28      1.0000 0.81550  0.64440  0.35010  Biso   1.000  H
