data_image0
_cell_length_a       9.9104
_cell_length_b       9.9563
_cell_length_c       11.3623
_cell_angle_alpha    101.345
_cell_angle_beta     109.658
_cell_angle_gamma    106.442

_symmetry_space_group_name_H-M    "P 1"
_symmetry_int_tables_number       1

loop_
  _symmetry_equiv_pos_as_xyz
  'x, y, z'

loop_
  _atom_site_label
  _atom_site_occupancy
  _atom_site_fract_x
  _atom_site_fract_y
  _atom_site_fract_z
  _atom_site_thermal_displace_type
  _atom_site_B_iso_or_equiv
  _atom_site_type_symbol
  Nd1      1.0000 0.72361  0.29803  0.75735  Biso   1.000  Nd
  Nd2      1.0000 0.27639  0.70197  0.24265  Biso   1.000  Nd
  Cu1      1.0000 0.92840  0.97380  0.83930  Biso   1.000  Cu
  Cu2      1.0000 0.07160  0.02620  0.16070  Biso   1.000  Cu
  Cu3      1.0000 0.50000  0.50000  0.50000  Biso   1.000  Cu
  N1       1.0000 0.70320  0.87040  0.79520  Biso   1.000  N
  N2       1.0000 0.29680  0.12960  0.20480  Biso   1.000  N
  N3       1.0000 0.44370  0.82280  0.74730  Biso   1.000  N
  N4       1.0000 0.55630  0.17720  0.25270  Biso   1.000  N
  H1       1.0000 0.36880  0.85380  0.72810  Biso   1.000  H
  H2       1.0000 0.63120  0.14620  0.27190  Biso   1.000  H
  N5       1.0000 0.15060  0.08550  0.87490  Biso   1.000  N
  N6       1.0000 0.84940  0.91450  0.12510  Biso   1.000  N
  N7       1.0000 0.40740  0.13810  0.89940  Biso   1.000  N
  N8       1.0000 0.59260  0.86190  0.10060  Biso   1.000  N
  H3       1.0000 0.48840  0.11620  0.91900  Biso   1.000  H
  H4       1.0000 0.51160  0.88380  0.08100  Biso   1.000  H
  N9       1.0000 0.27600  0.40510  0.45600  Biso   1.000  N
  N10      1.0000 0.72400  0.59490  0.54400  Biso   1.000  N
  N11      1.0000 0.01260  0.35260  0.38720  Biso   1.000  N
  N12      1.0000 0.98740  0.64740  0.61280  Biso   1.000  N
  H5       1.0000 0.93680  0.38070  0.35820  Biso   1.000  H
  H6       1.0000 0.06320  0.61930  0.64180  Biso   1.000  H
  O1       1.0000 0.94510  0.79430  0.87290  Biso   1.000  O
  O2       1.0000 0.05490  0.20570  0.12710  Biso   1.000  O
  O3       1.0000 0.80080  0.56580  0.85400  Biso   1.000  O
  O4       1.0000 0.19920  0.43420  0.14600  Biso   1.000  O
  O5       1.0000 0.27600  0.60500  0.73120  Biso   1.000  O
  O6       1.0000 0.72400  0.39500  0.26880  Biso   1.000  O
  O7       1.0000 0.59910  0.04470  0.76150  Biso   1.000  O
  O8       1.0000 0.40090  0.95530  0.23850  Biso   1.000  O
  O9       1.0000 0.90290  0.14750  0.80920  Biso   1.000  O
  O10      1.0000 0.09710  0.85250  0.19080  Biso   1.000  O
  O11      1.0000 0.02360  0.37330  0.82170  Biso   1.000  O
  O12      1.0000 0.97640  0.62670  0.17830  Biso   1.000  O
  O13      1.0000 0.53520  0.32880  0.84910  Biso   1.000  O
  O14      1.0000 0.46480  0.67120  0.15090  Biso   1.000  O
  O15      1.0000 0.28100  0.93380  0.93750  Biso   1.000  O
  O16      1.0000 0.71900  0.06620  0.06250  Biso   1.000  O
  O17      1.0000 0.52130  0.35450  0.58150  Biso   1.000  O
  O18      1.0000 0.47870  0.64550  0.41850  Biso   1.000  O
  O19      1.0000 0.38920  0.13570  0.58400  Biso   1.000  O
  O20      1.0000 0.61080  0.86430  0.41600  Biso   1.000  O
  O21      1.0000 0.84260  0.14070  0.38670  Biso   1.000  O
  O22      1.0000 0.15740  0.85930  0.61330  Biso   1.000  O
  O23      1.0000 0.16990  0.56280  0.38240  Biso   1.000  O
  O24      1.0000 0.83010  0.43720  0.61760  Biso   1.000  O
  O25      1.0000 0.83090  0.33340  0.99180  Biso   1.000  O
  O26      1.0000 0.16910  0.66660  0.00820  Biso   1.000  O
  H7       1.0000 0.90100  0.30400  0.05200  Biso   1.000  H
  H8       1.0000 0.09900  0.69600  0.94800  Biso   1.000  H
  H9       1.0000 0.89000  0.42200  0.06700  Biso   1.000  H
  H10      1.0000 0.11000  0.57800  0.93300  Biso   1.000  H
  O27      1.0000 0.69240  0.14560  0.55070  Biso   1.000  O
  O28      1.0000 0.30760  0.85440  0.44930  Biso   1.000  O
  H11      1.0000 0.66000  0.05400  0.48200  Biso   1.000  H
  H12      1.0000 0.34000  0.94600  0.51800  Biso   1.000  H
  H13      1.0000 0.77200  0.16200  0.52000  Biso   1.000  H
  H14      1.0000 0.22800  0.83800  0.48000  Biso   1.000  H
  C1       1.0000 0.81550  0.69070  0.84790  Biso   1.000  C
  C2       1.0000 0.18450  0.30930  0.15210  Biso   1.000  C
  C3       1.0000 0.67830  0.73420  0.80940  Biso   1.000  C
  C4       1.0000 0.32170  0.26580  0.19060  Biso   1.000  C
  C5       1.0000 0.53600  0.63850  0.78820  Biso   1.000  C
  C6       1.0000 0.46400  0.36150  0.21180  Biso   1.000  C
  H15      1.0000 0.52320  0.54550  0.79730  Biso   1.000  H
  H16      1.0000 0.47680  0.45450  0.20270  Biso   1.000  H
  C7       1.0000 0.40710  0.68260  0.75210  Biso   1.000  C
  C8       1.0000 0.59290  0.31740  0.24790  Biso   1.000  C
  C9       1.0000 0.58770  0.92320  0.76970  Biso   1.000  C
  C10      1.0000 0.41230  0.07680  0.23030  Biso   1.000  C
  C11      1.0000 0.02700  0.25170  0.82700  Biso   1.000  C
  C12      1.0000 0.97300  0.74830  0.17300  Biso   1.000  C
  C13      1.0000 0.16580  0.21660  0.85080  Biso   1.000  C
  C14      1.0000 0.83420  0.78340  0.14920  Biso   1.000  C
  C15      1.0000 0.28900  0.30360  0.84370  Biso   1.000  C
  C16      1.0000 0.71100  0.69640  0.15630  Biso   1.000  C
  H17      1.0000 0.29800  0.37300  0.81800  Biso   1.000  H
  H18      1.0000 0.70200  0.62700  0.18200  Biso   1.000  H
  C17      1.0000 0.41710  0.25950  0.86390  Biso   1.000  C
  C18      1.0000 0.58290  0.74050  0.13610  Biso   1.000  C
  C19      1.0000 0.27800  0.04220  0.90800  Biso   1.000  C
  C20      1.0000 0.72200  0.95780  0.09200  Biso   1.000  C
  C21      1.0000 0.39530  0.24600  0.55200  Biso   1.000  C
  C22      1.0000 0.60470  0.75400  0.44800  Biso   1.000  C
  C23      1.0000 0.25160  0.27440  0.48710  Biso   1.000  C
  C24      1.0000 0.74840  0.72560  0.51290  Biso   1.000  C
  C25      1.0000 0.11170  0.17870  0.46350  Biso   1.000  C
  C26      1.0000 0.88830  0.82130  0.53650  Biso   1.000  C
  H19      1.0000 0.10100  0.09040  0.48220  Biso   1.000  H
  H20      1.0000 0.89900  0.90960  0.51780  Biso   1.000  H
  C27      1.0000 0.97700  0.21590  0.40840  Biso   1.000  C
  C28      1.0000 0.02300  0.78410  0.59160  Biso   1.000  C
  C29      1.0000 0.15510  0.44650  0.40780  Biso   1.000  C
  C30      1.0000 0.84490  0.55350  0.59220  Biso   1.000  C
