data_image0
_cell_length_a       13.237
_cell_length_b       6.935
_cell_length_c       9.775
_cell_angle_alpha    90
_cell_angle_beta     107.88
_cell_angle_gamma    90

_symmetry_space_group_name_H-M    "P 1"
_symmetry_int_tables_number       1

loop_
  _symmetry_equiv_pos_as_xyz
  'x, y, z'

loop_
  _atom_site_label
  _atom_site_occupancy
  _atom_site_fract_x
  _atom_site_fract_y
  _atom_site_fract_z
  _atom_site_thermal_displace_type
  _atom_site_B_iso_or_equiv
  _atom_site_type_symbol
  Cu1      1.0000 0.04175  0.00000  0.34227  Biso   1.000  Cu
  Cu2      1.0000 0.54175  0.50000  0.34227  Biso   1.000  Cu
  Cu3      1.0000 0.95825  0.00000  0.65773  Biso   1.000  Cu
  Cu4      1.0000 0.45825  0.50000  0.65773  Biso   1.000  Cu
  Cl1      1.0000 0.87537  0.00000  0.37025  Biso   1.000  Cl
  Cl2      1.0000 0.37537  0.50000  0.37025  Biso   1.000  Cl
  Cl3      1.0000 0.12463  0.00000  0.62975  Biso   1.000  Cl
  Cl4      1.0000 0.62463  0.50000  0.62975  Biso   1.000  Cl
  Cl5      1.0000 0.18073  0.00000  0.25847  Biso   1.000  Cl
  Cl6      1.0000 0.68073  0.50000  0.25847  Biso   1.000  Cl
  Cl7      1.0000 0.81927  0.00000  0.74153  Biso   1.000  Cl
  Cl8      1.0000 0.31927  0.50000  0.74153  Biso   1.000  Cl
  N1       1.0000 0.03930  0.29780  0.33080  Biso   1.000  N
  N2       1.0000 0.53930  0.79780  0.33080  Biso   1.000  N
  N3       1.0000 0.96070  0.29780  0.66920  Biso   1.000  N
  N4       1.0000 0.46070  0.79780  0.66920  Biso   1.000  N
  N5       1.0000 0.96070  0.70220  0.66920  Biso   1.000  N
  N6       1.0000 0.46070  0.20220  0.66920  Biso   1.000  N
  N7       1.0000 0.03930  0.70220  0.33080  Biso   1.000  N
  N8       1.0000 0.53930  0.20220  0.33080  Biso   1.000  N
  C1       1.0000 0.10500  0.39870  0.43420  Biso   1.000  C
  C2       1.0000 0.60500  0.89870  0.43420  Biso   1.000  C
  C3       1.0000 0.89500  0.39870  0.56580  Biso   1.000  C
  C4       1.0000 0.39500  0.89870  0.56580  Biso   1.000  C
  C5       1.0000 0.89500  0.60130  0.56580  Biso   1.000  C
  C6       1.0000 0.39500  0.10130  0.56580  Biso   1.000  C
  C7       1.0000 0.10500  0.60130  0.43420  Biso   1.000  C
  C8       1.0000 0.60500  0.10130  0.43420  Biso   1.000  C
  C9       1.0000 0.84820  0.39910  0.97980  Biso   1.000  C
  C10      1.0000 0.34820  0.89910  0.97980  Biso   1.000  C
  C11      1.0000 0.15180  0.39910  0.02020  Biso   1.000  C
  C12      1.0000 0.65180  0.89910  0.02020  Biso   1.000  C
  C13      1.0000 0.15180  0.60090  0.02020  Biso   1.000  C
  C14      1.0000 0.65180  0.10090  0.02020  Biso   1.000  C
  C15      1.0000 0.84820  0.60090  0.97980  Biso   1.000  C
  C16      1.0000 0.34820  0.10090  0.97980  Biso   1.000  C
  C17      1.0000 0.90890  0.29940  0.09610  Biso   1.000  C
  C18      1.0000 0.40890  0.79940  0.09610  Biso   1.000  C
  C19      1.0000 0.09110  0.29940  0.90390  Biso   1.000  C
  C20      1.0000 0.59110  0.79940  0.90390  Biso   1.000  C
  C21      1.0000 0.09110  0.70060  0.90390  Biso   1.000  C
  C22      1.0000 0.59110  0.20060  0.90390  Biso   1.000  C
  C23      1.0000 0.90890  0.70060  0.09610  Biso   1.000  C
  C24      1.0000 0.40890  0.20060  0.09610  Biso   1.000  C
  C25      1.0000 0.97390  0.39750  0.21700  Biso   1.000  C
  C26      1.0000 0.47390  0.89750  0.21700  Biso   1.000  C
  C27      1.0000 0.02610  0.39750  0.78300  Biso   1.000  C
  C28      1.0000 0.52610  0.89750  0.78300  Biso   1.000  C
  C29      1.0000 0.02610  0.60250  0.78300  Biso   1.000  C
  C30      1.0000 0.52610  0.10250  0.78300  Biso   1.000  C
  C31      1.0000 0.97390  0.60250  0.21700  Biso   1.000  C
  C32      1.0000 0.47390  0.10250  0.21700  Biso   1.000  C
  H1       1.0000 0.15300  0.33600  0.51200  Biso   1.000  H
  H2       1.0000 0.65300  0.83600  0.51200  Biso   1.000  H
  H3       1.0000 0.84700  0.33600  0.48800  Biso   1.000  H
  H4       1.0000 0.34700  0.83600  0.48800  Biso   1.000  H
  H5       1.0000 0.84700  0.66400  0.48800  Biso   1.000  H
  H6       1.0000 0.34700  0.16400  0.48800  Biso   1.000  H
  H7       1.0000 0.15300  0.66400  0.51200  Biso   1.000  H
  H8       1.0000 0.65300  0.16400  0.51200  Biso   1.000  H
  H9       1.0000 0.80900  0.32800  0.89800  Biso   1.000  H
  H10      1.0000 0.30900  0.82800  0.89800  Biso   1.000  H
  H11      1.0000 0.19100  0.32800  0.10200  Biso   1.000  H
  H12      1.0000 0.69100  0.82800  0.10200  Biso   1.000  H
  H13      1.0000 0.19100  0.67200  0.10200  Biso   1.000  H
  H14      1.0000 0.69100  0.17200  0.10200  Biso   1.000  H
  H15      1.0000 0.80900  0.67200  0.89800  Biso   1.000  H
  H16      1.0000 0.30900  0.17200  0.89800  Biso   1.000  H
  H17      1.0000 0.90700  0.16200  0.10000  Biso   1.000  H
  H18      1.0000 0.40700  0.66200  0.10000  Biso   1.000  H
  H19      1.0000 0.09300  0.16200  0.90000  Biso   1.000  H
  H20      1.0000 0.59300  0.66200  0.90000  Biso   1.000  H
  H21      1.0000 0.09300  0.83800  0.90000  Biso   1.000  H
  H22      1.0000 0.59300  0.33800  0.90000  Biso   1.000  H
  H23      1.0000 0.90700  0.83800  0.10000  Biso   1.000  H
  H24      1.0000 0.40700  0.33800  0.10000  Biso   1.000  H
