data_image0
_cell_length_a       13.1229
_cell_length_b       6.9476
_cell_length_c       9.7058
_cell_angle_alpha    90
_cell_angle_beta     107.467
_cell_angle_gamma    90

_symmetry_space_group_name_H-M    "P 1"
_symmetry_int_tables_number       1

loop_
  _symmetry_equiv_pos_as_xyz
  'x, y, z'

loop_
  _atom_site_label
  _atom_site_occupancy
  _atom_site_fract_x
  _atom_site_fract_y
  _atom_site_fract_z
  _atom_site_thermal_displace_type
  _atom_site_B_iso_or_equiv
  _atom_site_type_symbol
  Cu1      1.0000 0.45737  0.00000  0.65670  Biso   1.000  Cu
  Cu2      1.0000 0.54263  0.00000  0.34330  Biso   1.000  Cu
  Cu3      1.0000 0.95737  0.50000  0.65670  Biso   1.000  Cu
  Cu4      1.0000 0.04263  0.50000  0.34330  Biso   1.000  Cu
  Cl1      1.0000 0.37404  0.00000  0.37071  Biso   1.000  Cl
  Cl2      1.0000 0.62596  0.00000  0.62929  Biso   1.000  Cl
  Cl3      1.0000 0.87404  0.50000  0.37071  Biso   1.000  Cl
  Cl4      1.0000 0.12596  0.50000  0.62929  Biso   1.000  Cl
  Cl5      1.0000 0.31807  0.00000  0.74453  Biso   1.000  Cl
  Cl6      1.0000 0.68193  0.00000  0.25547  Biso   1.000  Cl
  Cl7      1.0000 0.81807  0.50000  0.74453  Biso   1.000  Cl
  Cl8      1.0000 0.18193  0.50000  0.25547  Biso   1.000  Cl
  C1       1.0000 0.39339  0.39830  0.56366  Biso   1.000  C
  C2       1.0000 0.60661  0.39830  0.43634  Biso   1.000  C
  C3       1.0000 0.89339  0.89830  0.56366  Biso   1.000  C
  C4       1.0000 0.10661  0.89830  0.43634  Biso   1.000  C
  C5       1.0000 0.60661  0.60170  0.43634  Biso   1.000  C
  C6       1.0000 0.39339  0.60170  0.56366  Biso   1.000  C
  C7       1.0000 0.10661  0.10170  0.43634  Biso   1.000  C
  C8       1.0000 0.89339  0.10170  0.56366  Biso   1.000  C
  H1       1.0000 0.34510  0.33360  0.48790  Biso   1.000  H
  H2       1.0000 0.65490  0.33360  0.51210  Biso   1.000  H
  H3       1.0000 0.84510  0.83360  0.48790  Biso   1.000  H
  H4       1.0000 0.15490  0.83360  0.51210  Biso   1.000  H
  H5       1.0000 0.65490  0.66640  0.51210  Biso   1.000  H
  H6       1.0000 0.34510  0.66640  0.48790  Biso   1.000  H
  H7       1.0000 0.15490  0.16640  0.51210  Biso   1.000  H
  H8       1.0000 0.84510  0.16640  0.48790  Biso   1.000  H
  C9       1.0000 0.52571  0.39740  0.78195  Biso   1.000  C
  C10      1.0000 0.47429  0.39740  0.21805  Biso   1.000  C
  C11      1.0000 0.02571  0.89740  0.78195  Biso   1.000  C
  C12      1.0000 0.97429  0.89740  0.21805  Biso   1.000  C
  C13      1.0000 0.47429  0.60260  0.21805  Biso   1.000  C
  C14      1.0000 0.52571  0.60260  0.78195  Biso   1.000  C
  C15      1.0000 0.97429  0.10260  0.21805  Biso   1.000  C
  C16      1.0000 0.02571  0.10260  0.78195  Biso   1.000  C
  N1       1.0000 0.45966  0.29720  0.66757  Biso   1.000  N
  N2       1.0000 0.54034  0.29720  0.33243  Biso   1.000  N
  N3       1.0000 0.95966  0.79720  0.66757  Biso   1.000  N
  N4       1.0000 0.04034  0.79720  0.33243  Biso   1.000  N
  N5       1.0000 0.54034  0.70280  0.33243  Biso   1.000  N
  N6       1.0000 0.45966  0.70280  0.66757  Biso   1.000  N
  N7       1.0000 0.04034  0.20280  0.33243  Biso   1.000  N
  N8       1.0000 0.95966  0.20280  0.66757  Biso   1.000  N
  C17      1.0000 0.65234  0.39870  0.02048  Biso   1.000  C
  C18      1.0000 0.34766  0.39870  0.97952  Biso   1.000  C
  C19      1.0000 0.15234  0.89870  0.02048  Biso   1.000  C
  C20      1.0000 0.84766  0.89870  0.97952  Biso   1.000  C
  C21      1.0000 0.34766  0.60130  0.97952  Biso   1.000  C
  C22      1.0000 0.65234  0.60130  0.02048  Biso   1.000  C
  C23      1.0000 0.84766  0.10130  0.97952  Biso   1.000  C
  C24      1.0000 0.15234  0.10130  0.02048  Biso   1.000  C
  H9       1.0000 0.69430  0.33230  0.10070  Biso   1.000  H
  H10      1.0000 0.30570  0.33230  0.89930  Biso   1.000  H
  H11      1.0000 0.19430  0.83230  0.10070  Biso   1.000  H
  H12      1.0000 0.80570  0.83230  0.89930  Biso   1.000  H
  H13      1.0000 0.30570  0.66770  0.89930  Biso   1.000  H
  H14      1.0000 0.69430  0.66770  0.10070  Biso   1.000  H
  H15      1.0000 0.80570  0.16770  0.89930  Biso   1.000  H
  H16      1.0000 0.19430  0.16770  0.10070  Biso   1.000  H
  C25      1.0000 0.59113  0.29850  0.90331  Biso   1.000  C
  C26      1.0000 0.40887  0.29850  0.09669  Biso   1.000  C
  C27      1.0000 0.09113  0.79850  0.90331  Biso   1.000  C
  C28      1.0000 0.90887  0.79850  0.09669  Biso   1.000  C
  C29      1.0000 0.40887  0.70150  0.09669  Biso   1.000  C
  C30      1.0000 0.59113  0.70150  0.90331  Biso   1.000  C
  C31      1.0000 0.90887  0.20150  0.09669  Biso   1.000  C
  C32      1.0000 0.09113  0.20150  0.90331  Biso   1.000  C
  H17      1.0000 0.59270  0.16470  0.90370  Biso   1.000  H
  H18      1.0000 0.40730  0.16470  0.09630  Biso   1.000  H
  H19      1.0000 0.09270  0.66470  0.90370  Biso   1.000  H
  H20      1.0000 0.90730  0.66470  0.09630  Biso   1.000  H
  H21      1.0000 0.40730  0.83530  0.09630  Biso   1.000  H
  H22      1.0000 0.59270  0.83530  0.90370  Biso   1.000  H
  H23      1.0000 0.90730  0.33530  0.09630  Biso   1.000  H
  H24      1.0000 0.09270  0.33530  0.90370  Biso   1.000  H
