data_image0
_cell_length_a       15.206
_cell_length_b       8.029
_cell_length_c       14.338
_cell_angle_alpha    90
_cell_angle_beta     113.64
_cell_angle_gamma    90

_symmetry_space_group_name_H-M    "P 1"
_symmetry_int_tables_number       1

loop_
  _symmetry_equiv_pos_as_xyz
  'x, y, z'

loop_
  _atom_site_label
  _atom_site_occupancy
  _atom_site_fract_x
  _atom_site_fract_y
  _atom_site_fract_z
  _atom_site_thermal_displace_type
  _atom_site_B_iso_or_equiv
  _atom_site_type_symbol
  Cu1      1.0000 0.00000  0.00000  0.00000  Biso   1.000  Cu
  Cu2      1.0000 0.00000  0.50000  0.50000  Biso   1.000  Cu
  Cl1      1.0000 0.52662  0.30543  0.97697  Biso   1.000  Cl
  Cl2      1.0000 0.52662  0.19457  0.47697  Biso   1.000  Cl
  Cl3      1.0000 0.47338  0.69457  0.02303  Biso   1.000  Cl
  Cl4      1.0000 0.47338  0.80543  0.52303  Biso   1.000  Cl
  O1       1.0000 0.87614  0.94172  0.88648  Biso   1.000  O
  O2       1.0000 0.87614  0.55828  0.38648  Biso   1.000  O
  O3       1.0000 0.12386  0.05828  0.11352  Biso   1.000  O
  O4       1.0000 0.12386  0.44172  0.61352  Biso   1.000  O
  O5       1.0000 0.85563  0.67770  0.92633  Biso   1.000  O
  O6       1.0000 0.85563  0.82230  0.42633  Biso   1.000  O
  O7       1.0000 0.14437  0.32230  0.07367  Biso   1.000  O
  O8       1.0000 0.14437  0.17770  0.57367  Biso   1.000  O
  O9       1.0000 0.69536  0.93786  0.73520  Biso   1.000  O
  O10      1.0000 0.69536  0.56214  0.23520  Biso   1.000  O
  O11      1.0000 0.30464  0.06214  0.26480  Biso   1.000  O
  O12      1.0000 0.30464  0.43786  0.76480  Biso   1.000  O
  O13      1.0000 0.99489  0.75473  0.09826  Biso   1.000  O
  O14      1.0000 0.99489  0.74527  0.59826  Biso   1.000  O
  O15      1.0000 0.00511  0.24527  0.90174  Biso   1.000  O
  O16      1.0000 0.00511  0.25473  0.40174  Biso   1.000  O
  N1       1.0000 0.07019  0.61723  0.42666  Biso   1.000  N
  N2       1.0000 0.07019  0.88277  0.92666  Biso   1.000  N
  N3       1.0000 0.92981  0.38277  0.57334  Biso   1.000  N
  N4       1.0000 0.92981  0.11723  0.07334  Biso   1.000  N
  C1       1.0000 0.83362  0.80130  0.86933  Biso   1.000  C
  C2       1.0000 0.83362  0.69870  0.36933  Biso   1.000  C
  C3       1.0000 0.16638  0.19870  0.13067  Biso   1.000  C
  C4       1.0000 0.16638  0.30130  0.63067  Biso   1.000  C
  C5       1.0000 0.74861  0.78310  0.76431  Biso   1.000  C
  C6       1.0000 0.74861  0.71690  0.26431  Biso   1.000  C
  C7       1.0000 0.25139  0.21690  0.23569  Biso   1.000  C
  C8       1.0000 0.25139  0.28310  0.73569  Biso   1.000  C
  C9       1.0000 0.65834  0.01200  0.79695  Biso   1.000  C
  C10      1.0000 0.65834  0.48800  0.29695  Biso   1.000  C
  C11      1.0000 0.34166  0.98800  0.20305  Biso   1.000  C
  C12      1.0000 0.34166  0.51200  0.70305  Biso   1.000  C
  C13      1.0000 0.66252  0.95130  0.88936  Biso   1.000  C
  C14      1.0000 0.66252  0.54870  0.38936  Biso   1.000  C
  C15      1.0000 0.33748  0.04870  0.11064  Biso   1.000  C
  C16      1.0000 0.33748  0.45130  0.61064  Biso   1.000  C
  C17      1.0000 0.62090  0.04090  0.94412  Biso   1.000  C
  C18      1.0000 0.62090  0.45910  0.44412  Biso   1.000  C
  C19      1.0000 0.37910  0.95910  0.05588  Biso   1.000  C
  C20      1.0000 0.37910  0.54090  0.55588  Biso   1.000  C
  C21      1.0000 0.57629  0.19120  0.90649  Biso   1.000  C
  C22      1.0000 0.57629  0.30880  0.40649  Biso   1.000  C
  C23      1.0000 0.42371  0.80880  0.09351  Biso   1.000  C
  C24      1.0000 0.42371  0.69120  0.59351  Biso   1.000  C
  C25      1.0000 0.57204  0.25380  0.81545  Biso   1.000  C
  C26      1.0000 0.57204  0.24620  0.31545  Biso   1.000  C
  C27      1.0000 0.42796  0.74620  0.18455  Biso   1.000  C
  C28      1.0000 0.42796  0.75380  0.68455  Biso   1.000  C
  C29      1.0000 0.61246  0.16380  0.76036  Biso   1.000  C
  C30      1.0000 0.61246  0.33620  0.26036  Biso   1.000  C
  C31      1.0000 0.38754  0.83620  0.23964  Biso   1.000  C
  C32      1.0000 0.38754  0.66380  0.73964  Biso   1.000  C
  C33      1.0000 0.79001  0.76290  0.68431  Biso   1.000  C
  C34      1.0000 0.79001  0.73710  0.18431  Biso   1.000  C
  C35      1.0000 0.20999  0.23710  0.31569  Biso   1.000  C
  C36      1.0000 0.20999  0.26290  0.81569  Biso   1.000  C
  C37      1.0000 0.68310  0.63670  0.75896  Biso   1.000  C
  C38      1.0000 0.68310  0.86330  0.25896  Biso   1.000  C
  C39      1.0000 0.31690  0.36330  0.24104  Biso   1.000  C
  C40      1.0000 0.31690  0.13670  0.74104  Biso   1.000  C
  C41      1.0000 0.04277  0.58940  0.32686  Biso   1.000  C
  C42      1.0000 0.04277  0.91060  0.82686  Biso   1.000  C
  C43      1.0000 0.95723  0.41060  0.67314  Biso   1.000  C
  C44      1.0000 0.95723  0.08940  0.17314  Biso   1.000  C
  C45      1.0000 0.08578  0.66260  0.26859  Biso   1.000  C
  C46      1.0000 0.08578  0.83740  0.76859  Biso   1.000  C
  C47      1.0000 0.91422  0.33740  0.73141  Biso   1.000  C
  C48      1.0000 0.91422  0.16260  0.23141  Biso   1.000  C
  C49      1.0000 0.16057  0.77500  0.31693  Biso   1.000  C
  C50      1.0000 0.16057  0.72500  0.81693  Biso   1.000  C
  C51      1.0000 0.83943  0.22500  0.68307  Biso   1.000  C
  C52      1.0000 0.83943  0.27500  0.18307  Biso   1.000  C
  C53      1.0000 0.18919  0.80500  0.41984  Biso   1.000  C
  C54      1.0000 0.18919  0.69500  0.91984  Biso   1.000  C
  C55      1.0000 0.81081  0.19500  0.58016  Biso   1.000  C
  C56      1.0000 0.81081  0.30500  0.08016  Biso   1.000  C
  C57      1.0000 0.14373  0.72290  0.47291  Biso   1.000  C
  C58      1.0000 0.14373  0.77710  0.97291  Biso   1.000  C
  C59      1.0000 0.85627  0.27710  0.52709  Biso   1.000  C
  C60      1.0000 0.85627  0.22290  0.02709  Biso   1.000  C
  C61      1.0000 0.05133  0.62070  0.15752  Biso   1.000  C
  C62      1.0000 0.05133  0.87930  0.65752  Biso   1.000  C
  C63      1.0000 0.94867  0.37930  0.84248  Biso   1.000  C
  C64      1.0000 0.94867  0.12070  0.34248  Biso   1.000  C
  H1       1.0000 0.69530  0.85200  0.91650  Biso   1.000  H
  H2       1.0000 0.69530  0.64800  0.41650  Biso   1.000  H
  H3       1.0000 0.30470  0.14800  0.08350  Biso   1.000  H
  H4       1.0000 0.30470  0.35200  0.58350  Biso   1.000  H
  H5       1.0000 0.62830  0.00600  0.01080  Biso   1.000  H
  H6       1.0000 0.62830  0.49400  0.51080  Biso   1.000  H
  H7       1.0000 0.37170  0.99400  0.98920  Biso   1.000  H
  H8       1.0000 0.37170  0.50600  0.48920  Biso   1.000  H
  H9       1.0000 0.54130  0.35600  0.78950  Biso   1.000  H
  H10      1.0000 0.54130  0.14400  0.28950  Biso   1.000  H
  H11      1.0000 0.45870  0.64400  0.21050  Biso   1.000  H
  H12      1.0000 0.45870  0.85600  0.71050  Biso   1.000  H
  H13      1.0000 0.61060  0.20300  0.69940  Biso   1.000  H
  H14      1.0000 0.61060  0.29700  0.19940  Biso   1.000  H
  H15      1.0000 0.38940  0.79700  0.30060  Biso   1.000  H
  H16      1.0000 0.38940  0.70300  0.80060  Biso   1.000  H
  H17      1.0000 0.82570  0.66500  0.69640  Biso   1.000  H
  H18      1.0000 0.82570  0.83500  0.19640  Biso   1.000  H
  H19      1.0000 0.17430  0.33500  0.30360  Biso   1.000  H
  H20      1.0000 0.17430  0.16500  0.80360  Biso   1.000  H
  H21      1.0000 0.83220  0.85400  0.68680  Biso   1.000  H
  H22      1.0000 0.83220  0.64600  0.18680  Biso   1.000  H
  H23      1.0000 0.16780  0.14600  0.31320  Biso   1.000  H
  H24      1.0000 0.16780  0.35400  0.81320  Biso   1.000  H
  H25      1.0000 0.73690  0.75600  0.61580  Biso   1.000  H
  H26      1.0000 0.73690  0.74400  0.11580  Biso   1.000  H
  H27      1.0000 0.26310  0.24400  0.38420  Biso   1.000  H
  H28      1.0000 0.26310  0.25600  0.88420  Biso   1.000  H
  H29      1.0000 0.63330  0.62900  0.69230  Biso   1.000  H
  H30      1.0000 0.63330  0.87100  0.19230  Biso   1.000  H
  H31      1.0000 0.36670  0.37100  0.30770  Biso   1.000  H
  H32      1.0000 0.36670  0.12900  0.80770  Biso   1.000  H
  H33      1.0000 0.65420  0.64900  0.80550  Biso   1.000  H
  H34      1.0000 0.65420  0.85100  0.30550  Biso   1.000  H
  H35      1.0000 0.34580  0.35100  0.19450  Biso   1.000  H
  H36      1.0000 0.34580  0.14900  0.69450  Biso   1.000  H
  H37      1.0000 0.72100  0.53300  0.77370  Biso   1.000  H
  H38      1.0000 0.72100  0.96700  0.27370  Biso   1.000  H
  H39      1.0000 0.27900  0.46700  0.22630  Biso   1.000  H
  H40      1.0000 0.27900  0.03300  0.72630  Biso   1.000  H
  H41      1.0000 0.99080  0.51300  0.29660  Biso   1.000  H
  H42      1.0000 0.99080  0.98700  0.79660  Biso   1.000  H
  H43      1.0000 0.00920  0.48700  0.70340  Biso   1.000  H
  H44      1.0000 0.00920  0.01300  0.20340  Biso   1.000  H
  H45      1.0000 0.18930  0.82300  0.27730  Biso   1.000  H
  H46      1.0000 0.18930  0.67700  0.77730  Biso   1.000  H
  H47      1.0000 0.81070  0.17700  0.72270  Biso   1.000  H
  H48      1.0000 0.81070  0.32300  0.22270  Biso   1.000  H
  H49      1.0000 0.23930  0.87800  0.45380  Biso   1.000  H
  H50      1.0000 0.23930  0.62200  0.95380  Biso   1.000  H
  H51      1.0000 0.76070  0.12200  0.54620  Biso   1.000  H
  H52      1.0000 0.76070  0.37800  0.04620  Biso   1.000  H
  H53      1.0000 0.16310  0.73700  0.54560  Biso   1.000  H
  H54      1.0000 0.16310  0.76300  0.04560  Biso   1.000  H
  H55      1.0000 0.83690  0.26300  0.45440  Biso   1.000  H
  H56      1.0000 0.83690  0.23700  0.95440  Biso   1.000  H
  H57      1.0000 0.10760  0.59600  0.14080  Biso   1.000  H
  H58      1.0000 0.10760  0.90400  0.64080  Biso   1.000  H
  H59      1.0000 0.89240  0.40400  0.85920  Biso   1.000  H
  H60      1.0000 0.89240  0.09600  0.35920  Biso   1.000  H
  H61      1.0000 0.01220  0.51600  0.14290  Biso   1.000  H
  H62      1.0000 0.01220  0.98400  0.64290  Biso   1.000  H
  H63      1.0000 0.98780  0.48400  0.85710  Biso   1.000  H
  H64      1.0000 0.98780  0.01600  0.35710  Biso   1.000  H
  H65      1.0000 0.95000  0.72000  0.04300  Biso   1.000  H
  H66      1.0000 0.95000  0.78000  0.54300  Biso   1.000  H
  H67      1.0000 0.05000  0.28000  0.95700  Biso   1.000  H
  H68      1.0000 0.05000  0.22000  0.45700  Biso   1.000  H
