data_image0
_cell_length_a       12.3851
_cell_length_b       7.6044
_cell_length_c       12.788
_cell_angle_alpha    90
_cell_angle_beta     90
_cell_angle_gamma    90

_symmetry_space_group_name_H-M    "P 1"
_symmetry_int_tables_number       1

loop_
  _symmetry_equiv_pos_as_xyz
  'x, y, z'

loop_
  _atom_site_label
  _atom_site_occupancy
  _atom_site_fract_x
  _atom_site_fract_y
  _atom_site_fract_z
  _atom_site_thermal_displace_type
  _atom_site_B_iso_or_equiv
  _atom_site_type_symbol
  Mo1      1.0000 0.83827  0.25000  0.51427  Biso   1.000  Mo
  Mo2      1.0000 0.33827  0.25000  0.98573  Biso   1.000  Mo
  Mo3      1.0000 0.66173  0.75000  0.01427  Biso   1.000  Mo
  Mo4      1.0000 0.16173  0.75000  0.48573  Biso   1.000  Mo
  Mo5      1.0000 0.01236  0.99913  0.63608  Biso   1.000  Mo
  Mo6      1.0000 0.51236  0.99913  0.86392  Biso   1.000  Mo
  Mo7      1.0000 0.01236  0.50087  0.63608  Biso   1.000  Mo
  Mo8      1.0000 0.48764  0.49913  0.13608  Biso   1.000  Mo
  Mo9      1.0000 0.98764  0.00087  0.36392  Biso   1.000  Mo
  Mo10     1.0000 0.48764  0.00087  0.13608  Biso   1.000  Mo
  Mo11     1.0000 0.98764  0.49913  0.36392  Biso   1.000  Mo
  Mo12     1.0000 0.51236  0.50087  0.86392  Biso   1.000  Mo
  Cu1      1.0000 0.61350  0.25000  0.32447  Biso   1.000  Cu
  Cu2      1.0000 0.11350  0.25000  0.17553  Biso   1.000  Cu
  Cu3      1.0000 0.88650  0.75000  0.82447  Biso   1.000  Cu
  Cu4      1.0000 0.38650  0.75000  0.67553  Biso   1.000  Cu
  Cu5      1.0000 0.73710  0.25000  0.78490  Biso   1.000  Cu
  Cu6      1.0000 0.23710  0.25000  0.71510  Biso   1.000  Cu
  Cu7      1.0000 0.76290  0.75000  0.28490  Biso   1.000  Cu
  Cu8      1.0000 0.26290  0.75000  0.21510  Biso   1.000  Cu
  O1       1.0000 0.89340  0.01270  0.50820  Biso   1.000  O
  O2       1.0000 0.39340  0.01270  0.99180  Biso   1.000  O
  O3       1.0000 0.89340  0.48730  0.50820  Biso   1.000  O
  O4       1.0000 0.60660  0.51270  0.00820  Biso   1.000  O
  O5       1.0000 0.10660  0.98730  0.49180  Biso   1.000  O
  O6       1.0000 0.60660  0.98730  0.00820  Biso   1.000  O
  O7       1.0000 0.10660  0.51270  0.49180  Biso   1.000  O
  O8       1.0000 0.39340  0.48730  0.99180  Biso   1.000  O
  O9       1.0000 0.98480  0.25000  0.61250  Biso   1.000  O
  O10      1.0000 0.48480  0.25000  0.88750  Biso   1.000  O
  O11      1.0000 0.51520  0.75000  0.11250  Biso   1.000  O
  O12      1.0000 0.01520  0.75000  0.38750  Biso   1.000  O
  O13      1.0000 0.12340  0.04530  0.71100  Biso   1.000  O
  O14      1.0000 0.62340  0.04530  0.78900  Biso   1.000  O
  O15      1.0000 0.12340  0.45470  0.71100  Biso   1.000  O
  O16      1.0000 0.37660  0.54530  0.21100  Biso   1.000  O
  O17      1.0000 0.87660  0.95470  0.28900  Biso   1.000  O
  O18      1.0000 0.37660  0.95470  0.21100  Biso   1.000  O
  O19      1.0000 0.87660  0.54530  0.28900  Biso   1.000  O
  O20      1.0000 0.62340  0.45470  0.78900  Biso   1.000  O
  O21      1.0000 0.91350  0.94910  0.72680  Biso   1.000  O
  O22      1.0000 0.41350  0.94910  0.77320  Biso   1.000  O
  O23      1.0000 0.91350  0.55090  0.72680  Biso   1.000  O
  O24      1.0000 0.58650  0.44910  0.22680  Biso   1.000  O
  O25      1.0000 0.08650  0.05090  0.27320  Biso   1.000  O
  O26      1.0000 0.58650  0.05090  0.22680  Biso   1.000  O
  O27      1.0000 0.08650  0.44910  0.27320  Biso   1.000  O
  O28      1.0000 0.41350  0.55090  0.77320  Biso   1.000  O
  O29      1.0000 0.74010  0.25000  0.41680  Biso   1.000  O
  O30      1.0000 0.24010  0.25000  0.08320  Biso   1.000  O
  O31      1.0000 0.75990  0.75000  0.91680  Biso   1.000  O
  O32      1.0000 0.25990  0.75000  0.58320  Biso   1.000  O
  O33      1.0000 0.96420  0.25000  0.39300  Biso   1.000  O
  O34      1.0000 0.46420  0.25000  0.10700  Biso   1.000  O
  O35      1.0000 0.53580  0.75000  0.89300  Biso   1.000  O
  O36      1.0000 0.03580  0.75000  0.60700  Biso   1.000  O
  O37      1.0000 0.76490  0.25000  0.62890  Biso   1.000  O
  O38      1.0000 0.26490  0.25000  0.87110  Biso   1.000  O
  O39      1.0000 0.73510  0.75000  0.12890  Biso   1.000  O
  O40      1.0000 0.23510  0.75000  0.37110  Biso   1.000  O
  N1       1.0000 0.48970  0.25000  0.43120  Biso   1.000  N
  N2       1.0000 0.98970  0.25000  0.06880  Biso   1.000  N
  N3       1.0000 0.01030  0.75000  0.93120  Biso   1.000  N
  N4       1.0000 0.51030  0.75000  0.56880  Biso   1.000  N
  N5       1.0000 0.33830  0.25000  0.59520  Biso   1.000  N
  N6       1.0000 0.83830  0.25000  0.90480  Biso   1.000  N
  N7       1.0000 0.16170  0.75000  0.09520  Biso   1.000  N
  N8       1.0000 0.66170  0.75000  0.40480  Biso   1.000  N
  C1       1.0000 0.51760  0.25000  0.53320  Biso   1.000  C
  C2       1.0000 0.01760  0.25000  0.96680  Biso   1.000  C
  C3       1.0000 0.98240  0.75000  0.03320  Biso   1.000  C
  C4       1.0000 0.48240  0.75000  0.46680  Biso   1.000  C
  C5       1.0000 0.38160  0.25000  0.41370  Biso   1.000  C
  C6       1.0000 0.88160  0.25000  0.08630  Biso   1.000  C
  C7       1.0000 0.11840  0.75000  0.91370  Biso   1.000  C
  C8       1.0000 0.61840  0.75000  0.58630  Biso   1.000  C
  C9       1.0000 0.44270  0.25000  0.61480  Biso   1.000  C
  C10      1.0000 0.94270  0.25000  0.88520  Biso   1.000  C
  C11      1.0000 0.05730  0.75000  0.11480  Biso   1.000  C
  C12      1.0000 0.55730  0.75000  0.38520  Biso   1.000  C
  C13      1.0000 0.30500  0.25000  0.49330  Biso   1.000  C
  C14      1.0000 0.80500  0.25000  0.00670  Biso   1.000  C
  C15      1.0000 0.19500  0.75000  0.99330  Biso   1.000  C
  C16      1.0000 0.69500  0.75000  0.50670  Biso   1.000  C
