data_image0
_cell_length_a       10.805
_cell_length_b       13.061
_cell_length_c       19.337
_cell_angle_alpha    90
_cell_angle_beta     90.2
_cell_angle_gamma    90

_symmetry_space_group_name_H-M    "P 1"
_symmetry_int_tables_number       1

loop_
  _symmetry_equiv_pos_as_xyz
  'x, y, z'

loop_
  _atom_site_label
  _atom_site_occupancy
  _atom_site_fract_x
  _atom_site_fract_y
  _atom_site_fract_z
  _atom_site_thermal_displace_type
  _atom_site_B_iso_or_equiv
  _atom_site_type_symbol
  Mo1      1.0000 0.16339  0.34412  0.05505  Biso   1.000  Mo
  Mo2      1.0000 0.16339  0.15588  0.55505  Biso   1.000  Mo
  Mo3      1.0000 0.83661  0.65588  0.94495  Biso   1.000  Mo
  Mo4      1.0000 0.83661  0.84412  0.44495  Biso   1.000  Mo
  Mo5      1.0000 0.17806  0.33530  0.88708  Biso   1.000  Mo
  Mo6      1.0000 0.17806  0.16470  0.38708  Biso   1.000  Mo
  Mo7      1.0000 0.82194  0.66470  0.11292  Biso   1.000  Mo
  Mo8      1.0000 0.82194  0.83530  0.61292  Biso   1.000  Mo
  Mo9      1.0000 0.89430  0.41784  0.87632  Biso   1.000  Mo
  Mo10     1.0000 0.89430  0.08216  0.37632  Biso   1.000  Mo
  Mo11     1.0000 0.10570  0.58216  0.12368  Biso   1.000  Mo
  Mo12     1.0000 0.10570  0.91784  0.62368  Biso   1.000  Mo
  Mo13     1.0000 0.88156  0.42497  0.04141  Biso   1.000  Mo
  Mo14     1.0000 0.88156  0.07503  0.54141  Biso   1.000  Mo
  Mo15     1.0000 0.11844  0.57503  0.95859  Biso   1.000  Mo
  Mo16     1.0000 0.11844  0.92497  0.45859  Biso   1.000  Mo
  Cu1      1.0000 0.50000  0.00000  0.50000  Biso   1.000  Cu
  Cu2      1.0000 0.50000  0.50000  0.00000  Biso   1.000  Cu
  Cu3      1.0000 0.38047  0.74784  0.81390  Biso   1.000  Cu
  Cu4      1.0000 0.38047  0.75216  0.31390  Biso   1.000  Cu
  Cu5      1.0000 0.61953  0.25216  0.18610  Biso   1.000  Cu
  Cu6      1.0000 0.61953  0.24784  0.68610  Biso   1.000  Cu
  Cu7      1.0000 0.24613  0.05804  0.88022  Biso   1.000  Cu
  Cu8      1.0000 0.24613  0.44196  0.38022  Biso   1.000  Cu
  Cu9      1.0000 0.75387  0.94196  0.11978  Biso   1.000  Cu
  Cu10     1.0000 0.75387  0.55804  0.61978  Biso   1.000  Cu
  N1       1.0000 0.46640  0.90740  0.57930  Biso   1.000  N
  N2       1.0000 0.46640  0.59260  0.07930  Biso   1.000  N
  N3       1.0000 0.53360  0.09260  0.42070  Biso   1.000  N
  N4       1.0000 0.53360  0.40740  0.92070  Biso   1.000  N
  N5       1.0000 0.42630  0.80990  0.70410  Biso   1.000  N
  N6       1.0000 0.42630  0.69010  0.20410  Biso   1.000  N
  N7       1.0000 0.57370  0.19010  0.29590  Biso   1.000  N
  N8       1.0000 0.57370  0.30990  0.79590  Biso   1.000  N
  N9       1.0000 0.20610  0.70990  0.79000  Biso   1.000  N
  N10      1.0000 0.20610  0.79010  0.29000  Biso   1.000  N
  N11      1.0000 0.79390  0.29010  0.21000  Biso   1.000  N
  N12      1.0000 0.79390  0.20990  0.71000  Biso   1.000  N
  N13      1.0000 0.95700  0.69010  0.75990  Biso   1.000  N
  N14      1.0000 0.95700  0.80990  0.25990  Biso   1.000  N
  N15      1.0000 0.04300  0.30990  0.24010  Biso   1.000  N
  N16      1.0000 0.04300  0.19010  0.74010  Biso   1.000  N
  N17      1.0000 0.21860  0.00520  0.97540  Biso   1.000  N
  N18      1.0000 0.21860  0.49480  0.47540  Biso   1.000  N
  N19      1.0000 0.78140  0.99480  0.02460  Biso   1.000  N
  N20      1.0000 0.78140  0.50520  0.52460  Biso   1.000  N
  N21      1.0000 0.21480  0.95370  0.11290  Biso   1.000  N
  N22      1.0000 0.21480  0.54630  0.61290  Biso   1.000  N
  N23      1.0000 0.78520  0.04630  0.88710  Biso   1.000  N
  N24      1.0000 0.78520  0.45370  0.38710  Biso   1.000  N
  C1       1.0000 0.53140  0.06260  0.63260  Biso   1.000  C
  C2       1.0000 0.53140  0.43740  0.13260  Biso   1.000  C
  C3       1.0000 0.46860  0.93740  0.36740  Biso   1.000  C
  C4       1.0000 0.46860  0.56260  0.86740  Biso   1.000  C
  C5       1.0000 0.48610  0.95510  0.64050  Biso   1.000  C
  C6       1.0000 0.48610  0.54490  0.14050  Biso   1.000  C
  C7       1.0000 0.51390  0.04490  0.35950  Biso   1.000  C
  C8       1.0000 0.51390  0.45510  0.85950  Biso   1.000  C
  C9       1.0000 0.46460  0.90940  0.70320  Biso   1.000  C
  C10      1.0000 0.46460  0.59060  0.20320  Biso   1.000  C
  C11      1.0000 0.53540  0.09060  0.29680  Biso   1.000  C
  C12      1.0000 0.53540  0.40940  0.79680  Biso   1.000  C
  C13      1.0000 0.41140  0.76000  0.64390  Biso   1.000  C
  C14      1.0000 0.41140  0.74000  0.14390  Biso   1.000  C
  C15      1.0000 0.58860  0.24000  0.35610  Biso   1.000  C
  C16      1.0000 0.58860  0.26000  0.85610  Biso   1.000  C
  C17      1.0000 0.43010  0.80850  0.58000  Biso   1.000  C
  C18      1.0000 0.43010  0.69150  0.08000  Biso   1.000  C
  C19      1.0000 0.56990  0.19150  0.42000  Biso   1.000  C
  C20      1.0000 0.56990  0.30850  0.92000  Biso   1.000  C
  C21      1.0000 0.18610  0.88070  0.83000  Biso   1.000  C
  C22      1.0000 0.18610  0.61930  0.33000  Biso   1.000  C
  C23      1.0000 0.81390  0.11930  0.17000  Biso   1.000  C
  C24      1.0000 0.81390  0.38070  0.67000  Biso   1.000  C
  C25      1.0000 0.12380  0.78590  0.80260  Biso   1.000  C
  C26      1.0000 0.12380  0.71410  0.30260  Biso   1.000  C
  C27      1.0000 0.87620  0.21410  0.19740  Biso   1.000  C
  C28      1.0000 0.87620  0.28590  0.69740  Biso   1.000  C
  C29      1.0000 0.00140  0.77820  0.78900  Biso   1.000  C
  C30      1.0000 0.00140  0.72180  0.28900  Biso   1.000  C
  C31      1.0000 0.99860  0.22180  0.21100  Biso   1.000  C
  C32      1.0000 0.99860  0.27820  0.71100  Biso   1.000  C
  C33      1.0000 0.03730  0.61330  0.74820  Biso   1.000  C
  C34      1.0000 0.03730  0.88670  0.24820  Biso   1.000  C
  C35      1.0000 0.96270  0.38670  0.25180  Biso   1.000  C
  C36      1.0000 0.96270  0.11330  0.75180  Biso   1.000  C
  C37      1.0000 0.16500  0.62070  0.76270  Biso   1.000  C
  C38      1.0000 0.16500  0.87930  0.26270  Biso   1.000  C
  C39      1.0000 0.83500  0.37930  0.23730  Biso   1.000  C
  C40      1.0000 0.83500  0.12070  0.73730  Biso   1.000  C
  C41      1.0000 0.40490  0.10250  0.98520  Biso   1.000  C
  C42      1.0000 0.40490  0.39750  0.48520  Biso   1.000  C
  C43      1.0000 0.59510  0.89750  0.01480  Biso   1.000  C
  C44      1.0000 0.59510  0.60250  0.51480  Biso   1.000  C
  C45      1.0000 0.30710  0.03990  0.02020  Biso   1.000  C
  C46      1.0000 0.30710  0.46010  0.52020  Biso   1.000  C
  C47      1.0000 0.69290  0.96010  0.97980  Biso   1.000  C
  C48      1.0000 0.69290  0.53990  0.47980  Biso   1.000  C
  C49      1.0000 0.30540  0.01200  0.08940  Biso   1.000  C
  C50      1.0000 0.30540  0.48800  0.58940  Biso   1.000  C
  C51      1.0000 0.69460  0.98800  0.91060  Biso   1.000  C
  C52      1.0000 0.69460  0.51200  0.41060  Biso   1.000  C
  C53      1.0000 0.12680  0.91860  0.06970  Biso   1.000  C
  C54      1.0000 0.12680  0.58140  0.56970  Biso   1.000  C
  C55      1.0000 0.87320  0.08140  0.93030  Biso   1.000  C
  C56      1.0000 0.87320  0.41860  0.43030  Biso   1.000  C
  C57      1.0000 0.12730  0.94200  0.99900  Biso   1.000  C
  C58      1.0000 0.12730  0.55800  0.49900  Biso   1.000  C
  C59      1.0000 0.87270  0.05800  0.00100  Biso   1.000  C
  C60      1.0000 0.87270  0.44200  0.50100  Biso   1.000  C
  O1       1.0000 0.10140  0.22410  0.05340  Biso   1.000  O
  O2       1.0000 0.10140  0.27590  0.55340  Biso   1.000  O
  O3       1.0000 0.89860  0.77590  0.94660  Biso   1.000  O
  O4       1.0000 0.89860  0.72410  0.44660  Biso   1.000  O
  O5       1.0000 0.27300  0.34160  0.11910  Biso   1.000  O
  O6       1.0000 0.27300  0.15840  0.61910  Biso   1.000  O
  O7       1.0000 0.72700  0.65840  0.88090  Biso   1.000  O
  O8       1.0000 0.72700  0.84160  0.38090  Biso   1.000  O
  O9       1.0000 0.29450  0.32630  0.82770  Biso   1.000  O
  O10      1.0000 0.29450  0.17370  0.32770  Biso   1.000  O
  O11      1.0000 0.70550  0.67370  0.17230  Biso   1.000  O
  O12      1.0000 0.70550  0.82630  0.67230  Biso   1.000  O
  O13      1.0000 0.12580  0.21120  0.89400  Biso   1.000  O
  O14      1.0000 0.12580  0.28880  0.39400  Biso   1.000  O
  O15      1.0000 0.87420  0.78880  0.10600  Biso   1.000  O
  O16      1.0000 0.87420  0.71120  0.60600  Biso   1.000  O
  O17      1.0000 0.02620  0.41620  0.10190  Biso   1.000  O
  O18      1.0000 0.02620  0.08380  0.60190  Biso   1.000  O
  O19      1.0000 0.97380  0.58380  0.89810  Biso   1.000  O
  O20      1.0000 0.97380  0.91620  0.39810  Biso   1.000  O
  O21      1.0000 0.82710  0.30390  0.04540  Biso   1.000  O
  O22      1.0000 0.82710  0.19610  0.54540  Biso   1.000  O
  O23      1.0000 0.17290  0.69610  0.95460  Biso   1.000  O
  O24      1.0000 0.17290  0.80390  0.45460  Biso   1.000  O
  O25      1.0000 0.84220  0.29580  0.88180  Biso   1.000  O
  O26      1.0000 0.84220  0.20420  0.38180  Biso   1.000  O
  O27      1.0000 0.15780  0.70420  0.11820  Biso   1.000  O
  O28      1.0000 0.15780  0.79580  0.61820  Biso   1.000  O
  O29      1.0000 0.81060  0.47020  0.81020  Biso   1.000  O
  O30      1.0000 0.81060  0.02980  0.31020  Biso   1.000  O
  O31      1.0000 0.18940  0.52980  0.18980  Biso   1.000  O
  O32      1.0000 0.18940  0.97020  0.68980  Biso   1.000  O
  O33      1.0000 0.05130  0.39560  0.83230  Biso   1.000  O
  O34      1.0000 0.05130  0.10440  0.33230  Biso   1.000  O
  O35      1.0000 0.94870  0.60440  0.16770  Biso   1.000  O
  O36      1.0000 0.94870  0.89560  0.66770  Biso   1.000  O
  O37      1.0000 0.26380  0.34210  0.97490  Biso   1.000  O
  O38      1.0000 0.26380  0.15790  0.47490  Biso   1.000  O
  O39      1.0000 0.73620  0.65790  0.02510  Biso   1.000  O
  O40      1.0000 0.73620  0.84210  0.52510  Biso   1.000  O
  O41      1.0000 0.02730  0.40620  0.96850  Biso   1.000  O
  O42      1.0000 0.02730  0.09380  0.46850  Biso   1.000  O
  O43      1.0000 0.97270  0.59380  0.03150  Biso   1.000  O
  O44      1.0000 0.97270  0.90620  0.53150  Biso   1.000  O
  O45      1.0000 0.21100  0.50600  0.90100  Biso   1.000  O
  O46      1.0000 0.21100  0.99400  0.40100  Biso   1.000  O
  O47      1.0000 0.78900  0.49400  0.09900  Biso   1.000  O
  O48      1.0000 0.78900  0.00600  0.59900  Biso   1.000  O
  O49      1.0000 0.19570  0.52320  0.04350  Biso   1.000  O
  O50      1.0000 0.19570  0.97680  0.54350  Biso   1.000  O
  O51      1.0000 0.80430  0.47680  0.95650  Biso   1.000  O
  O52      1.0000 0.80430  0.02320  0.45650  Biso   1.000  O
  O53      1.0000 0.53750  0.79900  0.85220  Biso   1.000  O
  O54      1.0000 0.53750  0.70100  0.35220  Biso   1.000  O
  O55      1.0000 0.46250  0.20100  0.14780  Biso   1.000  O
  O56      1.0000 0.46250  0.29900  0.64780  Biso   1.000  O
  O57      1.0000 0.28880  0.11000  0.78790  Biso   1.000  O
  O58      1.0000 0.28880  0.39000  0.28790  Biso   1.000  O
  O59      1.0000 0.71120  0.89000  0.21210  Biso   1.000  O
  O60      1.0000 0.71120  0.61000  0.71210  Biso   1.000  O
  O61      1.0000 0.53950  0.09880  0.57260  Biso   1.000  O
  O62      1.0000 0.53950  0.40120  0.07260  Biso   1.000  O
  O63      1.0000 0.46050  0.90120  0.42740  Biso   1.000  O
  O64      1.0000 0.46050  0.59880  0.92740  Biso   1.000  O
  O65      1.0000 0.55970  0.10870  0.68780  Biso   1.000  O
  O66      1.0000 0.55970  0.39130  0.18780  Biso   1.000  O
  O67      1.0000 0.44030  0.89130  0.31220  Biso   1.000  O
  O68      1.0000 0.44030  0.60870  0.81220  Biso   1.000  O
  O69      1.0000 0.12320  0.95990  0.84380  Biso   1.000  O
  O70      1.0000 0.12320  0.54010  0.34380  Biso   1.000  O
  O71      1.0000 0.87680  0.04010  0.15620  Biso   1.000  O
  O72      1.0000 0.87680  0.45990  0.65620  Biso   1.000  O
  O73      1.0000 0.30160  0.87770  0.84030  Biso   1.000  O
  O74      1.0000 0.30160  0.62230  0.34030  Biso   1.000  O
  O75      1.0000 0.69840  0.12230  0.15970  Biso   1.000  O
  O76      1.0000 0.69840  0.37770  0.65970  Biso   1.000  O
  O77      1.0000 0.49360  0.13350  0.02180  Biso   1.000  O
  O78      1.0000 0.49360  0.36650  0.52180  Biso   1.000  O
  O79      1.0000 0.50640  0.86650  0.97820  Biso   1.000  O
  O80      1.0000 0.50640  0.63350  0.47820  Biso   1.000  O
  O81      1.0000 0.39250  0.11850  0.92140  Biso   1.000  O
  O82      1.0000 0.39250  0.38150  0.42140  Biso   1.000  O
  O83      1.0000 0.60750  0.88150  0.07860  Biso   1.000  O
  O84      1.0000 0.60750  0.61850  0.57860  Biso   1.000  O
