data_image0
_cell_length_a       10.479
_cell_length_b       10.889
_cell_length_c       15.191
_cell_angle_alpha    90.935
_cell_angle_beta     106.893
_cell_angle_gamma    93.564

_symmetry_space_group_name_H-M    "P 1"
_symmetry_int_tables_number       1

loop_
  _symmetry_equiv_pos_as_xyz
  'x, y, z'

loop_
  _atom_site_label
  _atom_site_occupancy
  _atom_site_fract_x
  _atom_site_fract_y
  _atom_site_fract_z
  _atom_site_thermal_displace_type
  _atom_site_B_iso_or_equiv
  _atom_site_type_symbol
  Cu1      1.0000 0.77175  0.45071  0.52071  Biso   1.000  Cu
  Cu2      1.0000 0.22825  0.54929  0.47929  Biso   1.000  Cu
  Cu3      1.0000 0.69026  0.68118  0.41990  Biso   1.000  Cu
  Cu4      1.0000 0.30974  0.31882  0.58010  Biso   1.000  Cu
  Cu5      1.0000 0.70216  0.00119  0.95672  Biso   1.000  Cu
  Cu6      1.0000 0.29784  0.99881  0.04328  Biso   1.000  Cu
  Cu7      1.0000 0.79806  0.91190  0.14795  Biso   1.000  Cu
  Cu8      1.0000 0.20194  0.08810  0.85205  Biso   1.000  Cu
  N1       1.0000 0.86850  0.31570  0.50200  Biso   1.000  N
  N2       1.0000 0.13150  0.68430  0.49800  Biso   1.000  N
  N3       1.0000 0.69820  0.34390  0.59434  Biso   1.000  N
  N4       1.0000 0.30180  0.65610  0.40566  Biso   1.000  N
  N5       1.0000 0.77100  0.12230  0.89040  Biso   1.000  N
  N6       1.0000 0.22900  0.87770  0.10960  Biso   1.000  N
  N7       1.0000 0.54450  0.98820  0.85656  Biso   1.000  N
  N8       1.0000 0.45550  0.01180  0.14344  Biso   1.000  N
  O1       1.0000 0.81450  0.54840  0.42662  Biso   1.000  O
  O2       1.0000 0.18550  0.45160  0.57338  Biso   1.000  O
  O3       1.0000 0.67790  0.59170  0.52963  Biso   1.000  O
  O4       1.0000 0.32210  0.40830  0.47037  Biso   1.000  O
  O5       1.0000 0.73000  0.73990  0.31124  Biso   1.000  O
  O6       1.0000 0.27000  0.26010  0.68876  Biso   1.000  O
  O7       1.0000 0.80980  0.74650  0.19251  Biso   1.000  O
  O8       1.0000 0.19020  0.25350  0.80749  Biso   1.000  O
  O9       1.0000 0.85320  0.02690  0.06489  Biso   1.000  O
  O10      1.0000 0.14680  0.97310  0.93511  Biso   1.000  O
  O11      1.0000 0.64980  0.87950  0.02999  Biso   1.000  O
  O12      1.0000 0.35020  0.12050  0.97001  Biso   1.000  O
  O13      1.0000 0.95920  0.95810  0.24317  Biso   1.000  O
  O14      1.0000 0.04080  0.04190  0.75683  Biso   1.000  O
  O15      1.0000 0.13480  0.07240  0.32393  Biso   1.000  O
  O16      1.0000 0.86520  0.92760  0.67607  Biso   1.000  O
  O17      1.0000 0.50200  0.28480  0.62339  Biso   1.000  O
  O18      1.0000 0.49800  0.71520  0.37661  Biso   1.000  O
  O19      1.0000 0.31880  0.95740  0.80095  Biso   1.000  O
  O20      1.0000 0.68120  0.04260  0.19905  Biso   1.000  O
  O21      1.0000 0.78280  0.85030  0.49219  Biso   1.000  O
  O22      1.0000 0.21720  0.14970  0.50781  Biso   1.000  O
  C1       1.0000 0.87450  0.51190  0.36500  Biso   1.000  C
  C2       1.0000 0.12550  0.48810  0.63500  Biso   1.000  C
  C3       1.0000 0.87600  0.58350  0.28970  Biso   1.000  C
  C4       1.0000 0.12400  0.41650  0.71030  Biso   1.000  C
  C5       1.0000 0.95190  0.54940  0.23270  Biso   1.000  C
  C6       1.0000 0.04810  0.45060  0.76730  Biso   1.000  C
  H1       1.0000 0.95540  0.59940  0.18430  Biso   1.000  H
  H2       1.0000 0.04460  0.40060  0.81570  Biso   1.000  H
  C7       1.0000 0.02160  0.44550  0.24510  Biso   1.000  C
  C8       1.0000 0.97840  0.55450  0.75490  Biso   1.000  C
  H3       1.0000 0.07310  0.42640  0.20690  Biso   1.000  H
  H4       1.0000 0.92690  0.57360  0.79310  Biso   1.000  H
  C9       1.0000 0.01350  0.37010  0.31540  Biso   1.000  C
  C10      1.0000 0.98650  0.62990  0.68460  Biso   1.000  C
  H5       1.0000 0.05830  0.29810  0.32350  Biso   1.000  H
  H6       1.0000 0.94170  0.70190  0.67650  Biso   1.000  H
  C11      1.0000 0.93900  0.39970  0.37510  Biso   1.000  C
  C12      1.0000 0.06100  0.60030  0.62490  Biso   1.000  C
  C13      1.0000 0.93110  0.30750  0.44150  Biso   1.000  C
  C14      1.0000 0.06890  0.69250  0.55850  Biso   1.000  C
  H7       1.0000 0.97530  0.23630  0.43990  Biso   1.000  H
  H8       1.0000 0.02470  0.76370  0.56010  Biso   1.000  H
  C15      1.0000 0.85720  0.21310  0.56230  Biso   1.000  C
  C16      1.0000 0.14280  0.78690  0.43770  Biso   1.000  C
  H9       1.0000 0.92540  0.22450  0.62120  Biso   1.000  H
  H10      1.0000 0.07460  0.77550  0.37880  Biso   1.000  H
  H11      1.0000 0.86750  0.13530  0.53400  Biso   1.000  H
  H12      1.0000 0.13250  0.86470  0.46600  Biso   1.000  H
  C17      1.0000 0.71860  0.21470  0.57490  Biso   1.000  C
  C18      1.0000 0.28140  0.78530  0.42510  Biso   1.000  C
  H13      1.0000 0.65120  0.18300  0.51950  Biso   1.000  H
  H14      1.0000 0.34880  0.81700  0.48050  Biso   1.000  H
  H15      1.0000 0.71240  0.16410  0.62570  Biso   1.000  H
  H16      1.0000 0.28760  0.83590  0.37430  Biso   1.000  H
  C19      1.0000 0.58830  0.36850  0.61520  Biso   1.000  C
  C20      1.0000 0.41170  0.63150  0.38480  Biso   1.000  C
  C21      1.0000 0.56840  0.50110  0.63480  Biso   1.000  C
  C22      1.0000 0.43160  0.49890  0.36520  Biso   1.000  C
  C23      1.0000 0.49880  0.52250  0.69990  Biso   1.000  C
  C24      1.0000 0.50120  0.47750  0.30010  Biso   1.000  C
  H17      1.0000 0.47600  0.45640  0.73170  Biso   1.000  H
  H18      1.0000 0.52400  0.54360  0.26830  Biso   1.000  H
  C25      1.0000 0.46380  0.63720  0.71780  Biso   1.000  C
  C26      1.0000 0.53620  0.36280  0.28220  Biso   1.000  C
  H19      1.0000 0.41830  0.64880  0.76110  Biso   1.000  H
  H20      1.0000 0.58170  0.35120  0.23890  Biso   1.000  H
  C27      1.0000 0.49690  0.73500  0.67060  Biso   1.000  C
  C28      1.0000 0.50310  0.26500  0.32940  Biso   1.000  C
  H21      1.0000 0.47120  0.81280  0.68110  Biso   1.000  H
  H22      1.0000 0.52880  0.18720  0.31890  Biso   1.000  H
  C29      1.0000 0.56790  0.71940  0.60760  Biso   1.000  C
  C30      1.0000 0.43210  0.28060  0.39240  Biso   1.000  C
  H23      1.0000 0.59040  0.78680  0.57680  Biso   1.000  H
  H24      1.0000 0.40960  0.21320  0.42320  Biso   1.000  H
  C31      1.0000 0.60570  0.60300  0.59030  Biso   1.000  C
  C32      1.0000 0.39430  0.39700  0.40970  Biso   1.000  C
  C33      1.0000 0.80140  0.69810  0.26520  Biso   1.000  C
  C34      1.0000 0.19860  0.30190  0.73480  Biso   1.000  C
  C35      1.0000 0.95960  0.10470  0.07990  Biso   1.000  C
  C36      1.0000 0.04040  0.89530  0.92010  Biso   1.000  C
  C37      1.0000 0.05950  0.11360  0.16620  Biso   1.000  C
  C38      1.0000 0.94050  0.88640  0.83380  Biso   1.000  C
  C39      1.0000 0.17440  0.19070  0.17710  Biso   1.000  C
  C40      1.0000 0.82560  0.80930  0.82290  Biso   1.000  C
  H25      1.0000 0.23990  0.19520  0.23370  Biso   1.000  H
  H26      1.0000 0.76010  0.80480  0.76630  Biso   1.000  H
  C41      1.0000 0.19420  0.26080  0.10690  Biso   1.000  C
  C42      1.0000 0.80580  0.73920  0.89310  Biso   1.000  C
  H27      1.0000 0.27300  0.30980  0.11520  Biso   1.000  H
  H28      1.0000 0.72700  0.69020  0.88480  Biso   1.000  H
  C43      1.0000 0.09560  0.25690  0.02460  Biso   1.000  C
  C44      1.0000 0.90440  0.74310  0.97540  Biso   1.000  C
  H29      1.0000 0.10780  0.30550  0.97760  Biso   1.000  H
  H30      1.0000 0.89220  0.69450  0.02240  Biso   1.000  H
  C45      1.0000 0.97750  0.18250  0.00890  Biso   1.000  C
  C46      1.0000 0.02250  0.81750  0.99110  Biso   1.000  C
  C47      1.0000 0.88150  0.18570  0.91870  Biso   1.000  C
  C48      1.0000 0.11850  0.81430  0.08130  Biso   1.000  C
  H31      1.0000 0.90310  0.23960  0.87750  Biso   1.000  H
  H32      1.0000 0.09690  0.76040  0.12250  Biso   1.000  H
  C49      1.0000 0.68310  0.12870  0.79490  Biso   1.000  C
  C50      1.0000 0.31690  0.87130  0.20510  Biso   1.000  C
  H33      1.0000 0.71320  0.07550  0.75420  Biso   1.000  H
  H34      1.0000 0.28680  0.92450  0.24580  Biso   1.000  H
  H35      1.0000 0.68710  0.21230  0.77430  Biso   1.000  H
  H36      1.0000 0.31290  0.78770  0.22570  Biso   1.000  H
  C51      1.0000 0.53980  0.08800  0.79160  Biso   1.000  C
  C52      1.0000 0.46020  0.91200  0.20840  Biso   1.000  C
  H37      1.0000 0.49630  0.15670  0.80870  Biso   1.000  H
  H38      1.0000 0.50370  0.84330  0.19130  Biso   1.000  H
  H39      1.0000 0.48960  0.05900  0.72980  Biso   1.000  H
  H40      1.0000 0.51040  0.94100  0.27020  Biso   1.000  H
  C53      1.0000 0.43030  0.93150  0.85610  Biso   1.000  C
  C54      1.0000 0.56970  0.06850  0.14390  Biso   1.000  C
  C55      1.0000 0.43060  0.82910  0.92090  Biso   1.000  C
  C56      1.0000 0.56940  0.17090  0.07910  Biso   1.000  C
  C57      1.0000 0.31470  0.74840  0.89840  Biso   1.000  C
  C58      1.0000 0.68530  0.25160  0.10160  Biso   1.000  C
  H41      1.0000 0.24310  0.76510  0.84830  Biso   1.000  H
  H42      1.0000 0.75690  0.23490  0.15170  Biso   1.000  H
  C59      1.0000 0.30330  0.64530  0.94840  Biso   1.000  C
  C60      1.0000 0.69670  0.35470  0.05160  Biso   1.000  C
  H43      1.0000 0.22620  0.59260  0.93130  Biso   1.000  H
  H44      1.0000 0.77380  0.40740  0.06870  Biso   1.000  H
  C61      1.0000 0.40800  0.62190  0.02400  Biso   1.000  C
  C62      1.0000 0.59200  0.37810  0.97600  Biso   1.000  C
  H45      1.0000 0.40080  0.55350  0.05860  Biso   1.000  H
  H46      1.0000 0.59920  0.44650  0.94140  Biso   1.000  H
  C63      1.0000 0.52390  0.69900  0.04890  Biso   1.000  C
  C64      1.0000 0.47610  0.30100  0.95110  Biso   1.000  C
  H47      1.0000 0.59450  0.68060  0.09910  Biso   1.000  H
  H48      1.0000 0.40550  0.31940  0.90090  Biso   1.000  H
  C65      1.0000 0.53610  0.80500  0.99920  Biso   1.000  C
  C66      1.0000 0.46390  0.19500  0.00080  Biso   1.000  C
  C67      1.0000 0.05010  0.04440  0.24980  Biso   1.000  C
  C68      1.0000 0.94990  0.95560  0.75020  Biso   1.000  C
  O23      1.0000 0.83600  0.02350  0.38014  Biso   1.000  O
  O24      1.0000 0.16400  0.97650  0.61986  Biso   1.000  O
