data_image0
_cell_length_a       7.29
_cell_length_b       11.943
_cell_length_c       13.452
_cell_angle_alpha    90
_cell_angle_beta     90
_cell_angle_gamma    90

_symmetry_space_group_name_H-M    "P 1"
_symmetry_int_tables_number       1

loop_
  _symmetry_equiv_pos_as_xyz
  'x, y, z'

loop_
  _atom_site_label
  _atom_site_occupancy
  _atom_site_fract_x
  _atom_site_fract_y
  _atom_site_fract_z
  _atom_site_thermal_displace_type
  _atom_site_B_iso_or_equiv
  _atom_site_type_symbol
  Cu1      1.0000 0.00000  0.50000  0.00000  Biso   1.000  Cu
  Cu2      1.0000 0.50000  0.00000  0.50000  Biso   1.000  Cu
  Cu3      1.0000 0.50000  0.50000  0.50000  Biso   1.000  Cu
  Cu4      1.0000 0.00000  0.00000  0.00000  Biso   1.000  Cu
  O1       1.0000 0.13920  0.25000  0.79620  Biso   1.000  O
  O2       1.0000 0.63920  0.75000  0.70380  Biso   1.000  O
  O3       1.0000 0.36080  0.25000  0.29620  Biso   1.000  O
  O4       1.0000 0.86080  0.75000  0.20380  Biso   1.000  O
  O5       1.0000 0.19900  0.56970  0.08600  Biso   1.000  O
  O6       1.0000 0.69900  0.06970  0.41400  Biso   1.000  O
  O7       1.0000 0.30100  0.56970  0.58600  Biso   1.000  O
  O8       1.0000 0.19900  0.93030  0.08600  Biso   1.000  O
  O9       1.0000 0.80100  0.43030  0.91400  Biso   1.000  O
  O10      1.0000 0.30100  0.93030  0.58600  Biso   1.000  O
  O11      1.0000 0.69900  0.43030  0.41400  Biso   1.000  O
  O12      1.0000 0.80100  0.06970  0.91400  Biso   1.000  O
  C1       1.0000 0.97010  0.34900  0.18720  Biso   1.000  C
  C2       1.0000 0.47010  0.84900  0.31280  Biso   1.000  C
  C3       1.0000 0.52990  0.34900  0.68720  Biso   1.000  C
  C4       1.0000 0.97010  0.15100  0.18720  Biso   1.000  C
  C5       1.0000 0.02990  0.65100  0.81280  Biso   1.000  C
  C6       1.0000 0.52990  0.15100  0.68720  Biso   1.000  C
  C7       1.0000 0.47010  0.65100  0.31280  Biso   1.000  C
  C8       1.0000 0.02990  0.84900  0.81280  Biso   1.000  C
  H1       1.0000 0.95560  0.41660  0.22050  Biso   1.000  H
  H2       1.0000 0.45560  0.91660  0.27950  Biso   1.000  H
  H3       1.0000 0.54440  0.41660  0.72050  Biso   1.000  H
  H4       1.0000 0.95560  0.08340  0.22050  Biso   1.000  H
  H5       1.0000 0.04440  0.58340  0.77950  Biso   1.000  H
  H6       1.0000 0.54440  0.08340  0.72050  Biso   1.000  H
  H7       1.0000 0.45560  0.58340  0.27950  Biso   1.000  H
  H8       1.0000 0.04440  0.91660  0.77950  Biso   1.000  H
  N1       1.0000 0.00780  0.34970  0.08960  Biso   1.000  N
  N2       1.0000 0.50780  0.84970  0.41040  Biso   1.000  N
  N3       1.0000 0.49220  0.34970  0.58960  Biso   1.000  N
  N4       1.0000 0.00780  0.15030  0.08960  Biso   1.000  N
  N5       1.0000 0.99220  0.65030  0.91040  Biso   1.000  N
  N6       1.0000 0.49220  0.15030  0.58960  Biso   1.000  N
  N7       1.0000 0.50780  0.65030  0.41040  Biso   1.000  N
  N8       1.0000 0.99220  0.84970  0.91040  Biso   1.000  N
  C9       1.0000 0.94540  0.25000  0.57310  Biso   1.000  C
  C10      1.0000 0.44540  0.75000  0.92690  Biso   1.000  C
  C11      1.0000 0.55460  0.25000  0.07310  Biso   1.000  C
  C12      1.0000 0.05460  0.75000  0.42690  Biso   1.000  C
  O13      1.0000 0.00980  0.44200  0.64210  Biso   1.000  O
  O14      1.0000 0.50980  0.94200  0.85790  Biso   1.000  O
  O15      1.0000 0.49020  0.44200  0.14210  Biso   1.000  O
  O16      1.0000 0.00980  0.05800  0.64210  Biso   1.000  O
  O17      1.0000 0.99020  0.55800  0.35790  Biso   1.000  O
  O18      1.0000 0.49020  0.05800  0.14210  Biso   1.000  O
  O19      1.0000 0.50980  0.55800  0.85790  Biso   1.000  O
  O20      1.0000 0.99020  0.94200  0.35790  Biso   1.000  O
  O21      1.0000 0.86710  0.25000  0.48930  Biso   1.000  O
  O22      1.0000 0.36710  0.75000  0.01070  Biso   1.000  O
  O23      1.0000 0.63290  0.25000  0.98930  Biso   1.000  O
  O24      1.0000 0.13290  0.75000  0.51070  Biso   1.000  O
  C13      1.0000 0.06890  0.25000  0.71230  Biso   1.000  C
  C14      1.0000 0.56890  0.75000  0.78770  Biso   1.000  C
  C15      1.0000 0.43110  0.25000  0.21230  Biso   1.000  C
  C16      1.0000 0.93110  0.75000  0.28770  Biso   1.000  C
  C17      1.0000 0.00860  0.33600  0.64200  Biso   1.000  C
  C18      1.0000 0.50860  0.83600  0.85800  Biso   1.000  C
  C19      1.0000 0.49140  0.33600  0.14200  Biso   1.000  C
  C20      1.0000 0.00860  0.16400  0.64200  Biso   1.000  C
  C21      1.0000 0.99140  0.66400  0.35800  Biso   1.000  C
  C22      1.0000 0.49140  0.16400  0.14200  Biso   1.000  C
  C23      1.0000 0.50860  0.66400  0.85800  Biso   1.000  C
  C24      1.0000 0.99140  0.83600  0.35800  Biso   1.000  C
  C25      1.0000 0.02620  0.25000  0.04570  Biso   1.000  C
  C26      1.0000 0.52620  0.75000  0.45430  Biso   1.000  C
  C27      1.0000 0.47380  0.25000  0.54570  Biso   1.000  C
  C28      1.0000 0.97380  0.75000  0.95430  Biso   1.000  C
  H9       1.0000 0.05450  0.25000  0.97830  Biso   1.000  H
  H10      1.0000 0.55450  0.75000  0.52170  Biso   1.000  H
  H11      1.0000 0.44550  0.25000  0.47830  Biso   1.000  H
  H12      1.0000 0.94550  0.75000  0.02170  Biso   1.000  H
  O25      1.0000 0.21020  0.43190  0.90900  Biso   1.000  O
  O26      1.0000 0.71020  0.93190  0.59100  Biso   1.000  O
  O27      1.0000 0.28980  0.43190  0.40900  Biso   1.000  O
  O28      1.0000 0.21020  0.06810  0.90900  Biso   1.000  O
  O29      1.0000 0.78980  0.56810  0.09100  Biso   1.000  O
  O30      1.0000 0.28980  0.06810  0.40900  Biso   1.000  O
  O31      1.0000 0.71020  0.56810  0.59100  Biso   1.000  O
  O32      1.0000 0.78980  0.93190  0.09100  Biso   1.000  O
  C29      1.0000 0.95230  0.25000  0.23910  Biso   1.000  C
  C30      1.0000 0.45230  0.75000  0.26090  Biso   1.000  C
  C31      1.0000 0.54770  0.25000  0.73910  Biso   1.000  C
  C32      1.0000 0.04770  0.75000  0.76090  Biso   1.000  C
  H13      1.0000 0.92900  0.25000  0.30700  Biso   1.000  H
  H14      1.0000 0.42900  0.75000  0.19300  Biso   1.000  H
  H15      1.0000 0.57100  0.25000  0.80700  Biso   1.000  H
  H16      1.0000 0.07100  0.75000  0.69300  Biso   1.000  H
  H17      1.0000 0.29050  0.51750  0.10700  Biso   1.000  H
  H18      1.0000 0.79050  0.01750  0.39300  Biso   1.000  H
  H19      1.0000 0.20950  0.51750  0.60700  Biso   1.000  H
  H20      1.0000 0.29050  0.98250  0.10700  Biso   1.000  H
  H21      1.0000 0.70950  0.48250  0.89300  Biso   1.000  H
  H22      1.0000 0.20950  0.98250  0.60700  Biso   1.000  H
  H23      1.0000 0.79050  0.48250  0.39300  Biso   1.000  H
  H24      1.0000 0.70950  0.01750  0.89300  Biso   1.000  H
  H25      1.0000 0.29730  0.48470  0.89710  Biso   1.000  H
  H26      1.0000 0.79730  0.98470  0.60290  Biso   1.000  H
  H27      1.0000 0.20270  0.48470  0.39710  Biso   1.000  H
  H28      1.0000 0.29730  0.01530  0.89710  Biso   1.000  H
  H29      1.0000 0.70270  0.51530  0.10290  Biso   1.000  H
  H30      1.0000 0.20270  0.01530  0.39710  Biso   1.000  H
  H31      1.0000 0.79730  0.51530  0.60290  Biso   1.000  H
  H32      1.0000 0.70270  0.98470  0.10290  Biso   1.000  H
  H33      1.0000 0.25600  0.63770  0.07130  Biso   1.000  H
  H34      1.0000 0.75600  0.13770  0.42870  Biso   1.000  H
  H35      1.0000 0.24400  0.63770  0.57130  Biso   1.000  H
  H36      1.0000 0.25600  0.86230  0.07130  Biso   1.000  H
  H37      1.0000 0.74400  0.36230  0.92870  Biso   1.000  H
  H38      1.0000 0.24400  0.86230  0.57130  Biso   1.000  H
  H39      1.0000 0.75600  0.36230  0.42870  Biso   1.000  H
  H40      1.0000 0.74400  0.13770  0.92870  Biso   1.000  H
  H41      1.0000 0.19630  0.37710  0.85850  Biso   1.000  H
  H42      1.0000 0.69630  0.87710  0.64150  Biso   1.000  H
  H43      1.0000 0.30370  0.37710  0.35850  Biso   1.000  H
  H44      1.0000 0.19630  0.12290  0.85850  Biso   1.000  H
  H45      1.0000 0.80370  0.62290  0.14150  Biso   1.000  H
  H46      1.0000 0.30370  0.12290  0.35850  Biso   1.000  H
  H47      1.0000 0.69630  0.62290  0.64150  Biso   1.000  H
  H48      1.0000 0.80370  0.87710  0.14150  Biso   1.000  H
