data_image0
_cell_length_a       9.2695
_cell_length_b       14.3052
_cell_length_c       9.2715
_cell_angle_alpha    90
_cell_angle_beta     90
_cell_angle_gamma    90

_symmetry_space_group_name_H-M    "P 1"
_symmetry_int_tables_number       1

loop_
  _symmetry_equiv_pos_as_xyz
  'x, y, z'

loop_
  _atom_site_label
  _atom_site_occupancy
  _atom_site_fract_x
  _atom_site_fract_y
  _atom_site_fract_z
  _atom_site_thermal_displace_type
  _atom_site_B_iso_or_equiv
  _atom_site_type_symbol
  Cu1      1.0000 0.72930  0.20200  0.46964  Biso   1.000  Cu
  Cu2      1.0000 0.77070  0.29800  0.96964  Biso   1.000  Cu
  Cu3      1.0000 0.22930  0.29800  0.53036  Biso   1.000  Cu
  Cu4      1.0000 0.27070  0.20200  0.03036  Biso   1.000  Cu
  Cu5      1.0000 0.27070  0.79800  0.53036  Biso   1.000  Cu
  Cu6      1.0000 0.22930  0.70200  0.03036  Biso   1.000  Cu
  Cu7      1.0000 0.77070  0.70200  0.46964  Biso   1.000  Cu
  Cu8      1.0000 0.72930  0.79800  0.96964  Biso   1.000  Cu
  O1       1.0000 0.54030  0.26000  0.49730  Biso   1.000  O
  O2       1.0000 0.95970  0.24000  0.99730  Biso   1.000  O
  O3       1.0000 0.04030  0.24000  0.50270  Biso   1.000  O
  O4       1.0000 0.45970  0.26000  0.00270  Biso   1.000  O
  O5       1.0000 0.45970  0.74000  0.50270  Biso   1.000  O
  O6       1.0000 0.04030  0.76000  0.00270  Biso   1.000  O
  O7       1.0000 0.95970  0.76000  0.49730  Biso   1.000  O
  O8       1.0000 0.54030  0.74000  0.99730  Biso   1.000  O
  O9       1.0000 0.39910  0.37530  0.57000  Biso   1.000  O
  O10      1.0000 0.10090  0.12470  0.07000  Biso   1.000  O
  O11      1.0000 0.89910  0.12470  0.43000  Biso   1.000  O
  O12      1.0000 0.60090  0.37530  0.93000  Biso   1.000  O
  O13      1.0000 0.60090  0.62470  0.43000  Biso   1.000  O
  O14      1.0000 0.89910  0.87530  0.93000  Biso   1.000  O
  O15      1.0000 0.10090  0.87530  0.57000  Biso   1.000  O
  O16      1.0000 0.39910  0.62470  0.07000  Biso   1.000  O
  O17      1.0000 0.78080  0.37024  0.52030  Biso   1.000  O
  O18      1.0000 0.71920  0.12976  0.02030  Biso   1.000  O
  O19      1.0000 0.28080  0.12976  0.47970  Biso   1.000  O
  O20      1.0000 0.21920  0.37024  0.97970  Biso   1.000  O
  O21      1.0000 0.21920  0.62976  0.47970  Biso   1.000  O
  O22      1.0000 0.28080  0.87024  0.97970  Biso   1.000  O
  O23      1.0000 0.71920  0.87024  0.52030  Biso   1.000  O
  O24      1.0000 0.78080  0.62976  0.02030  Biso   1.000  O
  O25      1.0000 0.19380  0.37800  0.36390  Biso   1.000  O
  O26      1.0000 0.30620  0.12200  0.86390  Biso   1.000  O
  O27      1.0000 0.69380  0.12200  0.63610  Biso   1.000  O
  O28      1.0000 0.80620  0.37800  0.13610  Biso   1.000  O
  O29      1.0000 0.80620  0.62200  0.63610  Biso   1.000  O
  O30      1.0000 0.69380  0.87800  0.13610  Biso   1.000  O
  O31      1.0000 0.30620  0.87800  0.36390  Biso   1.000  O
  O32      1.0000 0.19380  0.62200  0.86390  Biso   1.000  O
  O33      1.0000 0.75090  0.26070  0.28070  Biso   1.000  O
  O34      1.0000 0.74910  0.23930  0.78070  Biso   1.000  O
  O35      1.0000 0.25090  0.23930  0.71930  Biso   1.000  O
  O36      1.0000 0.24910  0.26070  0.21930  Biso   1.000  O
  O37      1.0000 0.24910  0.73930  0.71930  Biso   1.000  O
  O38      1.0000 0.25090  0.76070  0.21930  Biso   1.000  O
  O39      1.0000 0.74910  0.76070  0.28070  Biso   1.000  O
  O40      1.0000 0.75090  0.73930  0.78070  Biso   1.000  O
  C1       1.0000 0.52270  0.34160  0.54280  Biso   1.000  C
  C2       1.0000 0.97730  0.15840  0.04280  Biso   1.000  C
  C3       1.0000 0.02270  0.15840  0.45720  Biso   1.000  C
  C4       1.0000 0.47730  0.34160  0.95720  Biso   1.000  C
  C5       1.0000 0.47730  0.65840  0.45720  Biso   1.000  C
  C6       1.0000 0.02270  0.84160  0.95720  Biso   1.000  C
  C7       1.0000 0.97730  0.84160  0.54280  Biso   1.000  C
  C8       1.0000 0.52270  0.65840  0.04280  Biso   1.000  C
  C9       1.0000 0.64890  0.40500  0.57490  Biso   1.000  C
  C10      1.0000 0.85110  0.09500  0.07490  Biso   1.000  C
  C11      1.0000 0.14890  0.09500  0.42510  Biso   1.000  C
  C12      1.0000 0.35110  0.40500  0.92510  Biso   1.000  C
  C13      1.0000 0.35110  0.59500  0.42510  Biso   1.000  C
  C14      1.0000 0.14890  0.90500  0.92510  Biso   1.000  C
  C15      1.0000 0.85110  0.90500  0.57490  Biso   1.000  C
  C16      1.0000 0.64890  0.59500  0.07490  Biso   1.000  C
  H1       1.0000 0.63050  0.46610  0.53320  Biso   1.000  H
  H2       1.0000 0.86950  0.03390  0.03320  Biso   1.000  H
  H3       1.0000 0.13050  0.03390  0.46680  Biso   1.000  H
  H4       1.0000 0.36950  0.46610  0.96680  Biso   1.000  H
  H5       1.0000 0.36950  0.53390  0.46680  Biso   1.000  H
  H6       1.0000 0.13050  0.96610  0.96680  Biso   1.000  H
  H7       1.0000 0.86950  0.96610  0.53320  Biso   1.000  H
  H8       1.0000 0.63050  0.53390  0.03320  Biso   1.000  H
  H9       1.0000 0.65720  0.41280  0.67850  Biso   1.000  H
  H10      1.0000 0.84280  0.08720  0.17850  Biso   1.000  H
  H11      1.0000 0.15720  0.08720  0.32150  Biso   1.000  H
  H12      1.0000 0.34280  0.41280  0.82150  Biso   1.000  H
  H13      1.0000 0.34280  0.58720  0.32150  Biso   1.000  H
  H14      1.0000 0.15720  0.91280  0.82150  Biso   1.000  H
  H15      1.0000 0.84280  0.91280  0.67850  Biso   1.000  H
  H16      1.0000 0.65720  0.58720  0.17850  Biso   1.000  H
  C17      1.0000 0.82340  0.40790  0.38550  Biso   1.000  C
  C18      1.0000 0.67660  0.09210  0.88550  Biso   1.000  C
  C19      1.0000 0.32340  0.09210  0.61450  Biso   1.000  C
  C20      1.0000 0.17660  0.40790  0.11450  Biso   1.000  C
  C21      1.0000 0.17660  0.59210  0.61450  Biso   1.000  C
  C22      1.0000 0.32340  0.90790  0.11450  Biso   1.000  C
  C23      1.0000 0.67660  0.90790  0.38550  Biso   1.000  C
  C24      1.0000 0.82340  0.59210  0.88550  Biso   1.000  C
  H17      1.0000 0.92630  0.42000  0.38740  Biso   1.000  H
  H18      1.0000 0.57370  0.08000  0.88740  Biso   1.000  H
  H19      1.0000 0.42630  0.08000  0.61260  Biso   1.000  H
  H20      1.0000 0.07370  0.42000  0.11260  Biso   1.000  H
  H21      1.0000 0.07370  0.58000  0.61260  Biso   1.000  H
  H22      1.0000 0.42630  0.92000  0.11260  Biso   1.000  H
  H23      1.0000 0.57370  0.92000  0.38740  Biso   1.000  H
  H24      1.0000 0.92630  0.58000  0.88740  Biso   1.000  H
  H25      1.0000 0.77460  0.46720  0.37090  Biso   1.000  H
  H26      1.0000 0.72540  0.03280  0.87090  Biso   1.000  H
  H27      1.0000 0.27460  0.03280  0.62910  Biso   1.000  H
  H28      1.0000 0.22540  0.46720  0.12910  Biso   1.000  H
  H29      1.0000 0.22540  0.53280  0.62910  Biso   1.000  H
  H30      1.0000 0.27460  0.96720  0.12910  Biso   1.000  H
  H31      1.0000 0.72540  0.96720  0.37090  Biso   1.000  H
  H32      1.0000 0.77460  0.53280  0.87090  Biso   1.000  H
  C25      1.0000 0.78950  0.34370  0.25990  Biso   1.000  C
  C26      1.0000 0.71050  0.15630  0.75990  Biso   1.000  C
  C27      1.0000 0.28950  0.15630  0.74010  Biso   1.000  C
  C28      1.0000 0.21050  0.34370  0.24010  Biso   1.000  C
  C29      1.0000 0.21050  0.65630  0.74010  Biso   1.000  C
  C30      1.0000 0.28950  0.84370  0.24010  Biso   1.000  C
  C31      1.0000 0.71050  0.84370  0.25990  Biso   1.000  C
  C32      1.0000 0.78950  0.65630  0.75990  Biso   1.000  C
  O41      1.0000 0.54410  0.10790  0.28980  Biso   1.000  O
  O42      1.0000 0.95590  0.39210  0.78980  Biso   1.000  O
  O43      1.0000 0.04410  0.39210  0.71020  Biso   1.000  O
  O44      1.0000 0.45590  0.10790  0.21020  Biso   1.000  O
  O45      1.0000 0.45590  0.89210  0.71020  Biso   1.000  O
  O46      1.0000 0.04410  0.60790  0.21020  Biso   1.000  O
  O47      1.0000 0.95590  0.60790  0.28980  Biso   1.000  O
  O48      1.0000 0.54410  0.89210  0.78980  Biso   1.000  O
  H33      1.0000 0.54270  0.15260  0.35030  Biso   1.000  H
  H34      1.0000 0.95730  0.34740  0.85030  Biso   1.000  H
  H35      1.0000 0.04270  0.34740  0.64970  Biso   1.000  H
  H36      1.0000 0.45730  0.15260  0.14970  Biso   1.000  H
  H37      1.0000 0.45730  0.84740  0.64970  Biso   1.000  H
  H38      1.0000 0.04270  0.65260  0.14970  Biso   1.000  H
  H39      1.0000 0.95730  0.65260  0.35030  Biso   1.000  H
  H40      1.0000 0.54270  0.84740  0.85030  Biso   1.000  H
  H41      1.0000 0.58100  0.13310  0.21540  Biso   1.000  H
  H42      1.0000 0.91900  0.36690  0.71540  Biso   1.000  H
  H43      1.0000 0.08100  0.36690  0.78460  Biso   1.000  H
  H44      1.0000 0.41900  0.13310  0.28460  Biso   1.000  H
  H45      1.0000 0.41900  0.86690  0.78460  Biso   1.000  H
  H46      1.0000 0.08100  0.63310  0.28460  Biso   1.000  H
  H47      1.0000 0.91900  0.63310  0.21540  Biso   1.000  H
  H48      1.0000 0.58100  0.86690  0.71540  Biso   1.000  H
