data_image0
_cell_length_a       9.252
_cell_length_b       14.2637
_cell_length_c       9.25586
_cell_angle_alpha    90
_cell_angle_beta     90
_cell_angle_gamma    90

_symmetry_space_group_name_H-M    "P 1"
_symmetry_int_tables_number       1

loop_
  _symmetry_equiv_pos_as_xyz
  'x, y, z'

loop_
  _atom_site_label
  _atom_site_occupancy
  _atom_site_fract_x
  _atom_site_fract_y
  _atom_site_fract_z
  _atom_site_thermal_displace_type
  _atom_site_B_iso_or_equiv
  _atom_site_type_symbol
  Cu1      1.0000 0.72902  0.20087  0.47077  Biso   1.000  Cu
  Cu2      1.0000 0.77098  0.29913  0.97077  Biso   1.000  Cu
  Cu3      1.0000 0.22902  0.29913  0.52923  Biso   1.000  Cu
  Cu4      1.0000 0.27098  0.20087  0.02923  Biso   1.000  Cu
  Cu5      1.0000 0.27098  0.79913  0.52923  Biso   1.000  Cu
  Cu6      1.0000 0.22902  0.70087  0.02923  Biso   1.000  Cu
  Cu7      1.0000 0.77098  0.70087  0.47077  Biso   1.000  Cu
  Cu8      1.0000 0.72902  0.79913  0.97077  Biso   1.000  Cu
  O1       1.0000 0.54050  0.26003  0.49900  Biso   1.000  O
  O2       1.0000 0.95950  0.23997  0.99900  Biso   1.000  O
  O3       1.0000 0.04050  0.23997  0.50100  Biso   1.000  O
  O4       1.0000 0.45950  0.26003  0.00100  Biso   1.000  O
  O5       1.0000 0.45950  0.73997  0.50100  Biso   1.000  O
  O6       1.0000 0.04050  0.76003  0.00100  Biso   1.000  O
  O7       1.0000 0.95950  0.76003  0.49900  Biso   1.000  O
  O8       1.0000 0.54050  0.73997  0.99900  Biso   1.000  O
  O9       1.0000 0.39890  0.37708  0.56910  Biso   1.000  O
  O10      1.0000 0.10110  0.12292  0.06910  Biso   1.000  O
  O11      1.0000 0.89890  0.12292  0.43090  Biso   1.000  O
  O12      1.0000 0.60110  0.37708  0.93090  Biso   1.000  O
  O13      1.0000 0.60110  0.62292  0.43090  Biso   1.000  O
  O14      1.0000 0.89890  0.87708  0.93090  Biso   1.000  O
  O15      1.0000 0.10110  0.87708  0.56910  Biso   1.000  O
  O16      1.0000 0.39890  0.62292  0.06910  Biso   1.000  O
  O17      1.0000 0.78330  0.36943  0.52370  Biso   1.000  O
  O18      1.0000 0.71670  0.13057  0.02370  Biso   1.000  O
  O19      1.0000 0.28330  0.13057  0.47630  Biso   1.000  O
  O20      1.0000 0.21670  0.36943  0.97630  Biso   1.000  O
  O21      1.0000 0.21670  0.63057  0.47630  Biso   1.000  O
  O22      1.0000 0.28330  0.86943  0.97630  Biso   1.000  O
  O23      1.0000 0.71670  0.86943  0.52370  Biso   1.000  O
  O24      1.0000 0.78330  0.63057  0.02370  Biso   1.000  O
  O25      1.0000 0.30710  0.12044  0.86210  Biso   1.000  O
  O26      1.0000 0.19290  0.37956  0.36210  Biso   1.000  O
  O27      1.0000 0.80710  0.37956  0.13790  Biso   1.000  O
  O28      1.0000 0.69290  0.12044  0.63790  Biso   1.000  O
  O29      1.0000 0.69290  0.87956  0.13790  Biso   1.000  O
  O30      1.0000 0.80710  0.62044  0.63790  Biso   1.000  O
  O31      1.0000 0.19290  0.62044  0.86210  Biso   1.000  O
  O32      1.0000 0.30710  0.87956  0.36210  Biso   1.000  O
  O33      1.0000 0.75180  0.26068  0.28190  Biso   1.000  O
  O34      1.0000 0.74820  0.23932  0.78190  Biso   1.000  O
  O35      1.0000 0.25180  0.23932  0.71810  Biso   1.000  O
  O36      1.0000 0.24820  0.26068  0.21810  Biso   1.000  O
  O37      1.0000 0.24820  0.73932  0.71810  Biso   1.000  O
  O38      1.0000 0.25180  0.76068  0.21810  Biso   1.000  O
  O39      1.0000 0.74820  0.76068  0.28190  Biso   1.000  O
  O40      1.0000 0.75180  0.73932  0.78190  Biso   1.000  O
  O41      1.0000 0.55260  0.10980  0.30040  Biso   1.000  O
  O42      1.0000 0.94740  0.39020  0.80040  Biso   1.000  O
  O43      1.0000 0.05260  0.39020  0.69960  Biso   1.000  O
  O44      1.0000 0.44740  0.10980  0.19960  Biso   1.000  O
  O45      1.0000 0.44740  0.89020  0.69960  Biso   1.000  O
  O46      1.0000 0.05260  0.60980  0.19960  Biso   1.000  O
  O47      1.0000 0.94740  0.60980  0.30040  Biso   1.000  O
  O48      1.0000 0.55260  0.89020  0.80040  Biso   1.000  O
  H1       1.0000 0.45830  0.13700  0.29600  Biso   1.000  H
  H2       1.0000 0.04170  0.36300  0.79600  Biso   1.000  H
  H3       1.0000 0.95830  0.36300  0.70400  Biso   1.000  H
  H4       1.0000 0.54170  0.13700  0.20400  Biso   1.000  H
  H5       1.0000 0.54170  0.86300  0.70400  Biso   1.000  H
  H6       1.0000 0.95830  0.63700  0.20400  Biso   1.000  H
  H7       1.0000 0.04170  0.63700  0.29600  Biso   1.000  H
  H8       1.0000 0.45830  0.86300  0.79600  Biso   1.000  H
  H9       1.0000 0.58800  0.10200  0.20470  Biso   1.000  H
  H10      1.0000 0.91200  0.39800  0.70470  Biso   1.000  H
  H11      1.0000 0.08800  0.39800  0.79530  Biso   1.000  H
  H12      1.0000 0.41200  0.10200  0.29530  Biso   1.000  H
  H13      1.0000 0.41200  0.89800  0.79530  Biso   1.000  H
  H14      1.0000 0.08800  0.60200  0.29530  Biso   1.000  H
  H15      1.0000 0.91200  0.60200  0.20470  Biso   1.000  H
  H16      1.0000 0.58800  0.89800  0.70470  Biso   1.000  H
  C1       1.0000 0.52240  0.34233  0.54510  Biso   1.000  C
  C2       1.0000 0.97760  0.15767  0.04510  Biso   1.000  C
  C3       1.0000 0.02240  0.15767  0.45490  Biso   1.000  C
  C4       1.0000 0.47760  0.34233  0.95490  Biso   1.000  C
  C5       1.0000 0.47760  0.65767  0.45490  Biso   1.000  C
  C6       1.0000 0.02240  0.84233  0.95490  Biso   1.000  C
  C7       1.0000 0.97760  0.84233  0.54510  Biso   1.000  C
  C8       1.0000 0.52240  0.65767  0.04510  Biso   1.000  C
  C9       1.0000 0.65010  0.40514  0.57730  Biso   1.000  C
  C10      1.0000 0.84990  0.09486  0.07730  Biso   1.000  C
  C11      1.0000 0.15010  0.09486  0.42270  Biso   1.000  C
  C12      1.0000 0.34990  0.40514  0.92270  Biso   1.000  C
  C13      1.0000 0.34990  0.59486  0.42270  Biso   1.000  C
  C14      1.0000 0.15010  0.90514  0.92270  Biso   1.000  C
  C15      1.0000 0.84990  0.90514  0.57730  Biso   1.000  C
  C16      1.0000 0.65010  0.59486  0.07730  Biso   1.000  C
  H17      1.0000 0.63240  0.46760  0.53410  Biso   1.000  H
  H18      1.0000 0.86760  0.03240  0.03410  Biso   1.000  H
  H19      1.0000 0.13240  0.03240  0.46590  Biso   1.000  H
  H20      1.0000 0.36760  0.46760  0.96590  Biso   1.000  H
  H21      1.0000 0.36760  0.53240  0.46590  Biso   1.000  H
  H22      1.0000 0.13240  0.96760  0.96590  Biso   1.000  H
  H23      1.0000 0.86760  0.96760  0.53410  Biso   1.000  H
  H24      1.0000 0.63240  0.53240  0.03410  Biso   1.000  H
  H25      1.0000 0.65800  0.41350  0.68320  Biso   1.000  H
  H26      1.0000 0.84200  0.08650  0.18320  Biso   1.000  H
  H27      1.0000 0.15800  0.08650  0.31680  Biso   1.000  H
  H28      1.0000 0.34200  0.41350  0.81680  Biso   1.000  H
  H29      1.0000 0.34200  0.58650  0.31680  Biso   1.000  H
  H30      1.0000 0.15800  0.91350  0.81680  Biso   1.000  H
  H31      1.0000 0.84200  0.91350  0.68320  Biso   1.000  H
  H32      1.0000 0.65800  0.58650  0.18320  Biso   1.000  H
  C17      1.0000 0.82740  0.40766  0.38830  Biso   1.000  C
  C18      1.0000 0.67260  0.09234  0.88830  Biso   1.000  C
  C19      1.0000 0.32740  0.09234  0.61170  Biso   1.000  C
  C20      1.0000 0.17260  0.40766  0.11170  Biso   1.000  C
  C21      1.0000 0.17260  0.59234  0.61170  Biso   1.000  C
  C22      1.0000 0.32740  0.90766  0.11170  Biso   1.000  C
  C23      1.0000 0.67260  0.90766  0.38830  Biso   1.000  C
  C24      1.0000 0.82740  0.59234  0.88830  Biso   1.000  C
  H33      1.0000 0.93290  0.41880  0.39040  Biso   1.000  H
  H34      1.0000 0.56710  0.08120  0.89040  Biso   1.000  H
  H35      1.0000 0.43290  0.08120  0.60960  Biso   1.000  H
  H36      1.0000 0.06710  0.41880  0.10960  Biso   1.000  H
  H37      1.0000 0.06710  0.58120  0.60960  Biso   1.000  H
  H38      1.0000 0.43290  0.91880  0.10960  Biso   1.000  H
  H39      1.0000 0.56710  0.91880  0.39040  Biso   1.000  H
  H40      1.0000 0.93290  0.58120  0.89040  Biso   1.000  H
  H41      1.0000 0.77910  0.46890  0.37400  Biso   1.000  H
  H42      1.0000 0.72090  0.03110  0.87400  Biso   1.000  H
  H43      1.0000 0.27910  0.03110  0.62600  Biso   1.000  H
  H44      1.0000 0.22090  0.46890  0.12600  Biso   1.000  H
  H45      1.0000 0.22090  0.53110  0.62600  Biso   1.000  H
  H46      1.0000 0.27910  0.96890  0.12600  Biso   1.000  H
  H47      1.0000 0.72090  0.96890  0.37400  Biso   1.000  H
  H48      1.0000 0.77910  0.53110  0.87400  Biso   1.000  H
  C25      1.0000 0.79190  0.34429  0.26190  Biso   1.000  C
  C26      1.0000 0.70810  0.15571  0.76190  Biso   1.000  C
  C27      1.0000 0.29190  0.15571  0.73810  Biso   1.000  C
  C28      1.0000 0.20810  0.34429  0.23810  Biso   1.000  C
  C29      1.0000 0.20810  0.65571  0.73810  Biso   1.000  C
  C30      1.0000 0.29190  0.84429  0.23810  Biso   1.000  C
  C31      1.0000 0.70810  0.84429  0.26190  Biso   1.000  C
  C32      1.0000 0.79190  0.65571  0.76190  Biso   1.000  C
