data_image0
_cell_length_a       9.263
_cell_length_b       14.283
_cell_length_c       9.283
_cell_angle_alpha    90
_cell_angle_beta     90
_cell_angle_gamma    90

_symmetry_space_group_name_H-M    "P 1"
_symmetry_int_tables_number       1

loop_
  _symmetry_equiv_pos_as_xyz
  'x, y, z'

loop_
  _atom_site_label
  _atom_site_occupancy
  _atom_site_fract_x
  _atom_site_fract_y
  _atom_site_fract_z
  _atom_site_thermal_displace_type
  _atom_site_B_iso_or_equiv
  _atom_site_type_symbol
  Cu1      1.0000 0.27070  0.29800  0.47070  Biso   1.000  Cu
  Cu2      1.0000 0.22930  0.79800  0.47070  Biso   1.000  Cu
  Cu3      1.0000 0.27070  0.70200  0.97070  Biso   1.000  Cu
  Cu4      1.0000 0.22930  0.20200  0.97070  Biso   1.000  Cu
  Cu5      1.0000 0.72930  0.70200  0.52930  Biso   1.000  Cu
  Cu6      1.0000 0.77070  0.20200  0.52930  Biso   1.000  Cu
  Cu7      1.0000 0.72930  0.29800  0.02930  Biso   1.000  Cu
  Cu8      1.0000 0.77070  0.79800  0.02930  Biso   1.000  Cu
  C1       1.0000 0.20960  0.15660  0.26160  Biso   1.000  C
  C2       1.0000 0.29040  0.65660  0.26160  Biso   1.000  C
  C3       1.0000 0.20960  0.84340  0.76160  Biso   1.000  C
  C4       1.0000 0.29040  0.34340  0.76160  Biso   1.000  C
  C5       1.0000 0.79040  0.84340  0.73840  Biso   1.000  C
  C6       1.0000 0.70960  0.34340  0.73840  Biso   1.000  C
  C7       1.0000 0.79040  0.15660  0.23840  Biso   1.000  C
  C8       1.0000 0.70960  0.65660  0.23840  Biso   1.000  C
  C9       1.0000 0.17700  0.09250  0.38590  Biso   1.000  C
  C10      1.0000 0.32300  0.59250  0.38590  Biso   1.000  C
  C11      1.0000 0.17700  0.90750  0.88590  Biso   1.000  C
  C12      1.0000 0.32300  0.40750  0.88590  Biso   1.000  C
  C13      1.0000 0.82300  0.90750  0.61410  Biso   1.000  C
  C14      1.0000 0.67700  0.40750  0.61410  Biso   1.000  C
  C15      1.0000 0.82300  0.09250  0.11410  Biso   1.000  C
  C16      1.0000 0.67700  0.59250  0.11410  Biso   1.000  C
  C17      1.0000 0.35450  0.09470  0.57180  Biso   1.000  C
  C18      1.0000 0.14550  0.59470  0.57180  Biso   1.000  C
  C19      1.0000 0.35450  0.90530  0.07180  Biso   1.000  C
  C20      1.0000 0.14550  0.40530  0.07180  Biso   1.000  C
  C21      1.0000 0.64550  0.90530  0.42820  Biso   1.000  C
  C22      1.0000 0.85450  0.40530  0.42820  Biso   1.000  C
  C23      1.0000 0.64550  0.09470  0.92820  Biso   1.000  C
  C24      1.0000 0.85450  0.59470  0.92820  Biso   1.000  C
  C25      1.0000 0.47680  0.15880  0.54180  Biso   1.000  C
  C26      1.0000 0.02320  0.65880  0.54180  Biso   1.000  C
  C27      1.0000 0.47680  0.84120  0.04180  Biso   1.000  C
  C28      1.0000 0.02320  0.34120  0.04180  Biso   1.000  C
  C29      1.0000 0.52320  0.84120  0.45820  Biso   1.000  C
  C30      1.0000 0.97680  0.34120  0.45820  Biso   1.000  C
  C31      1.0000 0.52320  0.15880  0.95820  Biso   1.000  C
  C32      1.0000 0.97680  0.65880  0.95820  Biso   1.000  C
  H1       1.0000 0.07000  0.08000  0.39000  Biso   1.000  H
  H2       1.0000 0.43000  0.58000  0.39000  Biso   1.000  H
  H3       1.0000 0.07000  0.92000  0.89000  Biso   1.000  H
  H4       1.0000 0.43000  0.42000  0.89000  Biso   1.000  H
  H5       1.0000 0.93000  0.92000  0.61000  Biso   1.000  H
  H6       1.0000 0.57000  0.42000  0.61000  Biso   1.000  H
  H7       1.0000 0.93000  0.08000  0.11000  Biso   1.000  H
  H8       1.0000 0.57000  0.58000  0.11000  Biso   1.000  H
  H9       1.0000 0.22900  0.03200  0.37100  Biso   1.000  H
  H10      1.0000 0.27100  0.53200  0.37100  Biso   1.000  H
  H11      1.0000 0.22900  0.96800  0.87100  Biso   1.000  H
  H12      1.0000 0.27100  0.46800  0.87100  Biso   1.000  H
  H13      1.0000 0.77100  0.96800  0.62900  Biso   1.000  H
  H14      1.0000 0.72900  0.46800  0.62900  Biso   1.000  H
  H15      1.0000 0.77100  0.03200  0.12900  Biso   1.000  H
  H16      1.0000 0.72900  0.53200  0.12900  Biso   1.000  H
  H17      1.0000 0.37400  0.03100  0.52300  Biso   1.000  H
  H18      1.0000 0.12600  0.53100  0.52300  Biso   1.000  H
  H19      1.0000 0.37400  0.96900  0.02300  Biso   1.000  H
  H20      1.0000 0.12600  0.46900  0.02300  Biso   1.000  H
  H21      1.0000 0.62600  0.96900  0.47700  Biso   1.000  H
  H22      1.0000 0.87400  0.46900  0.47700  Biso   1.000  H
  H23      1.0000 0.62600  0.03100  0.97700  Biso   1.000  H
  H24      1.0000 0.87400  0.53100  0.97700  Biso   1.000  H
  H25      1.0000 0.34600  0.08200  0.67800  Biso   1.000  H
  H26      1.0000 0.15400  0.58200  0.67800  Biso   1.000  H
  H27      1.0000 0.34600  0.91800  0.17800  Biso   1.000  H
  H28      1.0000 0.15400  0.41800  0.17800  Biso   1.000  H
  H29      1.0000 0.65400  0.91800  0.32200  Biso   1.000  H
  H30      1.0000 0.84600  0.41800  0.32200  Biso   1.000  H
  H31      1.0000 0.65400  0.08200  0.82200  Biso   1.000  H
  H32      1.0000 0.84600  0.58200  0.82200  Biso   1.000  H
  O1       1.0000 0.24890  0.23920  0.28270  Biso   1.000  O
  O2       1.0000 0.25110  0.73920  0.28270  Biso   1.000  O
  O3       1.0000 0.24890  0.76080  0.78270  Biso   1.000  O
  O4       1.0000 0.25110  0.26080  0.78270  Biso   1.000  O
  O5       1.0000 0.75110  0.76080  0.71730  Biso   1.000  O
  O6       1.0000 0.74890  0.26080  0.71730  Biso   1.000  O
  O7       1.0000 0.75110  0.23920  0.21730  Biso   1.000  O
  O8       1.0000 0.74890  0.73920  0.21730  Biso   1.000  O
  O9       1.0000 0.30570  0.37710  0.63710  Biso   1.000  O
  O10      1.0000 0.19430  0.87710  0.63710  Biso   1.000  O
  O11      1.0000 0.30570  0.62290  0.13710  Biso   1.000  O
  O12      1.0000 0.19430  0.12290  0.13710  Biso   1.000  O
  O13      1.0000 0.69430  0.62290  0.36290  Biso   1.000  O
  O14      1.0000 0.80570  0.12290  0.36290  Biso   1.000  O
  O15      1.0000 0.69430  0.37710  0.86290  Biso   1.000  O
  O16      1.0000 0.80570  0.87710  0.86290  Biso   1.000  O
  O17      1.0000 0.21850  0.12990  0.51790  Biso   1.000  O
  O18      1.0000 0.28150  0.62990  0.51790  Biso   1.000  O
  O19      1.0000 0.21850  0.87010  0.01790  Biso   1.000  O
  O20      1.0000 0.28150  0.37010  0.01790  Biso   1.000  O
  O21      1.0000 0.78150  0.87010  0.48210  Biso   1.000  O
  O22      1.0000 0.71850  0.37010  0.48210  Biso   1.000  O
  O23      1.0000 0.78150  0.12990  0.98210  Biso   1.000  O
  O24      1.0000 0.71850  0.62990  0.98210  Biso   1.000  O
  O25      1.0000 0.45840  0.23970  0.49870  Biso   1.000  O
  O26      1.0000 0.04160  0.73970  0.49870  Biso   1.000  O
  O27      1.0000 0.45840  0.76030  0.99870  Biso   1.000  O
  O28      1.0000 0.04160  0.26030  0.99870  Biso   1.000  O
  O29      1.0000 0.54160  0.76030  0.50130  Biso   1.000  O
  O30      1.0000 0.95840  0.26030  0.50130  Biso   1.000  O
  O31      1.0000 0.54160  0.23970  0.00130  Biso   1.000  O
  O32      1.0000 0.95840  0.73970  0.00130  Biso   1.000  O
  O33      1.0000 0.10050  0.37480  0.43330  Biso   1.000  O
  O34      1.0000 0.39950  0.87480  0.43330  Biso   1.000  O
  O35      1.0000 0.10050  0.62520  0.93330  Biso   1.000  O
  O36      1.0000 0.39950  0.12520  0.93330  Biso   1.000  O
  O37      1.0000 0.89950  0.62520  0.56670  Biso   1.000  O
  O38      1.0000 0.60050  0.12520  0.56670  Biso   1.000  O
  O39      1.0000 0.89950  0.37480  0.06670  Biso   1.000  O
  O40      1.0000 0.60050  0.87480  0.06670  Biso   1.000  O
  O41      1.0000 0.45400  0.39200  0.29100  Biso   1.000  O
  O42      1.0000 0.04600  0.89200  0.29100  Biso   1.000  O
  O43      1.0000 0.45400  0.60800  0.79100  Biso   1.000  O
  O44      1.0000 0.04600  0.10800  0.79100  Biso   1.000  O
  O45      1.0000 0.54600  0.60800  0.70900  Biso   1.000  O
  O46      1.0000 0.95400  0.10800  0.70900  Biso   1.000  O
  O47      1.0000 0.54600  0.39200  0.20900  Biso   1.000  O
  O48      1.0000 0.95400  0.89200  0.20900  Biso   1.000  O
