data_image0
_cell_length_a       15.902
_cell_length_b       17.008
_cell_length_c       21.996
_cell_angle_alpha    109.085
_cell_angle_beta     91.877
_cell_angle_gamma    116.748

_symmetry_space_group_name_H-M    "P 1"
_symmetry_int_tables_number       1

loop_
  _symmetry_equiv_pos_as_xyz
  'x, y, z'

loop_
  _atom_site_label
  _atom_site_occupancy
  _atom_site_fract_x
  _atom_site_fract_y
  _atom_site_fract_z
  _atom_site_thermal_displace_type
  _atom_site_B_iso_or_equiv
  _atom_site_type_symbol
  Cu1      1.0000 0.39944  0.59847  0.23170  Biso   1.000  Cu
  Cu2      1.0000 0.60056  0.40153  0.76830  Biso   1.000  Cu
  O1       1.0000 0.42405  0.48457  0.22037  Biso   1.000  O
  O2       1.0000 0.57595  0.51543  0.77963  Biso   1.000  O
  H1       1.0000 0.46060  0.48650  0.25030  Biso   1.000  H
  H2       1.0000 0.53940  0.51350  0.74970  Biso   1.000  H
  H3       1.0000 0.41800  0.44100  0.18650  Biso   1.000  H
  H4       1.0000 0.58200  0.55900  0.81350  Biso   1.000  H
  Cu3      1.0000 0.37055  0.74723  0.25653  Biso   1.000  Cu
  Cu4      1.0000 0.62945  0.25277  0.74347  Biso   1.000  Cu
  O3       1.0000 0.35895  0.87000  0.26868  Biso   1.000  O
  O4       1.0000 0.64105  0.13000  0.73132  Biso   1.000  O
  H5       1.0000 0.31400  0.86000  0.24410  Biso   1.000  H
  H6       1.0000 0.68600  0.14000  0.75590  Biso   1.000  H
  H7       1.0000 0.36200  0.90320  0.30330  Biso   1.000  H
  H8       1.0000 0.63800  0.09680  0.69670  Biso   1.000  H
  O5       1.0000 0.29156  0.70097  0.31733  Biso   1.000  O
  O6       1.0000 0.70844  0.29903  0.68267  Biso   1.000  O
  O7       1.0000 0.32259  0.57893  0.29791  Biso   1.000  O
  O8       1.0000 0.67741  0.42107  0.70209  Biso   1.000  O
  O9       1.0000 0.47977  0.30603  0.69827  Biso   1.000  O
  O10      1.0000 0.52023  0.69397  0.30173  Biso   1.000  O
  O11      1.0000 0.51650  0.18812  0.66953  Biso   1.000  O
  O12      1.0000 0.48350  0.81188  0.33047  Biso   1.000  O
  O13      1.0000 0.26689  0.66220  0.17817  Biso   1.000  O
  O14      1.0000 0.73311  0.33780  0.82183  Biso   1.000  O
  O15      1.0000 0.28592  0.53327  0.15795  Biso   1.000  O
  O16      1.0000 0.71408  0.46673  0.84205  Biso   1.000  O
  O17      1.0000 0.51897  0.35251  0.82720  Biso   1.000  O
  O18      1.0000 0.48103  0.64749  0.17280  Biso   1.000  O
  O19      1.0000 0.53098  0.21911  0.79844  Biso   1.000  O
  O20      1.0000 0.46902  0.78089  0.20156  Biso   1.000  O
  C1       1.0000 0.19795  0.64320  0.52346  Biso   1.000  C
  C2       1.0000 0.80205  0.35680  0.47654  Biso   1.000  C
  C3       1.0000 0.29715  0.65690  0.54331  Biso   1.000  C
  C4       1.0000 0.70285  0.34310  0.45669  Biso   1.000  C
  H9       1.0000 0.29130  0.59790  0.54400  Biso   1.000  H
  H10      1.0000 0.70870  0.40210  0.45600  Biso   1.000  H
  H11      1.0000 0.33500  0.67280  0.51120  Biso   1.000  H
  H12      1.0000 0.66500  0.32720  0.48880  Biso   1.000  H
  C5       1.0000 0.34799  0.73554  0.61056  Biso   1.000  C
  C6       1.0000 0.65201  0.26446  0.38944  Biso   1.000  C
  C7       1.0000 0.37328  0.71937  0.66455  Biso   1.000  C
  C8       1.0000 0.62672  0.28063  0.33545  Biso   1.000  C
  H13      1.0000 0.36370  0.65940  0.66000  Biso   1.000  H
  H14      1.0000 0.63630  0.34060  0.34000  Biso   1.000  H
  C9       1.0000 0.41301  0.79430  0.72519  Biso   1.000  C
  C10      1.0000 0.58699  0.20570  0.27481  Biso   1.000  C
  C11      1.0000 0.42701  0.88389  0.73502  Biso   1.000  C
  C12      1.0000 0.57299  0.11611  0.26498  Biso   1.000  C
  H15      1.0000 0.45370  0.93210  0.77680  Biso   1.000  H
  H16      1.0000 0.54630  0.06790  0.22320  Biso   1.000  H
  C13      1.0000 0.40111  0.90186  0.68231  Biso   1.000  C
  C14      1.0000 0.59889  0.09814  0.31769  Biso   1.000  C
  C15      1.0000 0.40154  0.99388  0.69304  Biso   1.000  C
  C16      1.0000 0.59846  0.00612  0.30696  Biso   1.000  C
  H17      1.0000 0.43880  0.02290  0.66480  Biso   1.000  H
  H18      1.0000 0.56120  0.97710  0.33520  Biso   1.000  H
  H19      1.0000 0.43190  0.03750  0.73840  Biso   1.000  H
  H20      1.0000 0.56810  0.96250  0.26160  Biso   1.000  H
  C17      1.0000 0.29973  0.97696  0.67797  Biso   1.000  C
  C18      1.0000 0.70027  0.02304  0.32203  Biso   1.000  C
  C19      1.0000 0.23171  0.92634  0.70850  Biso   1.000  C
  C20      1.0000 0.76829  0.07366  0.29150  Biso   1.000  C
  H21      1.0000 0.25000  0.90740  0.73940  Biso   1.000  H
  H22      1.0000 0.75000  0.09260  0.26060  Biso   1.000  H
  C21      1.0000 0.13757  0.90479  0.69242  Biso   1.000  C
  C22      1.0000 0.86243  0.09521  0.30758  Biso   1.000  C
  C23      1.0000 0.10553  0.92843  0.64503  Biso   1.000  C
  C24      1.0000 0.89447  0.07157  0.35497  Biso   1.000  C
  H23      1.0000 0.04070  0.91020  0.63390  Biso   1.000  H
  H24      1.0000 0.95930  0.08980  0.36610  Biso   1.000  H
  C25      1.0000 0.17207  0.97970  0.61466  Biso   1.000  C
  C26      1.0000 0.82793  0.02030  0.38534  Biso   1.000  C
  C27      1.0000 0.13602  0.99919  0.55932  Biso   1.000  C
  C28      1.0000 0.86398  0.00081  0.44068  Biso   1.000  C
  H25      1.0000 0.10780  0.03980  0.57650  Biso   1.000  H
  H26      1.0000 0.89220  0.96020  0.42350  Biso   1.000  H
  H27      1.0000 0.18960  0.03220  0.54110  Biso   1.000  H
  H28      1.0000 0.81040  0.96780  0.45890  Biso   1.000  H
  C29      1.0000 0.06129  0.90622  0.50577  Biso   1.000  C
  C30      1.0000 0.93871  0.09378  0.49423  Biso   1.000  C
  C31      1.0000 0.96369  0.87780  0.49790  Biso   1.000  C
  C32      1.0000 0.03631  0.12220  0.50210  Biso   1.000  C
  H29      1.0000 0.94220  0.91730  0.52400  Biso   1.000  H
  H30      1.0000 0.05780  0.08270  0.47600  Biso   1.000  H
  C33      1.0000 0.89858  0.78919  0.45035  Biso   1.000  C
  C34      1.0000 0.10142  0.21081  0.54965  Biso   1.000  C
  C35      1.0000 0.92664  0.72509  0.41472  Biso   1.000  C
  C36      1.0000 0.07336  0.27491  0.58528  Biso   1.000  C
  H31      1.0000 0.88070  0.66500  0.38500  Biso   1.000  H
  H32      1.0000 0.11930  0.33500  0.61500  Biso   1.000  H
  C37      1.0000 0.02341  0.75030  0.42329  Biso   1.000  C
  C38      1.0000 0.97659  0.24970  0.57671  Biso   1.000  C
  C39      1.0000 0.05453  0.67551  0.39770  Biso   1.000  C
  C40      1.0000 0.94547  0.32449  0.60230  Biso   1.000  C
  H33      1.0000 0.10950  0.69880  0.37770  Biso   1.000  H
  H34      1.0000 0.89050  0.30120  0.62230  Biso   1.000  H
  H35      1.0000 0.00240  0.61800  0.36450  Biso   1.000  H
  H36      1.0000 0.99760  0.38200  0.63550  Biso   1.000  H
  C41      1.0000 0.08142  0.65358  0.45470  Biso   1.000  C
  C42      1.0000 0.91858  0.34642  0.54530  Biso   1.000  C
  C43      1.0000 0.01897  0.63335  0.49662  Biso   1.000  C
  C44      1.0000 0.98103  0.36665  0.50338  Biso   1.000  C
  H37      1.0000 0.95950  0.63030  0.48890  Biso   1.000  H
  H38      1.0000 0.04050  0.36970  0.51110  Biso   1.000  H
  C45      1.0000 0.04562  0.61768  0.55006  Biso   1.000  C
  C46      1.0000 0.95438  0.38232  0.44994  Biso   1.000  C
  C47      1.0000 0.13270  0.62215  0.56408  Biso   1.000  C
  C48      1.0000 0.86730  0.37785  0.43592  Biso   1.000  C
  H39      1.0000 0.14810  0.61120  0.60050  Biso   1.000  H
  H40      1.0000 0.85190  0.38880  0.39950  Biso   1.000  H
  C49      1.0000 0.17000  0.65698  0.46830  Biso   1.000  C
  C50      1.0000 0.83000  0.34302  0.53170  Biso   1.000  C
  C51      1.0000 0.36585  0.82756  0.62007  Biso   1.000  C
  C52      1.0000 0.63415  0.17244  0.37993  Biso   1.000  C
  C53      1.0000 0.26896  0.00638  0.63322  Biso   1.000  C
  C54      1.0000 0.73104  0.99362  0.36678  Biso   1.000  C
  C55      1.0000 0.09024  0.84500  0.46552  Biso   1.000  C
  C56      1.0000 0.90976  0.15500  0.53448  Biso   1.000  C
  O21      1.0000 0.23348  0.68230  0.42755  Biso   1.000  O
  O22      1.0000 0.76652  0.31770  0.57245  Biso   1.000  O
  C57      1.0000 0.24453  0.60607  0.38376  Biso   1.000  C
  C58      1.0000 0.75547  0.39393  0.61624  Biso   1.000  C
  H41      1.0000 0.18200  0.54920  0.36520  Biso   1.000  H
  H42      1.0000 0.81800  0.45080  0.63480  Biso   1.000  H
  H43      1.0000 0.28490  0.59250  0.40790  Biso   1.000  H
  H44      1.0000 0.71510  0.40750  0.59210  Biso   1.000  H
  C59      1.0000 0.28996  0.63220  0.32865  Biso   1.000  C
  C60      1.0000 0.71004  0.36780  0.67135  Biso   1.000  C
  O23      1.0000 0.33703  0.83951  0.56599  Biso   1.000  O
  O24      1.0000 0.66297  0.16049  0.43401  Biso   1.000  O
  C61      1.0000 0.40905  0.90709  0.54496  Biso   1.000  C
  C62      1.0000 0.59095  0.09291  0.45504  Biso   1.000  C
  H45      1.0000 0.46540  0.94980  0.58060  Biso   1.000  H
  H46      1.0000 0.53460  0.05020  0.41940  Biso   1.000  H
  H47      1.0000 0.38450  0.94490  0.53420  Biso   1.000  H
  H48      1.0000 0.61550  0.05510  0.46580  Biso   1.000  H
  C63      1.0000 0.43738  0.85774  0.48542  Biso   1.000  C
  C64      1.0000 0.56262  0.14226  0.51458  Biso   1.000  C
  O25      1.0000 0.44226  0.89597  0.44142  Biso   1.000  O
  O26      1.0000 0.55774  0.10403  0.55858  Biso   1.000  O
  H49      1.0000 0.46280  0.87240  0.41090  Biso   1.000  H
  H50      1.0000 0.53720  0.12760  0.58910  Biso   1.000  H
  O27      1.0000 0.45642  0.79452  0.47933  Biso   1.000  O
  O28      1.0000 0.54358  0.20548  0.52067  Biso   1.000  O
  O29      1.0000 0.33641  0.05730  0.60312  Biso   1.000  O
  O30      1.0000 0.66359  0.94270  0.39688  Biso   1.000  O
  C65      1.0000 0.36131  0.15547  0.62208  Biso   1.000  C
  C66      1.0000 0.63869  0.84453  0.37792  Biso   1.000  C
  H51      1.0000 0.31370  0.16630  0.64460  Biso   1.000  H
  H52      1.0000 0.68630  0.83370  0.35540  Biso   1.000  H
  H53      1.0000 0.35990  0.16970  0.58290  Biso   1.000  H
  H54      1.0000 0.64010  0.83030  0.41710  Biso   1.000  H
  C67      1.0000 0.46074  0.22235  0.66708  Biso   1.000  C
  C68      1.0000 0.53926  0.77765  0.33292  Biso   1.000  C
  O31      1.0000 0.18767  0.87646  0.47155  Biso   1.000  O
  O32      1.0000 0.81233  0.12354  0.52845  Biso   1.000  O
  C69      1.0000 0.22442  0.87630  0.41258  Biso   1.000  C
  C70      1.0000 0.77558  0.12370  0.58742  Biso   1.000  C
  H55      1.0000 0.17060  0.84270  0.37520  Biso   1.000  H
  H56      1.0000 0.82940  0.15730  0.62480  Biso   1.000  H
  H57      1.0000 0.26030  0.84190  0.40610  Biso   1.000  H
  H58      1.0000 0.73970  0.15810  0.59390  Biso   1.000  H
  C71      1.0000 0.28864  0.97467  0.41462  Biso   1.000  C
  C72      1.0000 0.71136  0.02533  0.58538  Biso   1.000  C
  O33      1.0000 0.27578  0.04284  0.45336  Biso   1.000  O
  O34      1.0000 0.72422  0.95716  0.54664  Biso   1.000  O
  H59      1.0000 0.31320  0.09330  0.45050  Biso   1.000  H
  H60      1.0000 0.68680  0.90670  0.54950  Biso   1.000  H
  O35      1.0000 0.34768  0.98802  0.37974  Biso   1.000  O
  O36      1.0000 0.65232  0.01198  0.62026  Biso   1.000  O
  N1       1.0000 0.97762  0.59600  0.59376  Biso   1.000  N
  N2       1.0000 0.02238  0.40400  0.40624  Biso   1.000  N
  O37      1.0000 0.89680  0.58990  0.57811  Biso   1.000  O
  O38      1.0000 0.10320  0.41010  0.42189  Biso   1.000  O
  O39      1.0000 0.99776  0.57457  0.63793  Biso   1.000  O
  O40      1.0000 0.00224  0.42543  0.36207  Biso   1.000  O
  N3       1.0000 0.43690  0.77626  0.78231  Biso   1.000  N
  N4       1.0000 0.56310  0.22374  0.21769  Biso   1.000  N
  O41      1.0000 0.47750  0.84297  0.83491  Biso   1.000  O
  O42      1.0000 0.52250  0.15703  0.16509  Biso   1.000  O
  O43      1.0000 0.41620  0.69441  0.77491  Biso   1.000  O
  O44      1.0000 0.58380  0.30559  0.22509  Biso   1.000  O
  N5       1.0000 0.06768  0.85498  0.72738  Biso   1.000  N
  N6       1.0000 0.93232  0.14502  0.27262  Biso   1.000  N
  O45      1.0000 0.09635  0.84050  0.77168  Biso   1.000  O
  O46      1.0000 0.90365  0.15950  0.22832  Biso   1.000  O
  O47      1.0000 0.98600  0.84620  0.71880  Biso   1.000  O
  O48      1.0000 0.01400  0.15380  0.28120  Biso   1.000  O
  N7       1.0000 0.79644  0.76170  0.43874  Biso   1.000  N
  N8       1.0000 0.20356  0.23830  0.56126  Biso   1.000  N
  O49      1.0000 0.76868  0.80881  0.47886  Biso   1.000  O
  O50      1.0000 0.23132  0.19119  0.52114  Biso   1.000  O
  O51      1.0000 0.74291  0.69356  0.38885  Biso   1.000  O
  O52      1.0000 0.25709  0.30644  0.61115  Biso   1.000  O
  C73      1.0000 0.09576  0.43876  0.93384  Biso   1.000  C
  C74      1.0000 0.90424  0.56124  0.06616  Biso   1.000  C
  C75      1.0000 0.17418  0.53415  0.93653  Biso   1.000  C
  C76      1.0000 0.82582  0.46585  0.06347  Biso   1.000  C
  H61      1.0000 0.22580  0.56250  0.97460  Biso   1.000  H
  H62      1.0000 0.77420  0.43750  0.02540  Biso   1.000  H
  H63      1.0000 0.14810  0.57700  0.94080  Biso   1.000  H
  H64      1.0000 0.85190  0.42300  0.05920  Biso   1.000  H
  C77      1.0000 0.21344  0.52022  0.87418  Biso   1.000  C
  C78      1.0000 0.78656  0.47978  0.12582  Biso   1.000  C
  C79      1.0000 0.19804  0.55275  0.82729  Biso   1.000  C
  C80      1.0000 0.80196  0.44725  0.17271  Biso   1.000  C
  H65      1.0000 0.16930  0.59110  0.83510  Biso   1.000  H
  H66      1.0000 0.83070  0.40890  0.16490  Biso   1.000  H
  C81      1.0000 0.22635  0.52703  0.76836  Biso   1.000  C
  C82      1.0000 0.77365  0.47297  0.23164  Biso   1.000  C
  C83      1.0000 0.26912  0.47011  0.75435  Biso   1.000  C
  C84      1.0000 0.73088  0.52989  0.24565  Biso   1.000  C
  H67      1.0000 0.28600  0.45360  0.71390  Biso   1.000  H
  H68      1.0000 0.71400  0.54640  0.28610  Biso   1.000  H
  C85      1.0000 0.28672  0.43772  0.80107  Biso   1.000  C
  C86      1.0000 0.71328  0.56228  0.19893  Biso   1.000  C
  C87      1.0000 0.32518  0.36789  0.78460  Biso   1.000  C
  C88      1.0000 0.67482  0.63211  0.21540  Biso   1.000  C
  H69      1.0000 0.38130  0.39190  0.81820  Biso   1.000  H
  H70      1.0000 0.61870  0.60810  0.18180  Biso   1.000  H
  H71      1.0000 0.34490  0.36210  0.74280  Biso   1.000  H
  H72      1.0000 0.65510  0.63790  0.25720  Biso   1.000  H
  C89      1.0000 0.24888  0.27023  0.78052  Biso   1.000  C
  C90      1.0000 0.75112  0.72977  0.21948  Biso   1.000  C
  C91      1.0000 0.15986  0.22529  0.73835  Biso   1.000  C
  C92      1.0000 0.84014  0.77471  0.26165  Biso   1.000  C
  H73      1.0000 0.14820  0.25340  0.71160  Biso   1.000  H
  H74      1.0000 0.85180  0.74660  0.28840  Biso   1.000  H
  C93      1.0000 0.08892  0.13892  0.73621  Biso   1.000  C
  C94      1.0000 0.91108  0.86108  0.26379  Biso   1.000  C
  C95      1.0000 0.10120  0.09650  0.77681  Biso   1.000  C
  C96      1.0000 0.89880  0.90350  0.22319  Biso   1.000  C
  H75      1.0000 0.05120  0.03900  0.77510  Biso   1.000  H
  H76      1.0000 0.94880  0.96100  0.22490  Biso   1.000  H
  C97      1.0000 0.18880  0.14021  0.82035  Biso   1.000  C
  C98      1.0000 0.81120  0.85979  0.17965  Biso   1.000  C
  C99      1.0000 0.19788  0.09945  0.87084  Biso   1.000  C
  C100     1.0000 0.80212  0.90055  0.12916  Biso   1.000  C
  H77      1.0000 0.19290  0.03750  0.84880  Biso   1.000  H
  H78      1.0000 0.80710  0.96250  0.15120  Biso   1.000  H
  H79      1.0000 0.26020  0.14120  0.90090  Biso   1.000  H
  H80      1.0000 0.73980  0.85880  0.09910  Biso   1.000  H
  C101     1.0000 0.11867  0.09009  0.90852  Biso   1.000  C
  C102     1.0000 0.88133  0.90991  0.09148  Biso   1.000  C
  C103     1.0000 0.03673  0.00325  0.89497  Biso   1.000  C
  C104     1.0000 0.96327  0.99675  0.10503  Biso   1.000  C
  H81      1.0000 0.03250  0.94750  0.86520  Biso   1.000  H
  H82      1.0000 0.96750  0.05250  0.13480  Biso   1.000  H
  C105     1.0000 0.96169  0.99965  0.92561  Biso   1.000  C
  C106     1.0000 0.03831  0.00035  0.07439  Biso   1.000  C
  C107     1.0000 0.96266  0.08126  0.96740  Biso   1.000  C
  C108     1.0000 0.03734  0.91874  0.03260  Biso   1.000  C
  H83      1.0000 0.90950  0.07690  0.98550  Biso   1.000  H
  H84      1.0000 0.09050  0.92310  0.01450  Biso   1.000  H
  C109     1.0000 0.04346  0.16977  0.98217  Biso   1.000  C
  C110     1.0000 0.95654  0.83023  0.01783  Biso   1.000  C
  C111     1.0000 0.04099  0.26068  0.01902  Biso   1.000  C
  C112     1.0000 0.95901  0.73932  0.98098  Biso   1.000  C
  H85      1.0000 0.09940  0.30470  0.05280  Biso   1.000  H
  H86      1.0000 0.90060  0.69530  0.94720  Biso   1.000  H
  H87      1.0000 0.98650  0.24660  0.04030  Biso   1.000  H
  H88      1.0000 0.01350  0.75340  0.95970  Biso   1.000  H
  C113     1.0000 0.03256  0.30644  0.97166  Biso   1.000  C
  C114     1.0000 0.96744  0.69356  0.02834  Biso   1.000  C
  C115     1.0000 0.95912  0.25268  0.91593  Biso   1.000  C
  C116     1.0000 0.04088  0.74732  0.08407  Biso   1.000  C
  H89      1.0000 0.91320  0.19050  0.90880  Biso   1.000  H
  H90      1.0000 0.08680  0.80950  0.09120  Biso   1.000  H
  C117     1.0000 0.95448  0.29199  0.87097  Biso   1.000  C
  C118     1.0000 0.04552  0.70801  0.12903  Biso   1.000  C
  C119     1.0000 0.02123  0.38281  0.87849  Biso   1.000  C
  C120     1.0000 0.97877  0.61719  0.12151  Biso   1.000  C
  H91      1.0000 0.01650  0.40660  0.84680  Biso   1.000  H
  H92      1.0000 0.98350  0.59340  0.15320  Biso   1.000  H
  C121     1.0000 0.09898  0.40008  0.98080  Biso   1.000  C
  C122     1.0000 0.90102  0.59992  0.01920  Biso   1.000  C
  C123     1.0000 0.26348  0.22545  0.81955  Biso   1.000  C
  C124     1.0000 0.73652  0.77455  0.18045  Biso   1.000  C
  C125     1.0000 0.26029  0.46621  0.86155  Biso   1.000  C
  C126     1.0000 0.73971  0.53379  0.13845  Biso   1.000  C
  C127     1.0000 0.12276  0.17166  0.95515  Biso   1.000  C
  C128     1.0000 0.87724  0.82834  0.04485  Biso   1.000  C
  O53      1.0000 0.17399  0.45238  0.03591  Biso   1.000  O
  O54      1.0000 0.82601  0.54762  0.96409  Biso   1.000  O
  C129     1.0000 0.16678  0.52786  0.08440  Biso   1.000  C
  C130     1.0000 0.83322  0.47214  0.91560  Biso   1.000  C
  H93      1.0000 0.10510  0.50220  0.09700  Biso   1.000  H
  H94      1.0000 0.89490  0.49780  0.90300  Biso   1.000  H
  H95      1.0000 0.17020  0.57360  0.06600  Biso   1.000  H
  H96      1.0000 0.82980  0.42640  0.93400  Biso   1.000  H
  C131     1.0000 0.24777  0.57770  0.14494  Biso   1.000  C
  C132     1.0000 0.75223  0.42230  0.85506  Biso   1.000  C
  O55      1.0000 0.27122  0.43297  0.90915  Biso   1.000  O
  O56      1.0000 0.72878  0.56703  0.09085  Biso   1.000  O
  C133     1.0000 0.36692  0.46478  0.94047  Biso   1.000  C
  C134     1.0000 0.63308  0.53522  0.05953  Biso   1.000  C
  H97      1.0000 0.41170  0.49320  0.91520  Biso   1.000  H
  H98      1.0000 0.58830  0.50680  0.08480  Biso   1.000  H
  H99      1.0000 0.37230  0.41070  0.94170  Biso   1.000  H
  H100     1.0000 0.62770  0.58930  0.05830  Biso   1.000  H
  C135     1.0000 0.39304  0.53702  0.00974  Biso   1.000  C
  C136     1.0000 0.60696  0.46298  0.99026  Biso   1.000  C
  O57      1.0000 0.43311  0.51610  0.05129  Biso   1.000  O
  O58      1.0000 0.56689  0.48390  0.94871  Biso   1.000  O
  H101     1.0000 0.45180  0.55860  0.08800  Biso   1.000  H
  H102     1.0000 0.54820  0.44140  0.91200  Biso   1.000  H
  O59      1.0000 0.38136  0.60549  0.02595  Biso   1.000  O
  O60      1.0000 0.61864  0.39451  0.97405  Biso   1.000  O
  O61      1.0000 0.35151  0.27030  0.86211  Biso   1.000  O
  O62      1.0000 0.64849  0.72970  0.13789  Biso   1.000  O
  C137     1.0000 0.40700  0.22262  0.85307  Biso   1.000  C
  C138     1.0000 0.59300  0.77738  0.14693  Biso   1.000  C
  H103     1.0000 0.36650  0.15640  0.82400  Biso   1.000  H
  H104     1.0000 0.63350  0.84360  0.17600  Biso   1.000  H
  H105     1.0000 0.42960  0.22420  0.89520  Biso   1.000  H
  H106     1.0000 0.57040  0.77580  0.10480  Biso   1.000  H
  C139     1.0000 0.49298  0.26814  0.82393  Biso   1.000  C
  C140     1.0000 0.50702  0.73186  0.17607  Biso   1.000  C
  O63      1.0000 0.20636  0.25766  0.97062  Biso   1.000  O
  O64      1.0000 0.79364  0.74234  0.02938  Biso   1.000  O
  C141     1.0000 0.25815  0.30356  0.03767  Biso   1.000  C
  C142     1.0000 0.74185  0.69644  0.96233  Biso   1.000  C
  H107     1.0000 0.21670  0.27470  0.06430  Biso   1.000  H
  H108     1.0000 0.78330  0.72530  0.93570  Biso   1.000  H
  H109     1.0000 0.27500  0.37020  0.05380  Biso   1.000  H
  H110     1.0000 0.72500  0.62980  0.94620  Biso   1.000  H
  C143     1.0000 0.34776  0.29654  0.04551  Biso   1.000  C
  C144     1.0000 0.65224  0.70346  0.95449  Biso   1.000  C
  O65      1.0000 0.36890  0.24808  0.00044  Biso   1.000  O
  O66      1.0000 0.63110  0.75192  0.99956  Biso   1.000  O
  H111     1.0000 0.41730  0.24830  0.01480  Biso   1.000  H
  H112     1.0000 0.58270  0.75170  0.98520  Biso   1.000  H
  O67      1.0000 0.40019  0.34231  0.10407  Biso   1.000  O
  O68      1.0000 0.59981  0.65769  0.89593  Biso   1.000  O
  N9       1.0000 0.87673  0.23494  0.81178  Biso   1.000  N
  N10      1.0000 0.12327  0.76506  0.18822  Biso   1.000  N
  O69      1.0000 0.88203  0.26209  0.76679  Biso   1.000  O
  O70      1.0000 0.11797  0.73791  0.23321  Biso   1.000  O
  O71      1.0000 0.80504  0.16359  0.81352  Biso   1.000  O
  O72      1.0000 0.19496  0.83641  0.18648  Biso   1.000  O
  N11      1.0000 0.20636  0.55891  0.71787  Biso   1.000  N
  N12      1.0000 0.79364  0.44109  0.28213  Biso   1.000  N
  O73      1.0000 0.18801  0.62460  0.73436  Biso   1.000  O
  O74      1.0000 0.81199  0.37540  0.26564  Biso   1.000  O
  O75      1.0000 0.20907  0.51716  0.66062  Biso   1.000  O
  O76      1.0000 0.79093  0.48284  0.33938  Biso   1.000  O
  N13      1.0000 0.99515  0.09042  0.68996  Biso   1.000  N
  N14      1.0000 0.00485  0.90958  0.31004  Biso   1.000  N
  O77      1.0000 0.94113  0.00660  0.67766  Biso   1.000  O
  O78      1.0000 0.05887  0.99340  0.32234  Biso   1.000  O
  O79      1.0000 0.97640  0.13560  0.66444  Biso   1.000  O
  O80      1.0000 0.02360  0.86440  0.33556  Biso   1.000  O
  N15      1.0000 0.87769  0.90665  0.91271  Biso   1.000  N
  N16      1.0000 0.12231  0.09335  0.08729  Biso   1.000  N
  O81      1.0000 0.87694  0.83502  0.87489  Biso   1.000  O
  O82      1.0000 0.12306  0.16498  0.12511  Biso   1.000  O
  O83      1.0000 0.81173  0.90452  0.94112  Biso   1.000  O
  O84      1.0000 0.18827  0.09548  0.05888  Biso   1.000  O
  O85      1.0000 0.96793  0.37158  0.13700  Biso   1.000  O
  O86      1.0000 0.03207  0.62842  0.86300  Biso   1.000  O
  C145     1.0000 0.02395  0.40560  0.18833  Biso   1.000  C
  C146     1.0000 0.97605  0.59440  0.81167  Biso   1.000  C
  C147     1.0000 0.07560  0.35900  0.20615  Biso   1.000  C
  C148     1.0000 0.92440  0.64100  0.79385  Biso   1.000  C
  H113     1.0000 0.04960  0.29520  0.17410  Biso   1.000  H
  H114     1.0000 0.95040  0.70480  0.82590  Biso   1.000  H
  H115     1.0000 0.06750  0.35710  0.24880  Biso   1.000  H
  H116     1.0000 0.93250  0.64290  0.75120  Biso   1.000  H
  H117     1.0000 0.14290  0.39470  0.20700  Biso   1.000  H
  H118     1.0000 0.85710  0.60530  0.79300  Biso   1.000  H
  C149     1.0000 0.04880  0.50170  0.23729  Biso   1.000  C
  C150     1.0000 0.95120  0.49830  0.76271  Biso   1.000  C
  H119     1.0000 0.11380  0.54670  0.23910  Biso   1.000  H
  H120     1.0000 0.88620  0.45330  0.76090  Biso   1.000  H
  H121     1.0000 0.04280  0.49880  0.27990  Biso   1.000  H
  H122     1.0000 0.95720  0.50120  0.72010  Biso   1.000  H
  H123     1.0000 0.00560  0.52140  0.22430  Biso   1.000  H
  H124     1.0000 0.99440  0.47860  0.77570  Biso   1.000  H
  O87      1.0000 0.39586  0.20423  0.44366  Biso   1.000  O
  O88      1.0000 0.60414  0.79577  0.55634  Biso   1.000  O
  H125     1.0000 0.45400  0.20700  0.45850  Biso   1.000  H
  H126     1.0000 0.54600  0.79300  0.54150  Biso   1.000  H
  H127     1.0000 0.40200  0.20800  0.40160  Biso   1.000  H
  H128     1.0000 0.59800  0.79200  0.59840  Biso   1.000  H
  O89      1.0000 0.93610  0.64120  0.61000  Biso   1.000  O
  O90      1.0000 0.06390  0.35880  0.39000  Biso   1.000  O
  O91      1.0000 0.98320  0.80650  0.69690  Biso   1.000  O
  O92      1.0000 0.01680  0.19350  0.30310  Biso   1.000  O
  O93      1.0000 0.85030  0.14710  0.78810  Biso   1.000  O
  O94      1.0000 0.14970  0.85290  0.21190  Biso   1.000  O
  O95      1.0000 0.92330  0.04590  0.70990  Biso   1.000  O
  O96      1.0000 0.07670  0.95410  0.29010  Biso   1.000  O
  O97      1.0000 0.99430  0.10740  0.64090  Biso   1.000  O
  O98      1.0000 0.00570  0.89260  0.35910  Biso   1.000  O
