data_image0
_cell_length_a       9.8373
_cell_length_b       14.6653
_cell_length_c       24.263
_cell_angle_alpha    90
_cell_angle_beta     90
_cell_angle_gamma    90

_symmetry_space_group_name_H-M    "P 1"
_symmetry_int_tables_number       1

loop_
  _symmetry_equiv_pos_as_xyz
  'x, y, z'

loop_
  _atom_site_label
  _atom_site_occupancy
  _atom_site_fract_x
  _atom_site_fract_y
  _atom_site_fract_z
  _atom_site_thermal_displace_type
  _atom_site_B_iso_or_equiv
  _atom_site_type_symbol
  Cu1      1.0000 0.15950  0.91502  0.20801  Biso   1.000  Cu
  Cu2      1.0000 0.34050  0.08498  0.70801  Biso   1.000  Cu
  Cu3      1.0000 0.84050  0.41502  0.29199  Biso   1.000  Cu
  Cu4      1.0000 0.65950  0.58498  0.79199  Biso   1.000  Cu
  Cu5      1.0000 0.83879  0.09073  0.78252  Biso   1.000  Cu
  Cu6      1.0000 0.66121  0.90927  0.28252  Biso   1.000  Cu
  Cu7      1.0000 0.16121  0.59073  0.71748  Biso   1.000  Cu
  Cu8      1.0000 0.33879  0.40927  0.21748  Biso   1.000  Cu
  N1       1.0000 0.09390  0.94470  0.13186  Biso   1.000  N
  N2       1.0000 0.40610  0.05530  0.63186  Biso   1.000  N
  N3       1.0000 0.90610  0.44470  0.36814  Biso   1.000  N
  N4       1.0000 0.59390  0.55530  0.86814  Biso   1.000  N
  N5       1.0000 0.90090  0.05930  0.85893  Biso   1.000  N
  N6       1.0000 0.59910  0.94070  0.35893  Biso   1.000  N
  N7       1.0000 0.09910  0.55930  0.64107  Biso   1.000  N
  N8       1.0000 0.40090  0.44070  0.14107  Biso   1.000  N
  C1       1.0000 0.99300  0.00470  0.12192  Biso   1.000  C
  C2       1.0000 0.50700  0.99530  0.62192  Biso   1.000  C
  C3       1.0000 0.00700  0.50470  0.37808  Biso   1.000  C
  C4       1.0000 0.49300  0.49530  0.87808  Biso   1.000  C
  H1       1.0000 0.94880  0.03230  0.15200  Biso   1.000  H
  H2       1.0000 0.55120  0.96770  0.65200  Biso   1.000  H
  H3       1.0000 0.05120  0.53230  0.34800  Biso   1.000  H
  H4       1.0000 0.44880  0.46770  0.84800  Biso   1.000  H
  C5       1.0000 0.95270  0.02690  0.06975  Biso   1.000  C
  C6       1.0000 0.54730  0.97310  0.56975  Biso   1.000  C
  C7       1.0000 0.04730  0.52690  0.43025  Biso   1.000  C
  C8       1.0000 0.45270  0.47310  0.93025  Biso   1.000  C
  H5       1.0000 0.88110  0.06860  0.06470  Biso   1.000  H
  H6       1.0000 0.61890  0.93140  0.56470  Biso   1.000  H
  H7       1.0000 0.11890  0.56860  0.43530  Biso   1.000  H
  H8       1.0000 0.38110  0.43140  0.93530  Biso   1.000  H
  C9       1.0000 0.01590  0.98890  0.02403  Biso   1.000  C
  C10      1.0000 0.48410  0.01110  0.52403  Biso   1.000  C
  C11      1.0000 0.98410  0.48890  0.47597  Biso   1.000  C
  C12      1.0000 0.51590  0.51110  0.97597  Biso   1.000  C
  C13      1.0000 0.11620  0.92470  0.03500  Biso   1.000  C
  C14      1.0000 0.38380  0.07530  0.53500  Biso   1.000  C
  C15      1.0000 0.88380  0.42470  0.46500  Biso   1.000  C
  C16      1.0000 0.61620  0.57530  0.96500  Biso   1.000  C
  H9       1.0000 0.16000  0.89500  0.00560  Biso   1.000  H
  H10      1.0000 0.34000  0.10500  0.50560  Biso   1.000  H
  H11      1.0000 0.84000  0.39500  0.49440  Biso   1.000  H
  H12      1.0000 0.66000  0.60500  0.99440  Biso   1.000  H
  C17      1.0000 0.15160  0.90440  0.08789  Biso   1.000  C
  C18      1.0000 0.34840  0.09560  0.58789  Biso   1.000  C
  C19      1.0000 0.84840  0.40440  0.41211  Biso   1.000  C
  C20      1.0000 0.65160  0.59560  0.91211  Biso   1.000  C
  H13      1.0000 0.21930  0.86030  0.09390  Biso   1.000  H
  H14      1.0000 0.28070  0.13970  0.59390  Biso   1.000  H
  H15      1.0000 0.78070  0.36030  0.40610  Biso   1.000  H
  H16      1.0000 0.71930  0.63970  0.90610  Biso   1.000  H
  C21      1.0000 0.97900  0.01460  0.96674  Biso   1.000  C
  C22      1.0000 0.52100  0.98540  0.46674  Biso   1.000  C
  C23      1.0000 0.02100  0.51460  0.53326  Biso   1.000  C
  C24      1.0000 0.47900  0.48540  0.03326  Biso   1.000  C
  C25      1.0000 0.88480  0.08280  0.95552  Biso   1.000  C
  C26      1.0000 0.61520  0.91720  0.45552  Biso   1.000  C
  C27      1.0000 0.11520  0.58280  0.54448  Biso   1.000  C
  C28      1.0000 0.38480  0.41720  0.04448  Biso   1.000  C
  H17      1.0000 0.84500  0.11550  0.98470  Biso   1.000  H
  H18      1.0000 0.65500  0.88450  0.48470  Biso   1.000  H
  H19      1.0000 0.15500  0.61550  0.51530  Biso   1.000  H
  H20      1.0000 0.34500  0.38450  0.01530  Biso   1.000  H
  C29      1.0000 0.84960  0.10270  0.90192  Biso   1.000  C
  C30      1.0000 0.65040  0.89730  0.40192  Biso   1.000  C
  C31      1.0000 0.15040  0.60270  0.59808  Biso   1.000  C
  C32      1.0000 0.34960  0.39730  0.09808  Biso   1.000  C
  H21      1.0000 0.78610  0.14950  0.89560  Biso   1.000  H
  H22      1.0000 0.71390  0.85050  0.39560  Biso   1.000  H
  H23      1.0000 0.21390  0.64950  0.60440  Biso   1.000  H
  H24      1.0000 0.28610  0.35050  0.10440  Biso   1.000  H
  C33      1.0000 0.99430  0.99500  0.86854  Biso   1.000  C
  C34      1.0000 0.50570  0.00500  0.36854  Biso   1.000  C
  C35      1.0000 0.00570  0.49500  0.63146  Biso   1.000  C
  C36      1.0000 0.49430  0.50500  0.13146  Biso   1.000  C
  H25      1.0000 0.03380  0.96500  0.83830  Biso   1.000  H
  H26      1.0000 0.46620  0.03500  0.33830  Biso   1.000  H
  H27      1.0000 0.96620  0.46500  0.66170  Biso   1.000  H
  H28      1.0000 0.53380  0.53500  0.16170  Biso   1.000  H
  C37      1.0000 0.03550  0.97060  0.92129  Biso   1.000  C
  C38      1.0000 0.46450  0.02940  0.42129  Biso   1.000  C
  C39      1.0000 0.96450  0.47060  0.57871  Biso   1.000  C
  C40      1.0000 0.53550  0.52940  0.07871  Biso   1.000  C
  H29      1.0000 0.10090  0.92460  0.92630  Biso   1.000  H
  H30      1.0000 0.39910  0.07540  0.42630  Biso   1.000  H
  H31      1.0000 0.89910  0.42460  0.57370  Biso   1.000  H
  H32      1.0000 0.60090  0.57540  0.07370  Biso   1.000  H
  O1       1.0000 0.97290  0.92280  0.23715  Biso   1.000  O
  O2       1.0000 0.52710  0.07720  0.73715  Biso   1.000  O
  O3       1.0000 0.02710  0.42280  0.26285  Biso   1.000  O
  O4       1.0000 0.47290  0.57720  0.76285  Biso   1.000  O
  O5       1.0000 0.84750  0.89140  0.31104  Biso   1.000  O
  O6       1.0000 0.65250  0.10860  0.81104  Biso   1.000  O
  O7       1.0000 0.15250  0.39140  0.18896  Biso   1.000  O
  O8       1.0000 0.34750  0.60860  0.68896  Biso   1.000  O
  N9       1.0000 0.20530  0.89050  0.28618  Biso   1.000  N
  N10      1.0000 0.29470  0.10950  0.78618  Biso   1.000  N
  N11      1.0000 0.79470  0.39050  0.21382  Biso   1.000  N
  N12      1.0000 0.70530  0.60950  0.71382  Biso   1.000  N
  H33      1.0000 0.26300  0.85600  0.28700  Biso   1.000  H
  H34      1.0000 0.23700  0.14400  0.78700  Biso   1.000  H
  H35      1.0000 0.73700  0.35600  0.21300  Biso   1.000  H
  H36      1.0000 0.76300  0.64400  0.71300  Biso   1.000  H
  H37      1.0000 0.21800  0.94200  0.30200  Biso   1.000  H
  H38      1.0000 0.28200  0.05800  0.80200  Biso   1.000  H
  H39      1.0000 0.78200  0.44200  0.19800  Biso   1.000  H
  H40      1.0000 0.71800  0.55800  0.69800  Biso   1.000  H
  N13      1.0000 0.36400  0.75080  0.44100  Biso   1.000  N
  N14      1.0000 0.13600  0.24920  0.94100  Biso   1.000  N
  N15      1.0000 0.63600  0.25080  0.05900  Biso   1.000  N
  N16      1.0000 0.86400  0.74920  0.55900  Biso   1.000  N
  H41      1.0000 0.43300  0.72100  0.43700  Biso   1.000  H
  H42      1.0000 0.06700  0.27900  0.93700  Biso   1.000  H
  H43      1.0000 0.56700  0.22100  0.06300  Biso   1.000  H
  H44      1.0000 0.93300  0.77900  0.56300  Biso   1.000  H
  C41      1.0000 0.95810  0.89490  0.28561  Biso   1.000  C
  C42      1.0000 0.54190  0.10510  0.78561  Biso   1.000  C
  C43      1.0000 0.04190  0.39490  0.21439  Biso   1.000  C
  C44      1.0000 0.45810  0.60510  0.71439  Biso   1.000  C
  C45      1.0000 0.08340  0.85860  0.31601  Biso   1.000  C
  C46      1.0000 0.41660  0.14140  0.81601  Biso   1.000  C
  C47      1.0000 0.91660  0.35860  0.18399  Biso   1.000  C
  C48      1.0000 0.58340  0.64140  0.68399  Biso   1.000  C
  H45      1.0000 0.08160  0.79130  0.31320  Biso   1.000  H
  H46      1.0000 0.41840  0.20870  0.81320  Biso   1.000  H
  H47      1.0000 0.91840  0.29130  0.18680  Biso   1.000  H
  H48      1.0000 0.58160  0.70870  0.68680  Biso   1.000  H
  C49      1.0000 0.08310  0.88270  0.37715  Biso   1.000  C
  C50      1.0000 0.41690  0.11730  0.87715  Biso   1.000  C
  C51      1.0000 0.91690  0.38270  0.12285  Biso   1.000  C
  C52      1.0000 0.58310  0.61730  0.62285  Biso   1.000  C
  H49      1.0000 0.09770  0.94850  0.38070  Biso   1.000  H
  H50      1.0000 0.40230  0.05150  0.88070  Biso   1.000  H
  H51      1.0000 0.90230  0.44850  0.11930  Biso   1.000  H
  H52      1.0000 0.59770  0.55150  0.61930  Biso   1.000  H
  H53      1.0000 0.99270  0.86930  0.39200  Biso   1.000  H
  H54      1.0000 0.50730  0.13070  0.89200  Biso   1.000  H
  H55      1.0000 0.00730  0.36930  0.10800  Biso   1.000  H
  H56      1.0000 0.49270  0.63070  0.60800  Biso   1.000  H
  C53      1.0000 0.18570  0.83510  0.41194  Biso   1.000  C
  C54      1.0000 0.31430  0.16490  0.91194  Biso   1.000  C
  C55      1.0000 0.81430  0.33510  0.08806  Biso   1.000  C
  C56      1.0000 0.68570  0.66490  0.58806  Biso   1.000  C
  C57      1.0000 0.19810  0.84270  0.47119  Biso   1.000  C
  C58      1.0000 0.30190  0.15730  0.97119  Biso   1.000  C
  C59      1.0000 0.80190  0.34270  0.02881  Biso   1.000  C
  C60      1.0000 0.69810  0.65730  0.52881  Biso   1.000  C
  C61      1.0000 0.12350  0.88930  0.51170  Biso   1.000  C
  C62      1.0000 0.37650  0.11070  0.01170  Biso   1.000  C
  C63      1.0000 0.87650  0.38930  0.98830  Biso   1.000  C
  C64      1.0000 0.62350  0.61070  0.48830  Biso   1.000  C
  H57      1.0000 0.04720  0.92430  0.50190  Biso   1.000  H
  H58      1.0000 0.45280  0.07570  0.00190  Biso   1.000  H
  H59      1.0000 0.95280  0.42430  0.99810  Biso   1.000  H
  H60      1.0000 0.54720  0.57570  0.49810  Biso   1.000  H
  C65      1.0000 0.16330  0.88310  0.56586  Biso   1.000  C
  C66      1.0000 0.33670  0.11690  0.06586  Biso   1.000  C
  C67      1.0000 0.83670  0.38310  0.93414  Biso   1.000  C
  C68      1.0000 0.66330  0.61690  0.43414  Biso   1.000  C
  H61      1.0000 0.11300  0.91340  0.59320  Biso   1.000  H
  H62      1.0000 0.38700  0.08660  0.09320  Biso   1.000  H
  H63      1.0000 0.88700  0.41340  0.90680  Biso   1.000  H
  H64      1.0000 0.61300  0.58660  0.40680  Biso   1.000  H
  C69      1.0000 0.27900  0.83170  0.58080  Biso   1.000  C
  C70      1.0000 0.22100  0.16830  0.08080  Biso   1.000  C
  C71      1.0000 0.72100  0.33170  0.91920  Biso   1.000  C
  C72      1.0000 0.77900  0.66830  0.41920  Biso   1.000  C
  H65      1.0000 0.30550  0.82950  0.61800  Biso   1.000  H
  H66      1.0000 0.19450  0.17050  0.11800  Biso   1.000  H
  H67      1.0000 0.69450  0.32950  0.88200  Biso   1.000  H
  H68      1.0000 0.80550  0.67050  0.38200  Biso   1.000  H
  C73      1.0000 0.35340  0.78500  0.54240  Biso   1.000  C
  C74      1.0000 0.14660  0.21500  0.04240  Biso   1.000  C
  C75      1.0000 0.64660  0.28500  0.95760  Biso   1.000  C
  C76      1.0000 0.85340  0.71500  0.45760  Biso   1.000  C
  H69      1.0000 0.42990  0.75060  0.55270  Biso   1.000  H
  H70      1.0000 0.07010  0.24940  0.05270  Biso   1.000  H
  H71      1.0000 0.57010  0.25060  0.94730  Biso   1.000  H
  H72      1.0000 0.92990  0.74940  0.44730  Biso   1.000  H
  C77      1.0000 0.31160  0.79030  0.48725  Biso   1.000  C
  C78      1.0000 0.18840  0.20970  0.98725  Biso   1.000  C
  C79      1.0000 0.68840  0.29030  0.01275  Biso   1.000  C
  C80      1.0000 0.81160  0.70970  0.51275  Biso   1.000  C
  C81      1.0000 0.28940  0.77800  0.39550  Biso   1.000  C
  C82      1.0000 0.21060  0.22200  0.89550  Biso   1.000  C
  C83      1.0000 0.71060  0.27800  0.10450  Biso   1.000  C
  C84      1.0000 0.78940  0.72200  0.60450  Biso   1.000  C
  H73      1.0000 0.30680  0.76020  0.35900  Biso   1.000  H
  H74      1.0000 0.19320  0.23980  0.85900  Biso   1.000  H
  H75      1.0000 0.69320  0.26020  0.14100  Biso   1.000  H
  H76      1.0000 0.80680  0.73980  0.64100  Biso   1.000  H
  O9       1.0000 0.47450  0.92650  0.25502  Biso   1.000  O
  O10      1.0000 0.02550  0.07350  0.75502  Biso   1.000  O
  O11      1.0000 0.52550  0.42650  0.24498  Biso   1.000  O
  O12      1.0000 0.97450  0.57350  0.74498  Biso   1.000  O
  O13      1.0000 0.34660  0.91520  0.17922  Biso   1.000  O
  O14      1.0000 0.15340  0.08480  0.67922  Biso   1.000  O
  O15      1.0000 0.65340  0.41520  0.32078  Biso   1.000  O
  O16      1.0000 0.84660  0.58480  0.82078  Biso   1.000  O
  N17      1.0000 0.70580  0.89840  0.20330  Biso   1.000  N
  N18      1.0000 0.79420  0.10160  0.70330  Biso   1.000  N
  N19      1.0000 0.29420  0.39840  0.29670  Biso   1.000  N
  N20      1.0000 0.20580  0.60160  0.79670  Biso   1.000  N
  H77      1.0000 0.76400  0.86500  0.19400  Biso   1.000  H
  H78      1.0000 0.73600  0.13500  0.69400  Biso   1.000  H
  H79      1.0000 0.23600  0.36500  0.30600  Biso   1.000  H
  H80      1.0000 0.26400  0.63500  0.80600  Biso   1.000  H
  H81      1.0000 0.73800  0.95400  0.19900  Biso   1.000  H
  H82      1.0000 0.76200  0.04600  0.69900  Biso   1.000  H
  H83      1.0000 0.26200  0.45400  0.30100  Biso   1.000  H
  H84      1.0000 0.23800  0.54600  0.80100  Biso   1.000  H
  N21      1.0000 0.84440  0.74330  0.04450  Biso   1.000  N
  N22      1.0000 0.65560  0.25670  0.54450  Biso   1.000  N
  N23      1.0000 0.15560  0.24330  0.45550  Biso   1.000  N
  N24      1.0000 0.34440  0.75670  0.95550  Biso   1.000  N
  H85      1.0000 0.91600  0.71800  0.04000  Biso   1.000  H
  H86      1.0000 0.58400  0.28200  0.54000  Biso   1.000  H
  H87      1.0000 0.08400  0.21800  0.46000  Biso   1.000  H
  H88      1.0000 0.41600  0.78200  0.96000  Biso   1.000  H
  C85      1.0000 0.45730  0.91330  0.20417  Biso   1.000  C
  C86      1.0000 0.04270  0.08670  0.70417  Biso   1.000  C
  C87      1.0000 0.54270  0.41330  0.29583  Biso   1.000  C
  C88      1.0000 0.95730  0.58670  0.79583  Biso   1.000  C
  C89      1.0000 0.58290  0.89250  0.16840  Biso   1.000  C
  C90      1.0000 0.91710  0.10750  0.66840  Biso   1.000  C
  C91      1.0000 0.41710  0.39250  0.33160  Biso   1.000  C
  C92      1.0000 0.08290  0.60750  0.83160  Biso   1.000  C
  H89      1.0000 0.58930  0.93890  0.13880  Biso   1.000  H
  H90      1.0000 0.91070  0.06110  0.63880  Biso   1.000  H
  H91      1.0000 0.41070  0.43890  0.36120  Biso   1.000  H
  H92      1.0000 0.08930  0.56110  0.86120  Biso   1.000  H
  C93      1.0000 0.56850  0.79850  0.14208  Biso   1.000  C
  C94      1.0000 0.93150  0.20150  0.64208  Biso   1.000  C
  C95      1.0000 0.43150  0.29850  0.35792  Biso   1.000  C
  C96      1.0000 0.06850  0.70150  0.85792  Biso   1.000  C
  H93      1.0000 0.58430  0.75150  0.17010  Biso   1.000  H
  H94      1.0000 0.91570  0.24850  0.67010  Biso   1.000  H
  H95      1.0000 0.41570  0.25150  0.32990  Biso   1.000  H
  H96      1.0000 0.08430  0.74850  0.82990  Biso   1.000  H
  H97      1.0000 0.47550  0.79110  0.12820  Biso   1.000  H
  H98      1.0000 0.02450  0.20890  0.62820  Biso   1.000  H
  H99      1.0000 0.52450  0.29110  0.37180  Biso   1.000  H
  H100     1.0000 0.97550  0.70890  0.87180  Biso   1.000  H
  C97      1.0000 0.66700  0.78540  0.09549  Biso   1.000  C
  C98      1.0000 0.83300  0.21460  0.59549  Biso   1.000  C
  C99      1.0000 0.33300  0.28540  0.40451  Biso   1.000  C
  C100     1.0000 0.16700  0.71460  0.90451  Biso   1.000  C
  C101     1.0000 0.65660  0.82780  0.04231  Biso   1.000  C
  C102     1.0000 0.84340  0.17220  0.54231  Biso   1.000  C
  C103     1.0000 0.34340  0.32780  0.45769  Biso   1.000  C
  C104     1.0000 0.15660  0.67220  0.95769  Biso   1.000  C
  C105     1.0000 0.56400  0.88650  0.01700  Biso   1.000  C
  C106     1.0000 0.93600  0.11350  0.51700  Biso   1.000  C
  C107     1.0000 0.43600  0.38650  0.48300  Biso   1.000  C
  C108     1.0000 0.06400  0.61350  0.98300  Biso   1.000  C
  H101     1.0000 0.48920  0.90900  0.03690  Biso   1.000  H
  H102     1.0000 0.01080  0.09100  0.53690  Biso   1.000  H
  H103     1.0000 0.51080  0.40900  0.46310  Biso   1.000  H
  H104     1.0000 0.98920  0.59100  0.96310  Biso   1.000  H
  C109     1.0000 0.58250  0.91130  0.96280  Biso   1.000  C
  C110     1.0000 0.91750  0.08870  0.46280  Biso   1.000  C
  C111     1.0000 0.41750  0.41130  0.53720  Biso   1.000  C
  C112     1.0000 0.08250  0.58870  0.03720  Biso   1.000  C
  H105     1.0000 0.51990  0.95040  0.94550  Biso   1.000  H
  H106     1.0000 0.98010  0.04960  0.44550  Biso   1.000  H
  H107     1.0000 0.48010  0.45040  0.55450  Biso   1.000  H
  H108     1.0000 0.01990  0.54960  0.05450  Biso   1.000  H
  C113     1.0000 0.69570  0.87780  0.93290  Biso   1.000  C
  C114     1.0000 0.80430  0.12220  0.43290  Biso   1.000  C
  C115     1.0000 0.30430  0.37780  0.56710  Biso   1.000  C
  C116     1.0000 0.19570  0.62220  0.06710  Biso   1.000  C
  H109     1.0000 0.70690  0.89510  0.89590  Biso   1.000  H
  H110     1.0000 0.79310  0.10490  0.39590  Biso   1.000  H
  H111     1.0000 0.29310  0.39510  0.60410  Biso   1.000  H
  H112     1.0000 0.20690  0.60490  0.10410  Biso   1.000  H
  C117     1.0000 0.78660  0.82260  0.95590  Biso   1.000  C
  C118     1.0000 0.71340  0.17740  0.45590  Biso   1.000  C
  C119     1.0000 0.21340  0.32260  0.54410  Biso   1.000  C
  C120     1.0000 0.28660  0.67740  0.04410  Biso   1.000  C
  H113     1.0000 0.86040  0.80020  0.93530  Biso   1.000  H
  H114     1.0000 0.63960  0.19980  0.43530  Biso   1.000  H
  H115     1.0000 0.13960  0.30020  0.56470  Biso   1.000  H
  H116     1.0000 0.36040  0.69980  0.06470  Biso   1.000  H
  C121     1.0000 0.77010  0.79840  0.01130  Biso   1.000  C
  C122     1.0000 0.72990  0.20160  0.51130  Biso   1.000  C
  C123     1.0000 0.22990  0.29840  0.48870  Biso   1.000  C
  C124     1.0000 0.27010  0.70160  0.98870  Biso   1.000  C
  C125     1.0000 0.78310  0.73560  0.09530  Biso   1.000  C
  C126     1.0000 0.71690  0.26440  0.59530  Biso   1.000  C
  C127     1.0000 0.21690  0.23560  0.40470  Biso   1.000  C
  C128     1.0000 0.28310  0.76440  0.90470  Biso   1.000  C
  H117     1.0000 0.81640  0.70120  0.12510  Biso   1.000  H
  H118     1.0000 0.68360  0.29880  0.62510  Biso   1.000  H
  H119     1.0000 0.18360  0.20120  0.37490  Biso   1.000  H
  H120     1.0000 0.31640  0.79880  0.87490  Biso   1.000  H
  O17      1.0000 0.14090  0.76000  0.18423  Biso   1.000  O
  O18      1.0000 0.35910  0.24000  0.68423  Biso   1.000  O
  O19      1.0000 0.85910  0.26000  0.31577  Biso   1.000  O
  O20      1.0000 0.64090  0.74000  0.81577  Biso   1.000  O
  H121     1.0000 0.06800  0.71900  0.19300  Biso   1.000  H
  H122     1.0000 0.43200  0.28100  0.69300  Biso   1.000  H
  H123     1.0000 0.93200  0.21900  0.30700  Biso   1.000  H
  H124     1.0000 0.56800  0.78100  0.80700  Biso   1.000  H
  H125     1.0000 0.20600  0.73500  0.19800  Biso   1.000  H
  H126     1.0000 0.29400  0.26500  0.69800  Biso   1.000  H
  H127     1.0000 0.79400  0.23500  0.30200  Biso   1.000  H
  H128     1.0000 0.70600  0.76500  0.80200  Biso   1.000  H
  O21      1.0000 0.87490  0.24370  0.80015  Biso   1.000  O
  O22      1.0000 0.62510  0.75630  0.30015  Biso   1.000  O
  O23      1.0000 0.12510  0.74370  0.69985  Biso   1.000  O
  O24      1.0000 0.37490  0.25630  0.19985  Biso   1.000  O
  H129     1.0000 0.95200  0.26900  0.79100  Biso   1.000  H
  H130     1.0000 0.54800  0.73100  0.29100  Biso   1.000  H
  H131     1.0000 0.04800  0.76900  0.70900  Biso   1.000  H
  H132     1.0000 0.45200  0.23100  0.20900  Biso   1.000  H
  H133     1.0000 0.82400  0.27500  0.79200  Biso   1.000  H
  H134     1.0000 0.67600  0.72500  0.29200  Biso   1.000  H
  H135     1.0000 0.17600  0.77500  0.70800  Biso   1.000  H
  H136     1.0000 0.32400  0.22500  0.20800  Biso   1.000  H
  O25      1.0000 0.19720  0.09000  0.22695  Biso   1.000  O
  O26      1.0000 0.30280  0.91000  0.72695  Biso   1.000  O
  O27      1.0000 0.80280  0.59000  0.27305  Biso   1.000  O
  O28      1.0000 0.69720  0.41000  0.77305  Biso   1.000  O
  O29      1.0000 0.13020  0.08180  0.31156  Biso   1.000  O
  O30      1.0000 0.36980  0.91820  0.81156  Biso   1.000  O
  O31      1.0000 0.86980  0.58180  0.18844  Biso   1.000  O
  O32      1.0000 0.63020  0.41820  0.68844  Biso   1.000  O
  O33      1.0000 0.11140  0.20860  0.26860  Biso   1.000  O
  O34      1.0000 0.38860  0.79140  0.76860  Biso   1.000  O
  O35      1.0000 0.88860  0.70860  0.23140  Biso   1.000  O
  O36      1.0000 0.61140  0.29140  0.73140  Biso   1.000  O
  O37      1.0000 0.72020  0.08330  0.26850  Biso   1.000  O
  O38      1.0000 0.77980  0.91670  0.76850  Biso   1.000  O
  O39      1.0000 0.27980  0.58330  0.23150  Biso   1.000  O
  O40      1.0000 0.22020  0.41670  0.73150  Biso   1.000  O
  O41      1.0000 0.63540  0.20890  0.23930  Biso   1.000  O
  O42      1.0000 0.86460  0.79110  0.73930  Biso   1.000  O
  O43      1.0000 0.36460  0.70890  0.26070  Biso   1.000  O
  O44      1.0000 0.13540  0.29110  0.76070  Biso   1.000  O
  O45      1.0000 0.65330  0.09550  0.18413  Biso   1.000  O
  O46      1.0000 0.84670  0.90450  0.68413  Biso   1.000  O
  O47      1.0000 0.34670  0.59550  0.31587  Biso   1.000  O
  O48      1.0000 0.15330  0.40450  0.81587  Biso   1.000  O
  N25      1.0000 0.14770  0.12560  0.26940  Biso   1.000  N
  N26      1.0000 0.35230  0.87440  0.76940  Biso   1.000  N
  N27      1.0000 0.85230  0.62560  0.23060  Biso   1.000  N
  N28      1.0000 0.64770  0.37440  0.73060  Biso   1.000  N
  N29      1.0000 0.67090  0.12870  0.22910  Biso   1.000  N
  N30      1.0000 0.82910  0.87130  0.72910  Biso   1.000  N
  N31      1.0000 0.32910  0.62870  0.27090  Biso   1.000  N
  N32      1.0000 0.17090  0.37130  0.77090  Biso   1.000  N
