data_image0
_cell_length_a       13.171
_cell_length_b       5.1292
_cell_length_c       11.719
_cell_angle_alpha    90
_cell_angle_beta     110.745
_cell_angle_gamma    90

_symmetry_space_group_name_H-M    "P 1"
_symmetry_int_tables_number       1

loop_
  _symmetry_equiv_pos_as_xyz
  'x, y, z'

loop_
  _atom_site_label
  _atom_site_occupancy
  _atom_site_fract_x
  _atom_site_fract_y
  _atom_site_fract_z
  _atom_site_thermal_displace_type
  _atom_site_B_iso_or_equiv
  _atom_site_type_symbol
  Cu1      1.0000 0.53790  0.21454  0.56114  Biso   1.000  Cu
  Cu2      1.0000 0.46210  0.71454  0.93886  Biso   1.000  Cu
  Cu3      1.0000 0.46210  0.78546  0.43886  Biso   1.000  Cu
  Cu4      1.0000 0.53790  0.28546  0.06114  Biso   1.000  Cu
  O1       1.0000 0.64560  0.30010  0.98390  Biso   1.000  O
  O2       1.0000 0.35440  0.80010  0.51610  Biso   1.000  O
  O3       1.0000 0.35440  0.69990  0.01610  Biso   1.000  O
  O4       1.0000 0.64560  0.19990  0.48390  Biso   1.000  O
  O5       1.0000 0.57830  0.66030  0.87420  Biso   1.000  O
  O6       1.0000 0.42170  0.16030  0.62580  Biso   1.000  O
  O7       1.0000 0.42170  0.33970  0.12580  Biso   1.000  O
  O8       1.0000 0.57830  0.83970  0.37420  Biso   1.000  O
  O9       1.0000 0.56870  0.63460  0.59610  Biso   1.000  O
  O10      1.0000 0.43130  0.13460  0.90390  Biso   1.000  O
  O11      1.0000 0.43130  0.36540  0.40390  Biso   1.000  O
  O12      1.0000 0.56870  0.86540  0.09610  Biso   1.000  O
  O13      1.0000 0.63910  0.00440  0.69150  Biso   1.000  O
  O14      1.0000 0.36090  0.50440  0.80850  Biso   1.000  O
  O15      1.0000 0.36090  0.99560  0.30850  Biso   1.000  O
  O16      1.0000 0.63910  0.49560  0.19150  Biso   1.000  O
  C1       1.0000 0.73520  0.61210  0.76000  Biso   1.000  C
  C2       1.0000 0.26480  0.11210  0.74000  Biso   1.000  C
  C3       1.0000 0.26480  0.38790  0.24000  Biso   1.000  C
  C4       1.0000 0.73520  0.88790  0.26000  Biso   1.000  C
  C5       1.0000 0.73810  0.47240  0.86330  Biso   1.000  C
  C6       1.0000 0.26190  0.97240  0.63670  Biso   1.000  C
  C7       1.0000 0.26190  0.52760  0.13670  Biso   1.000  C
  C8       1.0000 0.73810  0.02760  0.36330  Biso   1.000  C
  C9       1.0000 0.91620  0.31120  0.88530  Biso   1.000  C
  C10      1.0000 0.08380  0.81120  0.61470  Biso   1.000  C
  C11      1.0000 0.08380  0.68880  0.11470  Biso   1.000  C
  C12      1.0000 0.91620  0.18880  0.38530  Biso   1.000  C
  H1       1.0000 0.97660  0.21040  0.92710  Biso   1.000  H
  H2       1.0000 0.02340  0.71040  0.57290  Biso   1.000  H
  H3       1.0000 0.02340  0.78960  0.07290  Biso   1.000  H
  H4       1.0000 0.97660  0.28960  0.42710  Biso   1.000  H
  C13      1.0000 0.82940  0.31950  0.92430  Biso   1.000  C
  C14      1.0000 0.17060  0.81950  0.57570  Biso   1.000  C
  C15      1.0000 0.17060  0.68050  0.07570  Biso   1.000  C
  C16      1.0000 0.82940  0.18050  0.42430  Biso   1.000  C
  H5       1.0000 0.83130  0.22240  0.99200  Biso   1.000  H
  H6       1.0000 0.16870  0.72240  0.50800  Biso   1.000  H
  H7       1.0000 0.16870  0.77760  0.00800  Biso   1.000  H
  H8       1.0000 0.83130  0.27760  0.49200  Biso   1.000  H
  C17      1.0000 0.82380  0.60200  0.72230  Biso   1.000  C
  C18      1.0000 0.17620  0.10200  0.77770  Biso   1.000  C
  C19      1.0000 0.17620  0.39800  0.27770  Biso   1.000  C
  C20      1.0000 0.82380  0.89800  0.22230  Biso   1.000  C
  H9       1.0000 0.82250  0.69770  0.65440  Biso   1.000  H
  H10      1.0000 0.17750  0.19770  0.84560  Biso   1.000  H
  H11      1.0000 0.17750  0.30230  0.34560  Biso   1.000  H
  H12      1.0000 0.82250  0.80230  0.15440  Biso   1.000  H
  C21      1.0000 0.91380  0.45310  0.78350  Biso   1.000  C
  C22      1.0000 0.08620  0.95310  0.71650  Biso   1.000  C
  C23      1.0000 0.08620  0.54690  0.21650  Biso   1.000  C
  C24      1.0000 0.91380  0.04690  0.28350  Biso   1.000  C
  H13      1.0000 0.97240  0.44780  0.75680  Biso   1.000  H
  H14      1.0000 0.02760  0.94780  0.74320  Biso   1.000  H
  H15      1.0000 0.02760  0.55220  0.24320  Biso   1.000  H
  H16      1.0000 0.97240  0.05220  0.25680  Biso   1.000  H
  C25      1.0000 0.63950  0.76260  0.67950  Biso   1.000  C
  C26      1.0000 0.36050  0.26260  0.82050  Biso   1.000  C
  C27      1.0000 0.36050  0.23740  0.32050  Biso   1.000  C
  C28      1.0000 0.63950  0.73740  0.17950  Biso   1.000  C
  C29      1.0000 0.64660  0.47740  0.90930  Biso   1.000  C
  C30      1.0000 0.35340  0.97740  0.59070  Biso   1.000  C
  C31      1.0000 0.35340  0.52260  0.09070  Biso   1.000  C
  C32      1.0000 0.64660  0.02260  0.40930  Biso   1.000  C
