data_image0
_cell_length_a       8.8381
_cell_length_b       10.8914
_cell_length_c       13.533
_cell_angle_alpha    90
_cell_angle_beta     97.94
_cell_angle_gamma    90

_symmetry_space_group_name_H-M    "P 1"
_symmetry_int_tables_number       1

loop_
  _symmetry_equiv_pos_as_xyz
  'x, y, z'

loop_
  _atom_site_label
  _atom_site_occupancy
  _atom_site_fract_x
  _atom_site_fract_y
  _atom_site_fract_z
  _atom_site_thermal_displace_type
  _atom_site_B_iso_or_equiv
  _atom_site_type_symbol
  Cu1      1.0000 0.00000  0.00000  0.00000  Biso   1.000  Cu
  Cu2      1.0000 0.00000  0.50000  0.50000  Biso   1.000  Cu
  Cl1      1.0000 0.12105  0.13878  0.10600  Biso   1.000  Cl
  Cl2      1.0000 0.87895  0.63878  0.39400  Biso   1.000  Cl
  Cl3      1.0000 0.87895  0.86122  0.89400  Biso   1.000  Cl
  Cl4      1.0000 0.12105  0.36122  0.60600  Biso   1.000  Cl
  S1       1.0000 0.56319  0.17685  0.07108  Biso   1.000  S
  S2       1.0000 0.43681  0.67685  0.42892  Biso   1.000  S
  S3       1.0000 0.43681  0.82315  0.92892  Biso   1.000  S
  S4       1.0000 0.56319  0.32315  0.57108  Biso   1.000  S
  S5       1.0000 0.72441  0.44328  0.08294  Biso   1.000  S
  S6       1.0000 0.27559  0.94328  0.41706  Biso   1.000  S
  S7       1.0000 0.27559  0.55672  0.91706  Biso   1.000  S
  S8       1.0000 0.72441  0.05672  0.58294  Biso   1.000  S
  N1       1.0000 0.79820  0.05370  0.03763  Biso   1.000  N
  N2       1.0000 0.20180  0.55370  0.46237  Biso   1.000  N
  N3       1.0000 0.20180  0.94630  0.96237  Biso   1.000  N
  N4       1.0000 0.79820  0.44630  0.53763  Biso   1.000  N
  C1       1.0000 0.73100  0.16020  0.01960  Biso   1.000  C
  C2       1.0000 0.26900  0.66020  0.48040  Biso   1.000  C
  C3       1.0000 0.26900  0.83980  0.98040  Biso   1.000  C
  C4       1.0000 0.73100  0.33980  0.51960  Biso   1.000  C
  C5       1.0000 0.71830  0.97820  0.09540  Biso   1.000  C
  C6       1.0000 0.28170  0.47820  0.40460  Biso   1.000  C
  C7       1.0000 0.28170  0.02180  0.90460  Biso   1.000  C
  C8       1.0000 0.71830  0.52180  0.59540  Biso   1.000  C
  C9       1.0000 0.58550  0.03110  0.12200  Biso   1.000  C
  C10      1.0000 0.41450  0.53110  0.37800  Biso   1.000  C
  C11      1.0000 0.41450  0.96890  0.87800  Biso   1.000  C
  C12      1.0000 0.58550  0.46890  0.62200  Biso   1.000  C
  C13      1.0000 0.49470  0.97120  0.18250  Biso   1.000  C
  C14      1.0000 0.50530  0.47120  0.31750  Biso   1.000  C
  C15      1.0000 0.50530  0.02880  0.81750  Biso   1.000  C
  C16      1.0000 0.49470  0.52880  0.68250  Biso   1.000  C
  H1       1.0000 0.40470  0.00810  0.20000  Biso   1.000  H
  H2       1.0000 0.59530  0.50810  0.30000  Biso   1.000  H
  H3       1.0000 0.59530  0.99190  0.80000  Biso   1.000  H
  H4       1.0000 0.40470  0.49190  0.70000  Biso   1.000  H
  C17      1.0000 0.54030  0.85610  0.21610  Biso   1.000  C
  C18      1.0000 0.45970  0.35610  0.28390  Biso   1.000  C
  C19      1.0000 0.45970  0.14390  0.78390  Biso   1.000  C
  C20      1.0000 0.54030  0.64390  0.71610  Biso   1.000  C
  H5       1.0000 0.48080  0.81290  0.25790  Biso   1.000  H
  H6       1.0000 0.51920  0.31290  0.24210  Biso   1.000  H
  H7       1.0000 0.51920  0.18710  0.74210  Biso   1.000  H
  H8       1.0000 0.48080  0.68710  0.75790  Biso   1.000  H
  C21      1.0000 0.67130  0.80150  0.19030  Biso   1.000  C
  C22      1.0000 0.32870  0.30150  0.30970  Biso   1.000  C
  C23      1.0000 0.32870  0.19850  0.80970  Biso   1.000  C
  C24      1.0000 0.67130  0.69850  0.69030  Biso   1.000  C
  H9       1.0000 0.69980  0.72200  0.21520  Biso   1.000  H
  H10      1.0000 0.30020  0.22200  0.28480  Biso   1.000  H
  H11      1.0000 0.30020  0.27800  0.78480  Biso   1.000  H
  H12      1.0000 0.69980  0.77800  0.71520  Biso   1.000  H
  C25      1.0000 0.76060  0.86040  0.12930  Biso   1.000  C
  C26      1.0000 0.23940  0.36040  0.37070  Biso   1.000  C
  C27      1.0000 0.23940  0.13960  0.87070  Biso   1.000  C
  C28      1.0000 0.76060  0.63960  0.62930  Biso   1.000  C
  H13      1.0000 0.84890  0.82190  0.11070  Biso   1.000  H
  H14      1.0000 0.15110  0.32190  0.38930  Biso   1.000  H
  H15      1.0000 0.15110  0.17810  0.88930  Biso   1.000  H
  H16      1.0000 0.84890  0.67810  0.61070  Biso   1.000  H
  C29      1.0000 0.78560  0.25430  0.95420  Biso   1.000  C
  C30      1.0000 0.21440  0.75430  0.54580  Biso   1.000  C
  C31      1.0000 0.21440  0.74570  0.04580  Biso   1.000  C
  C32      1.0000 0.78560  0.24570  0.45420  Biso   1.000  C
  C33      1.0000 0.78680  0.38080  0.97390  Biso   1.000  C
  C34      1.0000 0.21320  0.88080  0.52610  Biso   1.000  C
  C35      1.0000 0.21320  0.61920  0.02610  Biso   1.000  C
  C36      1.0000 0.78680  0.11920  0.47390  Biso   1.000  C
  C37      1.0000 0.84480  0.46070  0.90690  Biso   1.000  C
  C38      1.0000 0.15520  0.96070  0.59310  Biso   1.000  C
  C39      1.0000 0.15520  0.53930  0.09310  Biso   1.000  C
  C40      1.0000 0.84480  0.03930  0.40690  Biso   1.000  C
  H17      1.0000 0.84900  0.54640  0.92020  Biso   1.000  H
  H18      1.0000 0.15100  0.04640  0.57980  Biso   1.000  H
  H19      1.0000 0.15100  0.45360  0.07980  Biso   1.000  H
  H20      1.0000 0.84900  0.95360  0.42020  Biso   1.000  H
  C41      1.0000 0.89570  0.41610  0.82190  Biso   1.000  C
  C42      1.0000 0.10430  0.91610  0.67810  Biso   1.000  C
  C43      1.0000 0.10430  0.58390  0.17810  Biso   1.000  C
  C44      1.0000 0.89570  0.08390  0.32190  Biso   1.000  C
  H21      1.0000 0.93570  0.47140  0.77780  Biso   1.000  H
  H22      1.0000 0.06430  0.97140  0.72220  Biso   1.000  H
  H23      1.0000 0.06430  0.52860  0.22220  Biso   1.000  H
  H24      1.0000 0.93570  0.02860  0.27780  Biso   1.000  H
  C45      1.0000 0.88920  0.29290  0.80010  Biso   1.000  C
  C46      1.0000 0.11080  0.79290  0.69990  Biso   1.000  C
  C47      1.0000 0.11080  0.70710  0.19990  Biso   1.000  C
  C48      1.0000 0.88920  0.20710  0.30010  Biso   1.000  C
  H25      1.0000 0.92070  0.26360  0.74000  Biso   1.000  H
  H26      1.0000 0.07930  0.76360  0.76000  Biso   1.000  H
  H27      1.0000 0.07930  0.73640  0.26000  Biso   1.000  H
  H28      1.0000 0.92070  0.23640  0.24000  Biso   1.000  H
  C49      1.0000 0.83690  0.21190  0.86600  Biso   1.000  C
  C50      1.0000 0.16310  0.71190  0.63400  Biso   1.000  C
  C51      1.0000 0.16310  0.78810  0.13400  Biso   1.000  C
  C52      1.0000 0.83690  0.28810  0.36600  Biso   1.000  C
  H29      1.0000 0.83520  0.12640  0.85180  Biso   1.000  H
  H30      1.0000 0.16480  0.62640  0.64820  Biso   1.000  H
  H31      1.0000 0.16480  0.87360  0.14820  Biso   1.000  H
  H32      1.0000 0.83520  0.37360  0.35180  Biso   1.000  H
  C53      1.0000 0.56530  0.53780  0.02590  Biso   1.000  C
  C54      1.0000 0.43470  0.03780  0.47410  Biso   1.000  C
  C55      1.0000 0.43470  0.46220  0.97410  Biso   1.000  C
  C56      1.0000 0.56530  0.96220  0.52590  Biso   1.000  C
  H33      1.0000 0.52780  0.58860  0.07820  Biso   1.000  H
  H34      1.0000 0.47220  0.08860  0.42180  Biso   1.000  H
  H35      1.0000 0.47220  0.41140  0.92180  Biso   1.000  H
  H36      1.0000 0.52780  0.91140  0.57820  Biso   1.000  H
  H37      1.0000 0.60200  0.59410  0.97690  Biso   1.000  H
  H38      1.0000 0.39800  0.09410  0.52310  Biso   1.000  H
  H39      1.0000 0.39800  0.40590  0.02310  Biso   1.000  H
  H40      1.0000 0.60200  0.90590  0.47690  Biso   1.000  H
