data_image0
_cell_length_a       7.913
_cell_length_b       8.575
_cell_length_c       17.175
_cell_angle_alpha    77.358
_cell_angle_beta     81.104
_cell_angle_gamma    65.633

_symmetry_space_group_name_H-M    "P 1"
_symmetry_int_tables_number       1

loop_
  _symmetry_equiv_pos_as_xyz
  'x, y, z'

loop_
  _atom_site_label
  _atom_site_occupancy
  _atom_site_fract_x
  _atom_site_fract_y
  _atom_site_fract_z
  _atom_site_thermal_displace_type
  _atom_site_B_iso_or_equiv
  _atom_site_type_symbol
  Cu1      1.0000 0.00000  0.00000  0.00000  Biso   1.000  Cu
  N1       1.0000 0.94540  0.88310  0.11030  Biso   1.000  N
  N2       1.0000 0.05460  0.11690  0.88970  Biso   1.000  N
  N3       1.0000 0.83420  0.74530  0.21220  Biso   1.000  N
  N4       1.0000 0.16580  0.25470  0.78780  Biso   1.000  N
  N5       1.0000 0.17740  0.76810  0.96840  Biso   1.000  N
  N6       1.0000 0.82260  0.23190  0.03160  Biso   1.000  N
  N7       1.0000 0.41230  0.59440  0.90450  Biso   1.000  N
  N8       1.0000 0.58770  0.40560  0.09550  Biso   1.000  N
  N9       1.0000 0.46210  0.74840  0.46280  Biso   1.000  N
  N10      1.0000 0.53790  0.25160  0.53720  Biso   1.000  N
  N11      1.0000 0.36420  0.86860  0.39780  Biso   1.000  N
  N12      1.0000 0.63580  0.13140  0.60220  Biso   1.000  N
  N13      1.0000 0.32830  0.04320  0.08580  Biso   1.000  N
  N14      1.0000 0.67170  0.95680  0.91420  Biso   1.000  N
  N15      1.0000 0.27650  0.53730  0.90790  Biso   1.000  N
  N16      1.0000 0.72350  0.46270  0.09210  Biso   1.000  N
  N17      1.0000 0.93650  0.80870  0.24440  Biso   1.000  N
  N18      1.0000 0.06350  0.19130  0.75560  Biso   1.000  N
  C1       1.0000 0.25350  0.00250  0.42900  Biso   1.000  C
  C2       1.0000 0.74650  0.99750  0.57100  Biso   1.000  C
  C3       1.0000 0.12260  0.16480  0.38780  Biso   1.000  C
  C4       1.0000 0.87740  0.83520  0.61220  Biso   1.000  C
  C5       1.0000 0.11950  0.19570  0.30600  Biso   1.000  C
  C6       1.0000 0.88050  0.80430  0.69400  Biso   1.000  C
  H1       1.0000 0.20330  0.11220  0.27690  Biso   1.000  H
  H2       1.0000 0.79670  0.88780  0.72310  Biso   1.000  H
  C7       1.0000 0.99630  0.34610  0.26660  Biso   1.000  C
  C8       1.0000 0.00370  0.65390  0.73340  Biso   1.000  C
  H3       1.0000 0.99470  0.36160  0.21140  Biso   1.000  H
  H4       1.0000 0.00530  0.63840  0.78860  Biso   1.000  H
  C9       1.0000 0.87400  0.47570  0.30710  Biso   1.000  C
  C10      1.0000 0.12600  0.52430  0.69290  Biso   1.000  C
  C11      1.0000 0.87660  0.44860  0.38920  Biso   1.000  C
  C12      1.0000 0.12340  0.55140  0.61080  Biso   1.000  C
  H5       1.0000 0.79540  0.53460  0.41770  Biso   1.000  H
  H6       1.0000 0.20460  0.46540  0.58230  Biso   1.000  H
  C13      1.0000 0.99860  0.29510  0.42940  Biso   1.000  C
  C14      1.0000 0.00140  0.70490  0.57060  Biso   1.000  C
  H7       1.0000 0.99830  0.27810  0.48480  Biso   1.000  H
  H8       1.0000 0.00170  0.72190  0.51520  Biso   1.000  H
  C15      1.0000 0.74030  0.64170  0.26290  Biso   1.000  C
  C16      1.0000 0.25970  0.35830  0.73710  Biso   1.000  C
  H9       1.0000 0.67000  0.61450  0.23030  Biso   1.000  H
  H10      1.0000 0.33000  0.38550  0.76970  Biso   1.000  H
  H11      1.0000 0.65320  0.70920  0.30130  Biso   1.000  H
  H12      1.0000 0.34680  0.29080  0.69870  Biso   1.000  H
  C17      1.0000 0.84230  0.79100  0.13310  Biso   1.000  C
  C18      1.0000 0.15770  0.20900  0.86690  Biso   1.000  C
  H13      1.0000 0.78370  0.76220  0.09880  Biso   1.000  H
  H14      1.0000 0.21630  0.23780  0.90120  Biso   1.000  H
  C19      1.0000 0.99830  0.88860  0.17980  Biso   1.000  C
  C20      1.0000 0.00170  0.11140  0.82020  Biso   1.000  C
  H15      1.0000 0.07440  0.94580  0.18200  Biso   1.000  H
  H16      1.0000 0.92560  0.05420  0.81800  Biso   1.000  H
  C21      1.0000 0.40230  0.81930  0.52490  Biso   1.000  C
  C22      1.0000 0.59770  0.18070  0.47510  Biso   1.000  C
  C23      1.0000 0.45130  0.75000  0.60600  Biso   1.000  C
  C24      1.0000 0.54870  0.25000  0.39400  Biso   1.000  C
  C25      1.0000 0.38320  0.85240  0.66580  Biso   1.000  C
  C26      1.0000 0.61680  0.14760  0.33420  Biso   1.000  C
  H17      1.0000 0.30580  0.96910  0.65290  Biso   1.000  H
  H18      1.0000 0.69420  0.03090  0.34710  Biso   1.000  H
  C27      1.0000 0.42850  0.78370  0.74260  Biso   1.000  C
  C28      1.0000 0.57150  0.21630  0.25740  Biso   1.000  C
  H19      1.0000 0.38280  0.85520  0.78110  Biso   1.000  H
  H20      1.0000 0.61720  0.14480  0.21890  Biso   1.000  H
  C29      1.0000 0.61010  0.50850  0.70550  Biso   1.000  C
  C30      1.0000 0.38990  0.49150  0.29450  Biso   1.000  C
  H21      1.0000 0.68600  0.39150  0.71900  Biso   1.000  H
  H22      1.0000 0.31400  0.60850  0.28100  Biso   1.000  H
  C31      1.0000 0.56900  0.57690  0.62790  Biso   1.000  C
  C32      1.0000 0.43100  0.42310  0.37210  Biso   1.000  C
  H23      1.0000 0.62040  0.50670  0.58900  Biso   1.000  H
  H24      1.0000 0.37960  0.49330  0.41100  Biso   1.000  H
  C33      1.0000 0.57990  0.53260  0.85210  Biso   1.000  C
  C34      1.0000 0.42010  0.46740  0.14790  Biso   1.000  C
  H25      1.0000 0.62780  0.40690  0.85860  Biso   1.000  H
  H26      1.0000 0.37220  0.59310  0.14140  Biso   1.000  H
  H27      1.0000 0.67420  0.56360  0.86670  Biso   1.000  H
  H28      1.0000 0.32580  0.43640  0.13330  Biso   1.000  H
  C35      1.0000 0.13690  0.64410  0.94630  Biso   1.000  C
  C36      1.0000 0.86310  0.35590  0.05370  Biso   1.000  C
  H29      1.0000 0.02130  0.63680  0.95750  Biso   1.000  H
  H30      1.0000 0.97870  0.36320  0.04250  Biso   1.000  H
  C37      1.0000 0.35150  0.73160  0.94070  Biso   1.000  C
  C38      1.0000 0.64850  0.26840  0.05930  Biso   1.000  C
  H31      1.0000 0.42160  0.79280  0.94570  Biso   1.000  H
  H32      1.0000 0.57840  0.20720  0.05430  Biso   1.000  H
  C39      1.0000 0.53990  0.61160  0.76480  Biso   1.000  C
  C40      1.0000 0.46010  0.38840  0.23520  Biso   1.000  C
  O1       1.0000 0.26740  0.98320  0.50790  Biso   1.000  O
  O2       1.0000 0.73260  0.01680  0.49210  Biso   1.000  O
  O3       1.0000 0.26900  0.00100  0.04220  Biso   1.000  O
  O4       1.0000 0.73100  0.99900  0.95780  Biso   1.000  O
  O5       1.0000 0.41790  0.96400  0.13540  Biso   1.000  O
  O6       1.0000 0.58210  0.03600  0.86460  Biso   1.000  O
  O7       1.0000 0.29280  0.19200  0.07660  Biso   1.000  O
  O8       1.0000 0.70720  0.80800  0.92340  Biso   1.000  O
