data_image0
_cell_length_a       7.853
_cell_length_b       8.349
_cell_length_c       17.153
_cell_angle_alpha    76.715
_cell_angle_beta     78.033
_cell_angle_gamma    68.386

_symmetry_space_group_name_H-M    "P 1"
_symmetry_int_tables_number       1

loop_
  _symmetry_equiv_pos_as_xyz
  'x, y, z'

loop_
  _atom_site_label
  _atom_site_occupancy
  _atom_site_fract_x
  _atom_site_fract_y
  _atom_site_fract_z
  _atom_site_thermal_displace_type
  _atom_site_B_iso_or_equiv
  _atom_site_type_symbol
  Cu1      1.0000 0.00000  0.00000  0.00000  Biso   1.000  Cu
  N1       1.0000 0.26890  0.53560  0.53650  Biso   1.000  N
  N2       1.0000 0.73110  0.46440  0.46350  Biso   1.000  N
  N3       1.0000 0.17000  0.63960  0.59600  Biso   1.000  N
  N4       1.0000 0.83000  0.36040  0.40400  Biso   1.000  N
  N5       1.0000 0.30400  0.14980  0.78470  Biso   1.000  N
  N6       1.0000 0.69600  0.85020  0.21530  Biso   1.000  N
  N7       1.0000 0.22860  0.05890  0.75490  Biso   1.000  N
  N8       1.0000 0.77140  0.94110  0.24510  Biso   1.000  N
  N9       1.0000 0.14370  0.04540  0.88870  Biso   1.000  N
  N10      1.0000 0.85630  0.95460  0.11130  Biso   1.000  N
  N11      1.0000 0.34480  0.52510  0.10200  Biso   1.000  N
  N12      1.0000 0.65520  0.47490  0.89800  Biso   1.000  N
  N13      1.0000 0.47200  0.60920  0.08200  Biso   1.000  N
  N14      1.0000 0.52800  0.39080  0.91800  Biso   1.000  N
  N15      1.0000 0.20980  0.77190  0.02920  Biso   1.000  N
  N16      1.0000 0.79020  0.22810  0.97080  Biso   1.000  N
  C1       1.0000 0.17830  0.59490  0.47630  Biso   1.000  C
  C2       1.0000 0.82170  0.40510  0.52370  Biso   1.000  C
  C3       1.0000 0.22420  0.53590  0.39820  Biso   1.000  C
  C4       1.0000 0.77580  0.46410  0.60180  Biso   1.000  C
  C5       1.0000 0.39450  0.41230  0.37980  Biso   1.000  C
  C6       1.0000 0.60550  0.58770  0.62020  Biso   1.000  C
  H1       1.0000 0.47730  0.36430  0.41750  Biso   1.000  H
  H2       1.0000 0.52270  0.63570  0.58250  Biso   1.000  H
  C7       1.0000 0.44150  0.36010  0.30480  Biso   1.000  C
  C8       1.0000 0.55850  0.63990  0.69520  Biso   1.000  C
  H3       1.0000 0.55710  0.27870  0.29220  Biso   1.000  H
  H4       1.0000 0.44290  0.72130  0.70780  Biso   1.000  H
  C9       1.0000 0.32160  0.42580  0.24940  Biso   1.000  C
  C10      1.0000 0.67840  0.57420  0.75060  Biso   1.000  C
  C11      1.0000 0.14840  0.54780  0.26820  Biso   1.000  C
  C12      1.0000 0.85160  0.45220  0.73180  Biso   1.000  C
  H5       1.0000 0.06410  0.59220  0.23120  Biso   1.000  H
  H6       1.0000 0.93590  0.40780  0.76880  Biso   1.000  H
  C13      1.0000 0.10250  0.60270  0.34240  Biso   1.000  C
  C14      1.0000 0.89750  0.39730  0.65760  Biso   1.000  C
  H7       1.0000 0.98780  0.68580  0.35450  Biso   1.000  H
  H8       1.0000 0.01220  0.31420  0.64550  Biso   1.000  H
  C15      1.0000 0.37160  0.37160  0.16670  Biso   1.000  C
  C16      1.0000 0.62840  0.62840  0.83330  Biso   1.000  C
  H9       1.0000 0.49970  0.29580  0.16040  Biso   1.000  H
  H10      1.0000 0.50030  0.70420  0.83960  Biso   1.000  H
  H11      1.0000 0.29500  0.30630  0.16260  Biso   1.000  H
  H12      1.0000 0.70500  0.69370  0.83740  Biso   1.000  H
  C17      1.0000 0.19250  0.62350  0.07040  Biso   1.000  C
  C18      1.0000 0.80750  0.37650  0.92960  Biso   1.000  C
  H13      1.0000 0.08770  0.59240  0.07630  Biso   1.000  H
  H14      1.0000 0.91230  0.40760  0.92370  Biso   1.000  H
  C19      1.0000 0.38550  0.75400  0.03710  Biso   1.000  C
  C20      1.0000 0.61450  0.24600  0.96290  Biso   1.000  C
  H15      1.0000 0.43950  0.83850  0.01240  Biso   1.000  H
  H16      1.0000 0.56050  0.16150  0.98760  Biso   1.000  H
  C21      1.0000 0.02660  0.75110  0.56610  Biso   1.000  C
  C22      1.0000 0.97340  0.24890  0.43390  Biso   1.000  C
  C23      1.0000 0.87510  0.88350  0.60420  Biso   1.000  C
  C24      1.0000 0.12490  0.11650  0.39580  Biso   1.000  C
  C25      1.0000 0.72600  0.99530  0.56520  Biso   1.000  C
  C26      1.0000 0.27400  0.00470  0.43480  Biso   1.000  C
  H17      1.0000 0.72380  0.98990  0.51180  Biso   1.000  H
  H18      1.0000 0.27620  0.01010  0.48820  Biso   1.000  H
  C27      1.0000 0.58120  0.11430  0.60470  Biso   1.000  C
  C28      1.0000 0.41880  0.88570  0.39530  Biso   1.000  C
  H19      1.0000 0.48270  0.18940  0.57760  Biso   1.000  H
  H20      1.0000 0.51730  0.81060  0.42240  Biso   1.000  H
  C29      1.0000 0.58090  0.12340  0.68390  Biso   1.000  C
  C30      1.0000 0.41910  0.87660  0.31610  Biso   1.000  C
  C31      1.0000 0.73190  0.01300  0.72300  Biso   1.000  C
  C32      1.0000 0.26810  0.98700  0.27700  Biso   1.000  C
  H21      1.0000 0.73480  0.01930  0.77620  Biso   1.000  H
  H22      1.0000 0.26520  0.98070  0.22380  Biso   1.000  H
  C33      1.0000 0.87570  0.89590  0.68350  Biso   1.000  C
  C34      1.0000 0.12430  0.10410  0.31650  Biso   1.000  C
  H23      1.0000 0.97580  0.82310  0.71010  Biso   1.000  H
  H24      1.0000 0.02420  0.17690  0.28990  Biso   1.000  H
  C35      1.0000 0.41980  0.24560  0.72970  Biso   1.000  C
  C36      1.0000 0.58020  0.75440  0.27030  Biso   1.000  C
  H25      1.0000 0.46500  0.30110  0.76090  Biso   1.000  H
  H26      1.0000 0.53500  0.69890  0.23910  Biso   1.000  H
  H27      1.0000 0.34560  0.33630  0.69180  Biso   1.000  H
  H28      1.0000 0.65440  0.66370  0.30820  Biso   1.000  H
  C37      1.0000 0.13450  0.99920  0.81890  Biso   1.000  C
  C38      1.0000 0.86550  0.00080  0.18110  Biso   1.000  C
  H29      1.0000 0.06600  0.93010  0.81730  Biso   1.000  H
  H30      1.0000 0.93400  0.06990  0.18270  Biso   1.000  H
  C39      1.0000 0.25460  0.13920  0.86340  Biso   1.000  C
  C40      1.0000 0.74540  0.86080  0.13660  Biso   1.000  C
  H31      1.0000 0.29220  0.19030  0.89650  Biso   1.000  H
  H32      1.0000 0.70780  0.80970  0.10350  Biso   1.000  H
  Cl1      1.0000 0.82390  0.82530  0.94487  Biso   1.000  Cl
  Cl2      1.0000 0.17610  0.17470  0.05513  Biso   1.000  Cl
  O1       1.0000 0.02000  0.73200  0.48990  Biso   1.000  O
  O2       1.0000 0.98000  0.26800  0.51010  Biso   1.000  O
  O3       1.0000 0.15520  0.54990  0.85690  Biso   1.000  O
  O4       1.0000 0.84480  0.45010  0.14310  Biso   1.000  O
  H33      1.0000 0.25560  0.54500  0.87030  Biso   1.000  H
  H34      1.0000 0.74440  0.45500  0.12970  Biso   1.000  H
  H35      1.0000 0.05950  0.63270  0.87150  Biso   1.000  H
  H36      1.0000 0.94050  0.36730  0.12850  Biso   1.000  H
