data_image0
_cell_length_a       8.222
_cell_length_b       12.864
_cell_length_c       9.479
_cell_angle_alpha    90
_cell_angle_beta     100.98
_cell_angle_gamma    90

_symmetry_space_group_name_H-M    "P 1"
_symmetry_int_tables_number       1

loop_
  _symmetry_equiv_pos_as_xyz
  'x, y, z'

loop_
  _atom_site_label
  _atom_site_occupancy
  _atom_site_fract_x
  _atom_site_fract_y
  _atom_site_fract_z
  _atom_site_thermal_displace_type
  _atom_site_B_iso_or_equiv
  _atom_site_type_symbol
  Cu1      1.0000 0.69717  0.37633  0.42182  Biso   1.000  Cu
  Cu2      1.0000 0.30283  0.87633  0.57818  Biso   1.000  Cu
  Sm1      1.0000 0.96290  0.41314  0.02895  Biso   1.000  Sm
  Sm2      1.0000 0.03710  0.91314  0.97105  Biso   1.000  Sm
  Cl1      1.0000 0.65250  0.54701  0.39670  Biso   1.000  Cl
  Cl2      1.0000 0.34750  0.04701  0.60330  Biso   1.000  Cl
  O1       1.0000 0.14090  0.54870  0.95820  Biso   1.000  O
  O2       1.0000 0.85910  0.04870  0.04180  Biso   1.000  O
  H1       1.0000 0.22360  0.57840  0.01240  Biso   1.000  H
  H2       1.0000 0.77640  0.07840  0.98760  Biso   1.000  H
  H3       1.0000 0.10900  0.59570  0.89300  Biso   1.000  H
  H4       1.0000 0.89100  0.09570  0.10700  Biso   1.000  H
  O3       1.0000 0.80960  0.52220  0.83010  Biso   1.000  O
  O4       1.0000 0.19040  0.02220  0.16990  Biso   1.000  O
  H5       1.0000 0.72920  0.56180  0.83770  Biso   1.000  H
  H6       1.0000 0.27080  0.06180  0.16230  Biso   1.000  H
  H7       1.0000 0.79520  0.50540  0.74160  Biso   1.000  H
  H8       1.0000 0.20480  0.00540  0.25840  Biso   1.000  H
  O5       1.0000 0.88560  0.57940  0.15160  Biso   1.000  O
  O6       1.0000 0.11440  0.07940  0.84840  Biso   1.000  O
  H9       1.0000 0.89870  0.58150  0.24040  Biso   1.000  H
  H10      1.0000 0.10130  0.08150  0.75960  Biso   1.000  H
  H11      1.0000 0.89110  0.63720  0.11550  Biso   1.000  H
  H12      1.0000 0.10890  0.13720  0.88450  Biso   1.000  H
  O7       1.0000 0.65950  0.37650  0.00400  Biso   1.000  O
  O8       1.0000 0.34050  0.87650  0.99600  Biso   1.000  O
  H13      1.0000 0.58830  0.40750  0.94010  Biso   1.000  H
  H14      1.0000 0.41170  0.90750  0.05990  Biso   1.000  H
  H15      1.0000 0.62060  0.36290  0.07880  Biso   1.000  H
  H16      1.0000 0.37940  0.86290  0.92120  Biso   1.000  H
  O9       1.0000 0.20860  0.43610  0.23390  Biso   1.000  O
  O10      1.0000 0.79140  0.93610  0.76610  Biso   1.000  O
  H17      1.0000 0.28600  0.39120  0.24420  Biso   1.000  H
  H18      1.0000 0.71400  0.89120  0.75580  Biso   1.000  H
  H19      1.0000 0.19640  0.45120  0.31720  Biso   1.000  H
  H20      1.0000 0.80360  0.95120  0.68280  Biso   1.000  H
  O11      1.0000 0.21380  0.32300  0.97660  Biso   1.000  O
  O12      1.0000 0.78620  0.82300  0.02340  Biso   1.000  O
  H21      1.0000 0.26830  0.27780  0.03020  Biso   1.000  H
  H22      1.0000 0.73170  0.77780  0.96980  Biso   1.000  H
  H23      1.0000 0.24230  0.32020  0.89640  Biso   1.000  H
  H24      1.0000 0.75770  0.82020  0.10360  Biso   1.000  H
  O13      1.0000 0.52990  0.33180  0.25390  Biso   1.000  O
  O14      1.0000 0.47010  0.83180  0.74610  Biso   1.000  O
  O15      1.0000 0.40100  0.19070  0.15070  Biso   1.000  O
  O16      1.0000 0.59900  0.69070  0.84930  Biso   1.000  O
  O17      1.0000 0.81720  0.38310  0.62130  Biso   1.000  O
  O18      1.0000 0.18280  0.88310  0.37870  Biso   1.000  O
  O19      1.0000 0.88800  0.29010  0.81620  Biso   1.000  O
  O20      1.0000 0.11200  0.79010  0.18380  Biso   1.000  O
  O21      1.0000 0.88260  0.36610  0.27310  Biso   1.000  O
  O22      1.0000 0.11740  0.86610  0.72690  Biso   1.000  O
  O23      1.0000 0.97350  0.23600  0.15850  Biso   1.000  O
  O24      1.0000 0.02650  0.73600  0.84150  Biso   1.000  O
  N1       1.0000 0.74990  0.22080  0.44600  Biso   1.000  N
  N2       1.0000 0.25010  0.72080  0.55400  Biso   1.000  N
  C1       1.0000 0.60570  0.16440  0.35950  Biso   1.000  C
  C2       1.0000 0.39430  0.66440  0.64050  Biso   1.000  C
  H25      1.0000 0.53520  0.13900  0.42330  Biso   1.000  H
  H26      1.0000 0.46480  0.63900  0.57670  Biso   1.000  H
  H27      1.0000 0.64590  0.10470  0.31380  Biso   1.000  H
  H28      1.0000 0.35410  0.60470  0.68620  Biso   1.000  H
  C3       1.0000 0.77470  0.19980  0.60270  Biso   1.000  C
  C4       1.0000 0.22530  0.69980  0.39730  Biso   1.000  C
  H29      1.0000 0.85640  0.14520  0.62810  Biso   1.000  H
  H30      1.0000 0.14360  0.64520  0.37190  Biso   1.000  H
  H31      1.0000 0.67140  0.17630  0.62720  Biso   1.000  H
  H32      1.0000 0.32860  0.67630  0.37280  Biso   1.000  H
  C5       1.0000 0.90340  0.19940  0.38890  Biso   1.000  C
  C6       1.0000 0.09660  0.69940  0.61110  Biso   1.000  C
  H33      1.0000 0.90220  0.12770  0.35700  Biso   1.000  H
  H34      1.0000 0.09780  0.62770  0.64300  Biso   1.000  H
  H35      1.0000 0.99910  0.20860  0.46530  Biso   1.000  H
  H36      1.0000 0.00090  0.70860  0.53470  Biso   1.000  H
  C7       1.0000 0.50390  0.23260  0.24500  Biso   1.000  C
  C8       1.0000 0.49610  0.73260  0.75500  Biso   1.000  C
  C9       1.0000 0.83320  0.29810  0.68730  Biso   1.000  C
  C10      1.0000 0.16680  0.79810  0.31270  Biso   1.000  C
  C11      1.0000 0.91940  0.27090  0.26400  Biso   1.000  C
  C12      1.0000 0.08060  0.77090  0.73600  Biso   1.000  C
  Cl3      1.0000 0.31880  0.36379  0.62200  Biso   1.000  Cl
  Cl4      1.0000 0.68120  0.86379  0.37800  Biso   1.000  Cl
  O25      1.0000 0.42430  0.41410  0.74110  Biso   1.000  O
  O26      1.0000 0.57570  0.91410  0.25890  Biso   1.000  O
  O27      1.0000 0.21630  0.44210  0.54140  Biso   1.000  O
  O28      1.0000 0.78370  0.94210  0.45860  Biso   1.000  O
  O29      1.0000 0.21440  0.28960  0.67500  Biso   1.000  O
  O30      1.0000 0.78560  0.78960  0.32500  Biso   1.000  O
  O31      1.0000 0.41770  0.31370  0.53550  Biso   1.000  O
  O32      1.0000 0.58230  0.81370  0.46450  Biso   1.000  O
  O33      1.0000 0.53600  0.06700  0.93500  Biso   1.000  O
  O34      1.0000 0.46400  0.56700  0.06500  Biso   1.000  O
  O35      1.0000 0.55300  0.12100  0.90900  Biso   1.000  O
  O36      1.0000 0.44700  0.62100  0.09100  Biso   1.000  O
