data_image0
_cell_length_a       13.6844
_cell_length_b       7.5053
_cell_length_c       15.929
_cell_angle_alpha    90
_cell_angle_beta     90
_cell_angle_gamma    90

_symmetry_space_group_name_H-M    "P 1"
_symmetry_int_tables_number       1

loop_
  _symmetry_equiv_pos_as_xyz
  'x, y, z'

loop_
  _atom_site_label
  _atom_site_occupancy
  _atom_site_fract_x
  _atom_site_fract_y
  _atom_site_fract_z
  _atom_site_thermal_displace_type
  _atom_site_B_iso_or_equiv
  _atom_site_type_symbol
  Cu1      1.0000 0.50000  0.50000  0.50000  Biso   1.000  Cu
  Cu2      1.0000 0.00000  0.00000  0.00000  Biso   1.000  Cu
  Cu3      1.0000 0.00000  0.00000  0.50000  Biso   1.000  Cu
  Cu4      1.0000 0.50000  0.50000  0.00000  Biso   1.000  Cu
  N1       1.0000 0.60832  0.52200  0.41567  Biso   1.000  N
  N2       1.0000 0.10832  0.02200  0.08433  Biso   1.000  N
  N3       1.0000 0.89168  0.02200  0.41567  Biso   1.000  N
  N4       1.0000 0.60832  0.47800  0.91567  Biso   1.000  N
  N5       1.0000 0.39168  0.47800  0.58433  Biso   1.000  N
  N6       1.0000 0.89168  0.97800  0.91567  Biso   1.000  N
  N7       1.0000 0.10832  0.97800  0.58433  Biso   1.000  N
  N8       1.0000 0.39168  0.52200  0.08433  Biso   1.000  N
  O1       1.0000 0.91154  0.89470  0.08245  Biso   1.000  O
  O2       1.0000 0.41154  0.39470  0.41755  Biso   1.000  O
  O3       1.0000 0.58846  0.39470  0.08245  Biso   1.000  O
  O4       1.0000 0.91154  0.10530  0.58245  Biso   1.000  O
  O5       1.0000 0.08846  0.10530  0.91755  Biso   1.000  O
  O6       1.0000 0.58846  0.60530  0.58245  Biso   1.000  O
  O7       1.0000 0.41154  0.60530  0.91755  Biso   1.000  O
  O8       1.0000 0.08846  0.89470  0.41755  Biso   1.000  O
  O9       1.0000 0.98588  0.63310  0.10862  Biso   1.000  O
  O10      1.0000 0.48588  0.13310  0.39138  Biso   1.000  O
  O11      1.0000 0.51412  0.13310  0.10862  Biso   1.000  O
  O12      1.0000 0.98588  0.36690  0.60862  Biso   1.000  O
  O13      1.0000 0.01412  0.36690  0.89138  Biso   1.000  O
  O14      1.0000 0.51412  0.86690  0.60862  Biso   1.000  O
  O15      1.0000 0.48588  0.86690  0.89138  Biso   1.000  O
  O16      1.0000 0.01412  0.63310  0.39138  Biso   1.000  O
  O17      1.0000 0.57882  0.20170  0.54537  Biso   1.000  O
  O18      1.0000 0.07882  0.70170  0.95463  Biso   1.000  O
  O19      1.0000 0.92118  0.70170  0.54537  Biso   1.000  O
  O20      1.0000 0.57882  0.79830  0.04537  Biso   1.000  O
  O21      1.0000 0.42118  0.79830  0.45463  Biso   1.000  O
  O22      1.0000 0.92118  0.29830  0.04537  Biso   1.000  O
  O23      1.0000 0.07882  0.29830  0.45463  Biso   1.000  O
  O24      1.0000 0.42118  0.20170  0.95463  Biso   1.000  O
  C1       1.0000 0.58920  0.57710  0.33743  Biso   1.000  C
  C2       1.0000 0.08920  0.07710  0.16257  Biso   1.000  C
  C3       1.0000 0.91080  0.07710  0.33743  Biso   1.000  C
  C4       1.0000 0.58920  0.42290  0.83743  Biso   1.000  C
  C5       1.0000 0.41080  0.42290  0.66257  Biso   1.000  C
  C6       1.0000 0.91080  0.92290  0.83743  Biso   1.000  C
  C7       1.0000 0.08920  0.92290  0.66257  Biso   1.000  C
  C8       1.0000 0.41080  0.57710  0.16257  Biso   1.000  C
  C9       1.0000 0.66080  0.60140  0.27787  Biso   1.000  C
  C10      1.0000 0.16080  0.10140  0.22213  Biso   1.000  C
  C11      1.0000 0.83920  0.10140  0.27787  Biso   1.000  C
  C12      1.0000 0.66080  0.39860  0.77787  Biso   1.000  C
  C13      1.0000 0.33920  0.39860  0.72213  Biso   1.000  C
  C14      1.0000 0.83920  0.89860  0.77787  Biso   1.000  C
  C15      1.0000 0.16080  0.89860  0.72213  Biso   1.000  C
  C16      1.0000 0.33920  0.60140  0.22213  Biso   1.000  C
  C17      1.0000 0.75770  0.57000  0.29801  Biso   1.000  C
  C18      1.0000 0.25770  0.07000  0.20199  Biso   1.000  C
  C19      1.0000 0.74230  0.07000  0.29801  Biso   1.000  C
  C20      1.0000 0.75770  0.43000  0.79801  Biso   1.000  C
  C21      1.0000 0.24230  0.43000  0.70199  Biso   1.000  C
  C22      1.0000 0.74230  0.93000  0.79801  Biso   1.000  C
  C23      1.0000 0.25770  0.93000  0.70199  Biso   1.000  C
  C24      1.0000 0.24230  0.57000  0.20199  Biso   1.000  C
  C25      1.0000 0.77670  0.50880  0.37881  Biso   1.000  C
  C26      1.0000 0.27670  0.00880  0.12119  Biso   1.000  C
  C27      1.0000 0.72330  0.00880  0.37881  Biso   1.000  C
  C28      1.0000 0.77670  0.49120  0.87881  Biso   1.000  C
  C29      1.0000 0.22330  0.49120  0.62119  Biso   1.000  C
  C30      1.0000 0.72330  0.99120  0.87881  Biso   1.000  C
  C31      1.0000 0.27670  0.99120  0.62119  Biso   1.000  C
  C32      1.0000 0.22330  0.50880  0.12119  Biso   1.000  C
  C33      1.0000 0.70170  0.48840  0.43545  Biso   1.000  C
  C34      1.0000 0.20170  0.98840  0.06455  Biso   1.000  C
  C35      1.0000 0.79830  0.98840  0.43545  Biso   1.000  C
  C36      1.0000 0.70170  0.51160  0.93545  Biso   1.000  C
  C37      1.0000 0.29830  0.51160  0.56455  Biso   1.000  C
  C38      1.0000 0.79830  0.01160  0.93545  Biso   1.000  C
  C39      1.0000 0.20170  0.01160  0.56455  Biso   1.000  C
  C40      1.0000 0.29830  0.48840  0.06455  Biso   1.000  C
  C41      1.0000 0.83790  0.60070  0.23862  Biso   1.000  C
  C42      1.0000 0.33790  0.10070  0.26138  Biso   1.000  C
  C43      1.0000 0.66210  0.10070  0.23862  Biso   1.000  C
  C44      1.0000 0.83790  0.39930  0.73862  Biso   1.000  C
  C45      1.0000 0.16210  0.39930  0.76138  Biso   1.000  C
  C46      1.0000 0.66210  0.89930  0.73862  Biso   1.000  C
  C47      1.0000 0.33790  0.89930  0.76138  Biso   1.000  C
  C48      1.0000 0.16210  0.60070  0.26138  Biso   1.000  C
  C49      1.0000 0.83110  0.69810  0.17034  Biso   1.000  C
  C50      1.0000 0.33110  0.19810  0.32966  Biso   1.000  C
  C51      1.0000 0.66890  0.19810  0.17034  Biso   1.000  C
  C52      1.0000 0.83110  0.30190  0.67034  Biso   1.000  C
  C53      1.0000 0.16890  0.30190  0.82966  Biso   1.000  C
  C54      1.0000 0.66890  0.80190  0.67034  Biso   1.000  C
  C55      1.0000 0.33110  0.80190  0.82966  Biso   1.000  C
  C56      1.0000 0.16890  0.69810  0.32966  Biso   1.000  C
  C57      1.0000 0.91750  0.74220  0.11568  Biso   1.000  C
  C58      1.0000 0.41750  0.24220  0.38432  Biso   1.000  C
  C59      1.0000 0.58250  0.24220  0.11568  Biso   1.000  C
  C60      1.0000 0.91750  0.25780  0.61568  Biso   1.000  C
  C61      1.0000 0.08250  0.25780  0.88432  Biso   1.000  C
  C62      1.0000 0.58250  0.75780  0.61568  Biso   1.000  C
  C63      1.0000 0.41750  0.75780  0.88432  Biso   1.000  C
  C64      1.0000 0.08250  0.74220  0.38432  Biso   1.000  C
  H1       1.0000 0.51690  0.60100  0.32410  Biso   1.000  H
  H2       1.0000 0.01690  0.10100  0.17590  Biso   1.000  H
  H3       1.0000 0.98310  0.10100  0.32410  Biso   1.000  H
  H4       1.0000 0.51690  0.39900  0.82410  Biso   1.000  H
  H5       1.0000 0.48310  0.39900  0.67590  Biso   1.000  H
  H6       1.0000 0.98310  0.89900  0.82410  Biso   1.000  H
  H7       1.0000 0.01690  0.89900  0.67590  Biso   1.000  H
  H8       1.0000 0.48310  0.60100  0.17590  Biso   1.000  H
  H9       1.0000 0.64850  0.65720  0.22480  Biso   1.000  H
  H10      1.0000 0.14850  0.15720  0.27520  Biso   1.000  H
  H11      1.0000 0.85150  0.15720  0.22480  Biso   1.000  H
  H12      1.0000 0.64850  0.34280  0.72480  Biso   1.000  H
  H13      1.0000 0.35150  0.34280  0.77520  Biso   1.000  H
  H14      1.0000 0.85150  0.84280  0.72480  Biso   1.000  H
  H15      1.0000 0.14850  0.84280  0.77520  Biso   1.000  H
  H16      1.0000 0.35150  0.65720  0.27520  Biso   1.000  H
  H17      1.0000 0.84250  0.48550  0.39790  Biso   1.000  H
  H18      1.0000 0.34250  0.98550  0.10210  Biso   1.000  H
  H19      1.0000 0.65750  0.98550  0.39790  Biso   1.000  H
  H20      1.0000 0.84250  0.51450  0.89790  Biso   1.000  H
  H21      1.0000 0.15750  0.51450  0.60210  Biso   1.000  H
  H22      1.0000 0.65750  0.01450  0.89790  Biso   1.000  H
  H23      1.0000 0.34250  0.01450  0.60210  Biso   1.000  H
  H24      1.0000 0.15750  0.48550  0.10210  Biso   1.000  H
  H25      1.0000 0.72000  0.46310  0.49660  Biso   1.000  H
  H26      1.0000 0.22000  0.96310  0.00340  Biso   1.000  H
  H27      1.0000 0.78000  0.96310  0.49660  Biso   1.000  H
  H28      1.0000 0.72000  0.53690  0.99660  Biso   1.000  H
  H29      1.0000 0.28000  0.53690  0.50340  Biso   1.000  H
  H30      1.0000 0.78000  0.03690  0.99660  Biso   1.000  H
  H31      1.0000 0.22000  0.03690  0.50340  Biso   1.000  H
  H32      1.0000 0.28000  0.46310  0.00340  Biso   1.000  H
  H33      1.0000 0.89960  0.53800  0.24970  Biso   1.000  H
  H34      1.0000 0.39960  0.03800  0.25030  Biso   1.000  H
  H35      1.0000 0.60040  0.03800  0.24970  Biso   1.000  H
  H36      1.0000 0.89960  0.46200  0.74970  Biso   1.000  H
  H37      1.0000 0.10040  0.46200  0.75030  Biso   1.000  H
  H38      1.0000 0.60040  0.96200  0.74970  Biso   1.000  H
  H39      1.0000 0.39960  0.96200  0.75030  Biso   1.000  H
  H40      1.0000 0.10040  0.53800  0.25030  Biso   1.000  H
  H41      1.0000 0.76820  0.75300  0.15570  Biso   1.000  H
  H42      1.0000 0.26820  0.25300  0.34430  Biso   1.000  H
  H43      1.0000 0.73180  0.25300  0.15570  Biso   1.000  H
  H44      1.0000 0.76820  0.24700  0.65570  Biso   1.000  H
  H45      1.0000 0.23180  0.24700  0.84430  Biso   1.000  H
  H46      1.0000 0.73180  0.74700  0.65570  Biso   1.000  H
  H47      1.0000 0.26820  0.74700  0.84430  Biso   1.000  H
  H48      1.0000 0.23180  0.75300  0.34430  Biso   1.000  H
  H49      1.0000 0.56340  0.16330  0.49250  Biso   1.000  H
  H50      1.0000 0.06340  0.66330  0.00750  Biso   1.000  H
  H51      1.0000 0.93660  0.66330  0.49250  Biso   1.000  H
  H52      1.0000 0.56340  0.83670  0.99250  Biso   1.000  H
  H53      1.0000 0.43660  0.83670  0.50750  Biso   1.000  H
  H54      1.0000 0.93660  0.33670  0.99250  Biso   1.000  H
  H55      1.0000 0.06340  0.33670  0.50750  Biso   1.000  H
  H56      1.0000 0.43660  0.16330  0.00750  Biso   1.000  H
  H57      1.0000 0.55680  0.09390  0.57520  Biso   1.000  H
  H58      1.0000 0.05680  0.59390  0.92480  Biso   1.000  H
  H59      1.0000 0.94320  0.59390  0.57520  Biso   1.000  H
  H60      1.0000 0.55680  0.90610  0.07520  Biso   1.000  H
  H61      1.0000 0.44320  0.90610  0.42480  Biso   1.000  H
  H62      1.0000 0.94320  0.40610  0.07520  Biso   1.000  H
  H63      1.0000 0.05680  0.40610  0.42480  Biso   1.000  H
  H64      1.0000 0.44320  0.09390  0.92480  Biso   1.000  H
