data_image0
_cell_length_a       4.889
_cell_length_b       10.925
_cell_length_c       15.478
_cell_angle_alpha    90
_cell_angle_beta     97.62
_cell_angle_gamma    90

_symmetry_space_group_name_H-M    "P 1"
_symmetry_int_tables_number       1

loop_
  _symmetry_equiv_pos_as_xyz
  'x, y, z'

loop_
  _atom_site_label
  _atom_site_occupancy
  _atom_site_fract_x
  _atom_site_fract_y
  _atom_site_fract_z
  _atom_site_thermal_displace_type
  _atom_site_B_iso_or_equiv
  _atom_site_type_symbol
  Cu1      1.0000 0.99901  0.02194  0.00021  Biso   1.000  Cu
  Cu2      1.0000 0.99901  0.97806  0.50021  Biso   1.000  Cu
  N1       1.0000 0.92940  0.84080  0.01071  Biso   1.000  N
  N2       1.0000 0.92940  0.15920  0.51071  Biso   1.000  N
  N3       1.0000 0.67410  0.00790  0.90510  Biso   1.000  N
  N4       1.0000 0.67410  0.99210  0.40510  Biso   1.000  N
  O1       1.0000 0.06930  0.18502  0.96164  Biso   1.000  O
  O2       1.0000 0.06930  0.81498  0.46164  Biso   1.000  O
  O3       1.0000 0.31090  0.35570  0.97003  Biso   1.000  O
  O4       1.0000 0.31090  0.64430  0.47003  Biso   1.000  O
  O5       1.0000 0.76540  0.08800  0.11082  Biso   1.000  O
  O6       1.0000 0.76540  0.91200  0.61082  Biso   1.000  O
  O7       1.0000 0.35640  0.00540  0.06720  Biso   1.000  O
  O8       1.0000 0.35640  0.99460  0.56720  Biso   1.000  O
  C1       1.0000 0.06370  0.75980  0.06380  Biso   1.000  C
  C2       1.0000 0.06370  0.24020  0.56380  Biso   1.000  C
  C3       1.0000 0.98610  0.63640  0.06410  Biso   1.000  C
  C4       1.0000 0.98610  0.36360  0.56410  Biso   1.000  C
  C5       1.0000 0.76330  0.59680  0.00800  Biso   1.000  C
  C6       1.0000 0.76330  0.40320  0.50800  Biso   1.000  C
  C7       1.0000 0.61720  0.68060  0.95070  Biso   1.000  C
  C8       1.0000 0.61720  0.31940  0.45070  Biso   1.000  C
  C9       1.0000 0.37880  0.65000  0.88870  Biso   1.000  C
  C10      1.0000 0.37880  0.35000  0.38870  Biso   1.000  C
  C11      1.0000 0.25080  0.73460  0.83610  Biso   1.000  C
  C12      1.0000 0.25080  0.26540  0.33610  Biso   1.000  C
  C13      1.0000 0.34070  0.86080  0.83790  Biso   1.000  C
  C14      1.0000 0.34070  0.13920  0.33790  Biso   1.000  C
  C15      1.0000 0.21670  0.95430  0.78460  Biso   1.000  C
  C16      1.0000 0.21670  0.04570  0.28460  Biso   1.000  C
  C17      1.0000 0.32380  0.07120  0.79330  Biso   1.000  C
  C18      1.0000 0.32380  0.92880  0.29330  Biso   1.000  C
  C19      1.0000 0.55330  0.09430  0.85420  Biso   1.000  C
  C20      1.0000 0.55330  0.90570  0.35420  Biso   1.000  C
  C21      1.0000 0.57130  0.89250  0.89786  Biso   1.000  C
  C22      1.0000 0.57130  0.10750  0.39786  Biso   1.000  C
  C23      1.0000 0.70760  0.80200  0.95406  Biso   1.000  C
  C24      1.0000 0.70760  0.19800  0.45406  Biso   1.000  C
  C25      1.0000 0.24540  0.25840  0.00241  Biso   1.000  C
  C26      1.0000 0.24540  0.74160  0.50241  Biso   1.000  C
  C27      1.0000 0.37380  0.22240  0.09462  Biso   1.000  C
  C28      1.0000 0.37380  0.77760  0.59462  Biso   1.000  C
  C29      1.0000 0.51060  0.09650  0.09144  Biso   1.000  C
  C30      1.0000 0.51060  0.90350  0.59144  Biso   1.000  C
  C31      1.0000 0.56530  0.31920  0.13910  Biso   1.000  C
  C32      1.0000 0.56530  0.68080  0.63910  Biso   1.000  C
  H1       1.0000 0.46630  0.39470  0.14170  Biso   1.000  H
  H2       1.0000 0.46630  0.60530  0.64170  Biso   1.000  H
  H3       1.0000 0.71750  0.33130  0.10670  Biso   1.000  H
  H4       1.0000 0.71750  0.66870  0.60670  Biso   1.000  H
  H5       1.0000 0.63360  0.29280  0.19720  Biso   1.000  H
  H6       1.0000 0.63360  0.70720  0.69720  Biso   1.000  H
  H7       1.0000 0.20600  0.78700  0.10600  Biso   1.000  H
  H8       1.0000 0.20600  0.21300  0.60600  Biso   1.000  H
  H9       1.0000 0.08200  0.58400  0.10000  Biso   1.000  H
  H10      1.0000 0.08200  0.41600  0.60000  Biso   1.000  H
  H11      1.0000 0.71000  0.51500  0.00500  Biso   1.000  H
  H12      1.0000 0.71000  0.48500  0.50500  Biso   1.000  H
  H13      1.0000 0.30900  0.58100  0.88300  Biso   1.000  H
  H14      1.0000 0.30900  0.41900  0.38300  Biso   1.000  H
  H15      1.0000 0.11900  0.71200  0.79400  Biso   1.000  H
  H16      1.0000 0.11900  0.28800  0.29400  Biso   1.000  H
  H17      1.0000 0.06200  0.94900  0.74600  Biso   1.000  H
  H18      1.0000 0.06200  0.05100  0.24600  Biso   1.000  H
  H19      1.0000 0.25600  0.14000  0.76600  Biso   1.000  H
  H20      1.0000 0.25600  0.86000  0.26600  Biso   1.000  H
  H21      1.0000 0.60000  0.17400  0.86500  Biso   1.000  H
  H22      1.0000 0.60000  0.82600  0.36500  Biso   1.000  H
  H23      1.0000 0.21100  0.21000  0.12500  Biso   1.000  H
  H24      1.0000 0.21100  0.79000  0.62500  Biso   1.000  H
  O9       1.0000 0.08700  0.63060  0.28970  Biso   1.000  O
  O10      1.0000 0.08700  0.36940  0.78970  Biso   1.000  O
  C33      1.0000 0.81920  0.58970  0.28640  Biso   1.000  C
  C34      1.0000 0.81920  0.41030  0.78640  Biso   1.000  C
  H25      1.0000 0.76040  0.59790  0.34290  Biso   1.000  H
  H26      1.0000 0.76040  0.40210  0.84290  Biso   1.000  H
  H27      1.0000 0.80960  0.50530  0.26910  Biso   1.000  H
  H28      1.0000 0.80960  0.49470  0.76910  Biso   1.000  H
  H29      1.0000 0.70110  0.63750  0.24480  Biso   1.000  H
  H30      1.0000 0.70110  0.36250  0.74480  Biso   1.000  H
  H31      1.0000 0.13600  0.63600  0.33800  Biso   1.000  H
  H32      1.0000 0.13600  0.36400  0.83800  Biso   1.000  H
