data_image0
_cell_length_a       4.862
_cell_length_b       20.48
_cell_length_c       13.333
_cell_angle_alpha    90
_cell_angle_beta     95.66
_cell_angle_gamma    90

_symmetry_space_group_name_H-M    "P 1"
_symmetry_int_tables_number       1

loop_
  _symmetry_equiv_pos_as_xyz
  'x, y, z'

loop_
  _atom_site_label
  _atom_site_occupancy
  _atom_site_fract_x
  _atom_site_fract_y
  _atom_site_fract_z
  _atom_site_thermal_displace_type
  _atom_site_B_iso_or_equiv
  _atom_site_type_symbol
  Cu1      1.0000 0.09946  0.84001  0.34581  Biso   1.000  Cu
  Cu2      1.0000 0.40054  0.34001  0.15419  Biso   1.000  Cu
  Cu3      1.0000 0.90054  0.15999  0.65419  Biso   1.000  Cu
  Cu4      1.0000 0.59946  0.65999  0.84581  Biso   1.000  Cu
  N1       1.0000 0.18900  0.74610  0.37340  Biso   1.000  N
  N2       1.0000 0.31100  0.24610  0.12660  Biso   1.000  N
  N3       1.0000 0.81100  0.25390  0.62660  Biso   1.000  N
  N4       1.0000 0.68900  0.75390  0.87340  Biso   1.000  N
  N5       1.0000 0.40910  0.85060  0.45550  Biso   1.000  N
  N6       1.0000 0.09090  0.35060  0.04450  Biso   1.000  N
  N7       1.0000 0.59090  0.14940  0.54450  Biso   1.000  N
  N8       1.0000 0.90910  0.64940  0.95550  Biso   1.000  N
  O1       1.0000 0.01690  0.93140  0.34470  Biso   1.000  O
  O2       1.0000 0.48310  0.43140  0.15530  Biso   1.000  O
  O3       1.0000 0.98310  0.06860  0.65530  Biso   1.000  O
  O4       1.0000 0.51690  0.56860  0.84470  Biso   1.000  O
  O5       1.0000 0.34440  0.84645  0.20210  Biso   1.000  O
  O6       1.0000 0.15560  0.34645  0.29790  Biso   1.000  O
  O7       1.0000 0.65560  0.15355  0.79790  Biso   1.000  O
  O8       1.0000 0.84440  0.65355  0.70210  Biso   1.000  O
  O9       1.0000 0.75000  0.81611  0.27440  Biso   1.000  O
  O10      1.0000 0.75000  0.31611  0.22560  Biso   1.000  O
  O11      1.0000 0.25000  0.18389  0.72560  Biso   1.000  O
  O12      1.0000 0.25000  0.68389  0.77440  Biso   1.000  O
  C1       1.0000 0.06510  0.69540  0.32380  Biso   1.000  C
  C2       1.0000 0.43490  0.19540  0.17620  Biso   1.000  C
  C3       1.0000 0.93490  0.30460  0.67620  Biso   1.000  C
  C4       1.0000 0.56510  0.80460  0.82380  Biso   1.000  C
  C5       1.0000 0.14900  0.63140  0.34080  Biso   1.000  C
  C6       1.0000 0.35100  0.13140  0.15920  Biso   1.000  C
  C7       1.0000 0.85100  0.36860  0.65920  Biso   1.000  C
  C8       1.0000 0.64900  0.86860  0.84080  Biso   1.000  C
  C9       1.0000 0.36540  0.62040  0.41340  Biso   1.000  C
  C10      1.0000 0.13460  0.12040  0.08660  Biso   1.000  C
  C11      1.0000 0.63460  0.37960  0.58660  Biso   1.000  C
  C12      1.0000 0.86540  0.87960  0.91340  Biso   1.000  C
  C13      1.0000 0.49200  0.67230  0.46610  Biso   1.000  C
  C14      1.0000 0.00800  0.17230  0.03390  Biso   1.000  C
  C15      1.0000 0.50800  0.32770  0.53390  Biso   1.000  C
  C16      1.0000 0.99200  0.82770  0.96610  Biso   1.000  C
  C17      1.0000 0.40220  0.73510  0.44370  Biso   1.000  C
  C18      1.0000 0.09780  0.23510  0.05630  Biso   1.000  C
  C19      1.0000 0.59780  0.26490  0.55630  Biso   1.000  C
  C20      1.0000 0.90220  0.76490  0.94370  Biso   1.000  C
  C21      1.0000 0.52530  0.79460  0.49150  Biso   1.000  C
  C22      1.0000 0.97470  0.29460  0.00850  Biso   1.000  C
  C23      1.0000 0.47470  0.20540  0.50850  Biso   1.000  C
  C24      1.0000 0.02530  0.70540  0.99150  Biso   1.000  C
  C25      1.0000 0.74610  0.79540  0.56590  Biso   1.000  C
  C26      1.0000 0.75390  0.29540  0.93410  Biso   1.000  C
  C27      1.0000 0.25390  0.20460  0.43410  Biso   1.000  C
  C28      1.0000 0.24610  0.70460  0.06590  Biso   1.000  C
  C29      1.0000 0.84880  0.85430  0.60210  Biso   1.000  C
  C30      1.0000 0.65120  0.35430  0.89790  Biso   1.000  C
  C31      1.0000 0.15120  0.14570  0.39790  Biso   1.000  C
  C32      1.0000 0.34880  0.64570  0.10210  Biso   1.000  C
  C33      1.0000 0.73080  0.91150  0.56510  Biso   1.000  C
  C34      1.0000 0.76920  0.41150  0.93490  Biso   1.000  C
  C35      1.0000 0.26920  0.08850  0.43490  Biso   1.000  C
  C36      1.0000 0.23080  0.58850  0.06510  Biso   1.000  C
  C37      1.0000 0.50980  0.90770  0.49250  Biso   1.000  C
  C38      1.0000 0.99020  0.40770  0.00750  Biso   1.000  C
  C39      1.0000 0.49020  0.09230  0.50750  Biso   1.000  C
  C40      1.0000 0.00980  0.59230  0.99250  Biso   1.000  C
  O13      1.0000 0.79250  0.01864  0.28240  Biso   1.000  O
  O14      1.0000 0.70750  0.51864  0.21760  Biso   1.000  O
  O15      1.0000 0.20750  0.98136  0.71760  Biso   1.000  O
  O16      1.0000 0.29250  0.48136  0.78240  Biso   1.000  O
  C41      1.0000 0.85010  0.96090  0.27810  Biso   1.000  C
  C42      1.0000 0.64990  0.46090  0.22190  Biso   1.000  C
  C43      1.0000 0.14990  0.03910  0.72190  Biso   1.000  C
  C44      1.0000 0.35010  0.53910  0.77810  Biso   1.000  C
  C45      1.0000 0.72450  0.91930  0.18850  Biso   1.000  C
  C46      1.0000 0.77550  0.41930  0.31150  Biso   1.000  C
  C47      1.0000 0.27550  0.08070  0.81150  Biso   1.000  C
  C48      1.0000 0.22450  0.58070  0.68850  Biso   1.000  C
  C49      1.0000 0.59290  0.85670  0.22360  Biso   1.000  C
  C50      1.0000 0.90710  0.35670  0.27640  Biso   1.000  C
  C51      1.0000 0.40710  0.14330  0.77640  Biso   1.000  C
  C52      1.0000 0.09290  0.64330  0.72360  Biso   1.000  C
  C53      1.0000 0.52980  0.95850  0.11640  Biso   1.000  C
  C54      1.0000 0.97020  0.45850  0.38360  Biso   1.000  C
  C55      1.0000 0.47020  0.04150  0.88360  Biso   1.000  C
  C56      1.0000 0.02980  0.54150  0.61640  Biso   1.000  C
  H1       1.0000 0.46470  0.93180  0.05990  Biso   1.000  H
  H2       1.0000 0.03530  0.43180  0.44010  Biso   1.000  H
  H3       1.0000 0.53530  0.06820  0.94010  Biso   1.000  H
  H4       1.0000 0.96470  0.56820  0.55990  Biso   1.000  H
  H5       1.0000 0.62560  0.99580  0.09330  Biso   1.000  H
  H6       1.0000 0.87440  0.49580  0.40670  Biso   1.000  H
  H7       1.0000 0.37440  0.00420  0.90670  Biso   1.000  H
  H8       1.0000 0.12560  0.50420  0.59330  Biso   1.000  H
  H9       1.0000 0.37560  0.97300  0.15040  Biso   1.000  H
  H10      1.0000 0.12440  0.47300  0.34960  Biso   1.000  H
  H11      1.0000 0.62440  0.02700  0.84960  Biso   1.000  H
  H12      1.0000 0.87560  0.52700  0.65040  Biso   1.000  H
  H13      1.0000 0.91400  0.70700  0.27000  Biso   1.000  H
  H14      1.0000 0.58600  0.20700  0.23000  Biso   1.000  H
  H15      1.0000 0.08600  0.29300  0.73000  Biso   1.000  H
  H16      1.0000 0.41400  0.79300  0.77000  Biso   1.000  H
  H17      1.0000 0.05900  0.59800  0.30000  Biso   1.000  H
  H18      1.0000 0.44100  0.09800  0.20000  Biso   1.000  H
  H19      1.0000 0.94100  0.40200  0.70000  Biso   1.000  H
  H20      1.0000 0.55900  0.90200  0.80000  Biso   1.000  H
  H21      1.0000 0.43300  0.57600  0.42500  Biso   1.000  H
  H22      1.0000 0.06700  0.07600  0.07500  Biso   1.000  H
  H23      1.0000 0.56700  0.42400  0.57500  Biso   1.000  H
  H24      1.0000 0.93300  0.92400  0.92500  Biso   1.000  H
  H25      1.0000 0.64100  0.66300  0.51700  Biso   1.000  H
  H26      1.0000 0.85900  0.16300  0.98300  Biso   1.000  H
  H27      1.0000 0.35900  0.33700  0.48300  Biso   1.000  H
  H28      1.0000 0.14100  0.83700  0.01700  Biso   1.000  H
  H29      1.0000 0.81800  0.75800  0.59000  Biso   1.000  H
  H30      1.0000 0.68200  0.25800  0.91000  Biso   1.000  H
  H31      1.0000 0.18200  0.24200  0.41000  Biso   1.000  H
  H32      1.0000 0.31800  0.74200  0.09000  Biso   1.000  H
  H33      1.0000 0.00200  0.85700  0.65300  Biso   1.000  H
  H34      1.0000 0.49800  0.35700  0.84700  Biso   1.000  H
  H35      1.0000 0.99800  0.14300  0.34700  Biso   1.000  H
  H36      1.0000 0.50200  0.64300  0.15300  Biso   1.000  H
  H37      1.0000 0.80400  0.95300  0.58500  Biso   1.000  H
  H38      1.0000 0.69600  0.45300  0.91500  Biso   1.000  H
  H39      1.0000 0.19600  0.04700  0.41500  Biso   1.000  H
  H40      1.0000 0.30400  0.54700  0.08500  Biso   1.000  H
  H41      1.0000 0.43000  0.94400  0.46200  Biso   1.000  H
  H42      1.0000 0.07000  0.44400  0.03800  Biso   1.000  H
  H43      1.0000 0.57000  0.05600  0.53800  Biso   1.000  H
  H44      1.0000 0.93000  0.55600  0.96200  Biso   1.000  H
  H45      1.0000 0.86800  0.90700  0.15800  Biso   1.000  H
  H46      1.0000 0.63200  0.40700  0.34200  Biso   1.000  H
  H47      1.0000 0.13200  0.09300  0.84200  Biso   1.000  H
  H48      1.0000 0.36800  0.59300  0.65800  Biso   1.000  H
