data_image0
_cell_length_a       11.6021
_cell_length_b       12.7762
_cell_length_c       13.9264
_cell_angle_alpha    64.995
_cell_angle_beta     86.6
_cell_angle_gamma    84.435

_symmetry_space_group_name_H-M    "P 1"
_symmetry_int_tables_number       1

loop_
  _symmetry_equiv_pos_as_xyz
  'x, y, z'

loop_
  _atom_site_label
  _atom_site_occupancy
  _atom_site_fract_x
  _atom_site_fract_y
  _atom_site_fract_z
  _atom_site_thermal_displace_type
  _atom_site_B_iso_or_equiv
  _atom_site_type_symbol
  C1       1.0000 0.35430  0.51660  0.52860  Biso   1.000  C
  C2       1.0000 0.64570  0.48340  0.47140  Biso   1.000  C
  H1       1.0000 0.41520  0.46190  0.53320  Biso   1.000  H
  H2       1.0000 0.58480  0.53810  0.46680  Biso   1.000  H
  C3       1.0000 0.35010  0.58930  0.58290  Biso   1.000  C
  C4       1.0000 0.64990  0.41070  0.41710  Biso   1.000  C
  H3       1.0000 0.40570  0.59170  0.62720  Biso   1.000  H
  H4       1.0000 0.59430  0.40830  0.37280  Biso   1.000  H
  C5       1.0000 0.24590  0.65570  0.55620  Biso   1.000  C
  C6       1.0000 0.75410  0.34430  0.44380  Biso   1.000  C
  H5       1.0000 0.21740  0.71130  0.58000  Biso   1.000  H
  H6       1.0000 0.78260  0.28870  0.42000  Biso   1.000  H
  C7       1.0000 0.19030  0.62390  0.48610  Biso   1.000  C
  C8       1.0000 0.80970  0.37610  0.51390  Biso   1.000  C
  C9       1.0000 0.08450  0.67190  0.43530  Biso   1.000  C
  C10      1.0000 0.91550  0.32810  0.56470  Biso   1.000  C
  C11      1.0000 0.04160  0.64460  0.35700  Biso   1.000  C
  C12      1.0000 0.95840  0.35540  0.64300  Biso   1.000  C
  C13      1.0000 0.92770  0.67960  0.31270  Biso   1.000  C
  C14      1.0000 0.07230  0.32040  0.68730  Biso   1.000  C
  H7       1.0000 0.87000  0.72550  0.32940  Biso   1.000  H
  H8       1.0000 0.13000  0.27450  0.67060  Biso   1.000  H
  C15      1.0000 0.92010  0.63170  0.24020  Biso   1.000  C
  C16      1.0000 0.07990  0.36830  0.75980  Biso   1.000  C
  H9       1.0000 0.85700  0.63890  0.19900  Biso   1.000  H
  H10      1.0000 0.14300  0.36110  0.80100  Biso   1.000  H
  C17      1.0000 0.02940  0.56960  0.24260  Biso   1.000  C
  C18      1.0000 0.97060  0.43040  0.75740  Biso   1.000  C
  H11      1.0000 0.04910  0.52960  0.20080  Biso   1.000  H
  H12      1.0000 0.95090  0.47040  0.79920  Biso   1.000  H
  C19      1.0000 0.01330  0.75700  0.46490  Biso   1.000  C
  C20      1.0000 0.98670  0.24300  0.53510  Biso   1.000  C
  C21      1.0000 0.97090  0.72290  0.56870  Biso   1.000  C
  C22      1.0000 0.02910  0.27710  0.43130  Biso   1.000  C
  H13      1.0000 0.99220  0.64890  0.61940  Biso   1.000  H
  H14      1.0000 0.00780  0.35110  0.38060  Biso   1.000  H
  C23      1.0000 0.89690  0.79820  0.59770  Biso   1.000  C
  C24      1.0000 0.10310  0.20180  0.40230  Biso   1.000  C
  H15      1.0000 0.86720  0.77470  0.66650  Biso   1.000  H
  H16      1.0000 0.13280  0.22530  0.33350  Biso   1.000  H
  C25      1.0000 0.86860  0.91070  0.51970  Biso   1.000  C
  C26      1.0000 0.13140  0.08930  0.48030  Biso   1.000  C
  C27      1.0000 0.91510  0.94470  0.41810  Biso   1.000  C
  C28      1.0000 0.08490  0.05530  0.58190  Biso   1.000  C
  H17      1.0000 0.89830  0.01990  0.36760  Biso   1.000  H
  H18      1.0000 0.10170  0.98010  0.63240  Biso   1.000  H
  C29      1.0000 0.98570  0.86840  0.39160  Biso   1.000  C
  C30      1.0000 0.01430  0.13160  0.60840  Biso   1.000  C
  H19      1.0000 0.01550  0.89230  0.32280  Biso   1.000  H
  H20      1.0000 0.98450  0.10770  0.67720  Biso   1.000  H
  C31      1.0000 0.79250  0.98760  0.54850  Biso   1.000  C
  C32      1.0000 0.20750  0.01240  0.45150  Biso   1.000  C
  C33      1.0000 0.26370  0.57470  0.12150  Biso   1.000  C
  C34      1.0000 0.73630  0.42530  0.87850  Biso   1.000  C
  H21      1.0000 0.21520  0.64010  0.11340  Biso   1.000  H
  H22      1.0000 0.78480  0.35990  0.88660  Biso   1.000  H
  C35      1.0000 0.31980  0.55370  0.03600  Biso   1.000  C
  C36      1.0000 0.68020  0.44630  0.96400  Biso   1.000  C
  H23      1.0000 0.31420  0.60200  0.96410  Biso   1.000  H
  H24      1.0000 0.68580  0.39800  0.03590  Biso   1.000  H
  C37      1.0000 0.38160  0.45190  0.07900  Biso   1.000  C
  C38      1.0000 0.61840  0.54810  0.92100  Biso   1.000  C
  H25      1.0000 0.42690  0.41600  0.04250  Biso   1.000  H
  H26      1.0000 0.57310  0.58400  0.95750  Biso   1.000  H
  C39      1.0000 0.36550  0.40780  0.19180  Biso   1.000  C
  C40      1.0000 0.63450  0.59220  0.80820  Biso   1.000  C
  C41      1.0000 0.41830  0.30780  0.26750  Biso   1.000  C
  C42      1.0000 0.58170  0.69220  0.73250  Biso   1.000  C
  C43      1.0000 0.40030  0.27080  0.37830  Biso   1.000  C
  C44      1.0000 0.59970  0.72920  0.62170  Biso   1.000  C
  C45      1.0000 0.44240  0.16270  0.45860  Biso   1.000  C
  C46      1.0000 0.55760  0.83730  0.54140  Biso   1.000  C
  H27      1.0000 0.48830  0.10440  0.44820  Biso   1.000  H
  H28      1.0000 0.51170  0.89560  0.55180  Biso   1.000  H
  C47      1.0000 0.40250  0.16020  0.55540  Biso   1.000  C
  C48      1.0000 0.59750  0.83980  0.44460  Biso   1.000  C
  H29      1.0000 0.41440  0.10000  0.62210  Biso   1.000  H
  H30      1.0000 0.58560  0.90000  0.37790  Biso   1.000  H
  C49      1.0000 0.34000  0.26830  0.53110  Biso   1.000  C
  C50      1.0000 0.66000  0.73170  0.46890  Biso   1.000  C
  H31      1.0000 0.30430  0.29090  0.58160  Biso   1.000  H
  H32      1.0000 0.69570  0.70910  0.41840  Biso   1.000  H
  C51      1.0000 0.50110  0.23340  0.23330  Biso   1.000  C
  C52      1.0000 0.49890  0.76660  0.76670  Biso   1.000  C
  C53      1.0000 0.46210  0.16340  0.18920  Biso   1.000  C
  C54      1.0000 0.53790  0.83660  0.81080  Biso   1.000  C
  H33      1.0000 0.38330  0.16200  0.18110  Biso   1.000  H
  H34      1.0000 0.61670  0.83800  0.81890  Biso   1.000  H
  C55      1.0000 0.54300  0.09600  0.15770  Biso   1.000  C
  C56      1.0000 0.45700  0.90400  0.84230  Biso   1.000  C
  H35      1.0000 0.51810  0.04880  0.12860  Biso   1.000  H
  H36      1.0000 0.48190  0.95120  0.87140  Biso   1.000  H
  C57      1.0000 0.66000  0.09810  0.16930  Biso   1.000  C
  C58      1.0000 0.34000  0.90190  0.83070  Biso   1.000  C
  C59      1.0000 0.69740  0.16660  0.21470  Biso   1.000  C
  C60      1.0000 0.30260  0.83340  0.78530  Biso   1.000  C
  H37      1.0000 0.77600  0.16720  0.22410  Biso   1.000  H
  H38      1.0000 0.22400  0.83280  0.77590  Biso   1.000  H
  C61      1.0000 0.61840  0.23260  0.24520  Biso   1.000  C
  C62      1.0000 0.38160  0.76740  0.75480  Biso   1.000  C
  H39      1.0000 0.64400  0.27870  0.27510  Biso   1.000  H
  H40      1.0000 0.35600  0.72130  0.72490  Biso   1.000  H
  C63      1.0000 0.74320  0.02590  0.14010  Biso   1.000  C
  C64      1.0000 0.25680  0.97410  0.85990  Biso   1.000  C
  C65      1.0000 0.56640  0.75680  0.14490  Biso   1.000  C
  C66      1.0000 0.43360  0.24320  0.85510  Biso   1.000  C
  C67      1.0000 0.91500  0.67600  0.92540  Biso   1.000  C
  C68      1.0000 0.08500  0.32400  0.07460  Biso   1.000  C
  N1       1.0000 0.26000  0.53590  0.46950  Biso   1.000  N
  N2       1.0000 0.74000  0.46410  0.53050  Biso   1.000  N
  N3       1.0000 0.10100  0.57520  0.31250  Biso   1.000  N
  N4       1.0000 0.89900  0.42480  0.68750  Biso   1.000  N
  N5       1.0000 0.73030  0.05220  0.56710  Biso   1.000  N
  N6       1.0000 0.26970  0.94780  0.43290  Biso   1.000  N
  N7       1.0000 0.29090  0.48810  0.21330  Biso   1.000  N
  N8       1.0000 0.70910  0.51190  0.78670  Biso   1.000  N
  N9       1.0000 0.33820  0.33480  0.42650  Biso   1.000  N
  N10      1.0000 0.66180  0.66520  0.57350  Biso   1.000  N
  N11      1.0000 0.81250  0.96650  0.12230  Biso   1.000  N
  N12      1.0000 0.18750  0.03350  0.87770  Biso   1.000  N
  O1       1.0000 0.43720  0.83440  0.25810  Biso   1.000  O
  O2       1.0000 0.56280  0.16560  0.74190  Biso   1.000  O
  O3       1.0000 0.34750  0.78930  0.12990  Biso   1.000  O
  O4       1.0000 0.65250  0.21070  0.87010  Biso   1.000  O
  O5       1.0000 0.42940  0.63150  0.29140  Biso   1.000  O
  O6       1.0000 0.57060  0.36850  0.70860  Biso   1.000  O
  O7       1.0000 0.00960  0.85260  0.79640  Biso   1.000  O
  O8       1.0000 0.99040  0.14740  0.20360  Biso   1.000  O
  O9       1.0000 0.13510  0.89860  0.15260  Biso   1.000  O
  O10      1.0000 0.86490  0.10140  0.84740  Biso   1.000  O
  F1       1.0000 0.57500  0.68610  0.10090  Biso   1.000  F
  F2       1.0000 0.42500  0.31390  0.89910  Biso   1.000  F
  F3       1.0000 0.57930  0.86380  0.07010  Biso   1.000  F
  F4       1.0000 0.42070  0.13620  0.92990  Biso   1.000  F
  F5       1.0000 0.65340  0.72940  0.21500  Biso   1.000  F
  F6       1.0000 0.34660  0.27060  0.78500  Biso   1.000  F
  O11      1.0000 0.04600  0.79800  0.97940  Biso   1.000  O
  O12      1.0000 0.95400  0.20200  0.02060  Biso   1.000  O
  O13      1.0000 0.84800  0.85500  0.90540  Biso   1.000  O
  O14      1.0000 0.15200  0.14500  0.09460  Biso   1.000  O
  F7       1.0000 0.85000  0.63500  0.01800  Biso   1.000  F
  F8       1.0000 0.15000  0.36500  0.98200  Biso   1.000  F
  F9       1.0000 0.03300  0.60740  0.91250  Biso   1.000  F
  F10      1.0000 0.96700  0.39260  0.08750  Biso   1.000  F
  F11      1.0000 0.86000  0.65400  0.85820  Biso   1.000  F
  F12      1.0000 0.14000  0.34600  0.14180  Biso   1.000  F
  O15      1.0000 0.08410  0.73440  0.97080  Biso   1.000  O
  O16      1.0000 0.91590  0.26560  0.02920  Biso   1.000  O
  O17      1.0000 0.91270  0.86410  0.95330  Biso   1.000  O
  O18      1.0000 0.08730  0.13590  0.04670  Biso   1.000  O
  F13      1.0000 0.89900  0.60150  0.01960  Biso   1.000  F
  F14      1.0000 0.10100  0.39850  0.98040  Biso   1.000  F
  F15      1.0000 0.93500  0.62090  0.87240  Biso   1.000  F
  F16      1.0000 0.06500  0.37910  0.12760  Biso   1.000  F
  F17      1.0000 0.80150  0.73490  0.86070  Biso   1.000  F
  F18      1.0000 0.19850  0.26510  0.13930  Biso   1.000  F
  S1       1.0000 0.42980  0.75240  0.21460  Biso   1.000  S
  S2       1.0000 0.57020  0.24760  0.78540  Biso   1.000  S
  S3       1.0000 0.97810  0.80190  0.90130  Biso   1.000  S
  S4       1.0000 0.02190  0.19810  0.09870  Biso   1.000  S
  Cu1      1.0000 0.25264  0.48754  0.35405  Biso   1.000  Cu
  Cu2      1.0000 0.74736  0.51246  0.64595  Biso   1.000  Cu
  Ag1      1.0000 0.39383  0.78946  0.44185  Biso   1.000  Ag
  Ag2      1.0000 0.60617  0.21054  0.55815  Biso   1.000  Ag
  Ag3      1.0000 0.96126  0.84114  0.12020  Biso   1.000  Ag
  Ag4      1.0000 0.03874  0.15886  0.87980  Biso   1.000  Ag
