data_image0
_cell_length_a       17.5627
_cell_length_b       12.7625
_cell_length_c       15.5101
_cell_angle_alpha    90
_cell_angle_beta     107.838
_cell_angle_gamma    90

_symmetry_space_group_name_H-M    "P 1"
_symmetry_int_tables_number       1

loop_
  _symmetry_equiv_pos_as_xyz
  'x, y, z'

loop_
  _atom_site_label
  _atom_site_occupancy
  _atom_site_fract_x
  _atom_site_fract_y
  _atom_site_fract_z
  _atom_site_thermal_displace_type
  _atom_site_B_iso_or_equiv
  _atom_site_type_symbol
  C1       1.0000 0.34250  0.69760  0.14960  Biso   1.000  C
  C2       1.0000 0.65750  0.19760  0.35040  Biso   1.000  C
  C3       1.0000 0.65750  0.30240  0.85040  Biso   1.000  C
  C4       1.0000 0.34250  0.80240  0.64960  Biso   1.000  C
  H1       1.0000 0.38410  0.73890  0.18480  Biso   1.000  H
  H2       1.0000 0.61590  0.23890  0.31520  Biso   1.000  H
  H3       1.0000 0.61590  0.26110  0.81520  Biso   1.000  H
  H4       1.0000 0.38410  0.76110  0.68480  Biso   1.000  H
  C5       1.0000 0.28300  0.65080  0.18150  Biso   1.000  C
  C6       1.0000 0.71700  0.15080  0.31850  Biso   1.000  C
  C7       1.0000 0.71700  0.34920  0.81850  Biso   1.000  C
  C8       1.0000 0.28300  0.84920  0.68150  Biso   1.000  C
  H5       1.0000 0.27850  0.65580  0.23960  Biso   1.000  H
  H6       1.0000 0.72150  0.15580  0.26040  Biso   1.000  H
  H7       1.0000 0.72150  0.34420  0.76040  Biso   1.000  H
  H8       1.0000 0.27850  0.84420  0.73960  Biso   1.000  H
  C9       1.0000 0.23340  0.59670  0.10960  Biso   1.000  C
  C10      1.0000 0.76660  0.09670  0.39040  Biso   1.000  C
  C11      1.0000 0.76660  0.40330  0.89040  Biso   1.000  C
  C12      1.0000 0.23340  0.90330  0.60960  Biso   1.000  C
  H9       1.0000 0.18870  0.55760  0.10960  Biso   1.000  H
  H10      1.0000 0.81130  0.05760  0.39040  Biso   1.000  H
  H11      1.0000 0.81130  0.44240  0.89040  Biso   1.000  H
  H12      1.0000 0.18870  0.94240  0.60960  Biso   1.000  H
  C13      1.0000 0.26330  0.61190  0.03490  Biso   1.000  C
  C14      1.0000 0.73670  0.11190  0.46510  Biso   1.000  C
  C15      1.0000 0.73670  0.38810  0.96510  Biso   1.000  C
  C16      1.0000 0.26330  0.88810  0.53490  Biso   1.000  C
  C17      1.0000 0.23430  0.56760  0.94810  Biso   1.000  C
  C18      1.0000 0.76570  0.06760  0.55190  Biso   1.000  C
  C19      1.0000 0.76570  0.43240  0.05190  Biso   1.000  C
  C20      1.0000 0.23430  0.93240  0.44810  Biso   1.000  C
  C21      1.0000 0.26920  0.57960  0.87910  Biso   1.000  C
  C22      1.0000 0.73080  0.07960  0.62090  Biso   1.000  C
  C23      1.0000 0.73080  0.42040  0.12090  Biso   1.000  C
  C24      1.0000 0.26920  0.92040  0.37910  Biso   1.000  C
  C25      1.0000 0.24700  0.52790  0.79390  Biso   1.000  C
  C26      1.0000 0.75300  0.02790  0.70610  Biso   1.000  C
  C27      1.0000 0.75300  0.47210  0.20610  Biso   1.000  C
  C28      1.0000 0.24700  0.97210  0.29390  Biso   1.000  C
  H13      1.0000 0.20280  0.48440  0.77100  Biso   1.000  H
  H14      1.0000 0.79720  0.98440  0.72900  Biso   1.000  H
  H15      1.0000 0.79720  0.51560  0.22900  Biso   1.000  H
  H16      1.0000 0.20280  0.01560  0.27100  Biso   1.000  H
  C29      1.0000 0.30310  0.55390  0.75100  Biso   1.000  C
  C30      1.0000 0.69690  0.05390  0.74900  Biso   1.000  C
  C31      1.0000 0.69690  0.44610  0.24900  Biso   1.000  C
  C32      1.0000 0.30310  0.94610  0.25100  Biso   1.000  C
  H17      1.0000 0.30490  0.53130  0.69470  Biso   1.000  H
  H18      1.0000 0.69510  0.03130  0.80530  Biso   1.000  H
  H19      1.0000 0.69510  0.46870  0.30530  Biso   1.000  H
  H20      1.0000 0.30490  0.96870  0.19470  Biso   1.000  H
  C33      1.0000 0.35710  0.62290  0.81210  Biso   1.000  C
  C34      1.0000 0.64290  0.12290  0.68790  Biso   1.000  C
  C35      1.0000 0.64290  0.37710  0.18790  Biso   1.000  C
  C36      1.0000 0.35710  0.87710  0.31210  Biso   1.000  C
  H21      1.0000 0.40150  0.65290  0.80120  Biso   1.000  H
  H22      1.0000 0.59850  0.15290  0.69880  Biso   1.000  H
  H23      1.0000 0.59850  0.34710  0.19880  Biso   1.000  H
  H24      1.0000 0.40150  0.84710  0.30120  Biso   1.000  H
  C37      1.0000 0.16280  0.49680  0.92930  Biso   1.000  C
  C38      1.0000 0.83720  0.99680  0.57070  Biso   1.000  C
  C39      1.0000 0.83720  0.50320  0.07070  Biso   1.000  C
  C40      1.0000 0.16280  0.00320  0.42930  Biso   1.000  C
  C41      1.0000 0.17010  0.39880  0.95890  Biso   1.000  C
  C42      1.0000 0.82990  0.89880  0.54110  Biso   1.000  C
  C43      1.0000 0.82990  0.60120  0.04110  Biso   1.000  C
  C44      1.0000 0.17010  0.10120  0.45890  Biso   1.000  C
  H25      1.0000 0.22030  0.37520  0.99330  Biso   1.000  H
  H26      1.0000 0.77970  0.87520  0.50670  Biso   1.000  H
  H27      1.0000 0.77970  0.62480  0.00670  Biso   1.000  H
  H28      1.0000 0.22030  0.12480  0.49330  Biso   1.000  H
  C45      1.0000 0.10580  0.32980  0.94060  Biso   1.000  C
  C46      1.0000 0.89420  0.82980  0.55940  Biso   1.000  C
  C47      1.0000 0.89420  0.67020  0.05940  Biso   1.000  C
  C48      1.0000 0.10580  0.17020  0.44060  Biso   1.000  C
  H29      1.0000 0.11350  0.26120  0.96170  Biso   1.000  H
  H30      1.0000 0.88650  0.76120  0.53830  Biso   1.000  H
  H31      1.0000 0.88650  0.73880  0.03830  Biso   1.000  H
  H32      1.0000 0.11350  0.23880  0.46170  Biso   1.000  H
  C49      1.0000 0.03380  0.36190  0.89320  Biso   1.000  C
  C50      1.0000 0.96620  0.86190  0.60680  Biso   1.000  C
  C51      1.0000 0.96620  0.63810  0.10680  Biso   1.000  C
  C52      1.0000 0.03380  0.13810  0.39320  Biso   1.000  C
  C53      1.0000 0.02530  0.46140  0.85820  Biso   1.000  C
  C54      1.0000 0.97470  0.96140  0.64180  Biso   1.000  C
  C55      1.0000 0.97470  0.53860  0.14180  Biso   1.000  C
  C56      1.0000 0.02530  0.03860  0.35820  Biso   1.000  C
  H33      1.0000 0.97560  0.48440  0.82180  Biso   1.000  H
  H34      1.0000 0.02440  0.98440  0.67820  Biso   1.000  H
  H35      1.0000 0.02440  0.51560  0.17820  Biso   1.000  H
  H36      1.0000 0.97560  0.01560  0.32180  Biso   1.000  H
  C57      1.0000 0.09090  0.52750  0.87730  Biso   1.000  C
  C58      1.0000 0.90910  0.02750  0.62270  Biso   1.000  C
  C59      1.0000 0.90910  0.47250  0.12270  Biso   1.000  C
  C60      1.0000 0.09090  0.97250  0.37730  Biso   1.000  C
  H37      1.0000 0.08460  0.59480  0.85320  Biso   1.000  H
  H38      1.0000 0.91540  0.09480  0.64680  Biso   1.000  H
  H39      1.0000 0.91540  0.40520  0.14680  Biso   1.000  H
  H40      1.0000 0.08460  0.90520  0.35320  Biso   1.000  H
  C61      1.0000 0.96680  0.29130  0.87290  Biso   1.000  C
  C62      1.0000 0.03320  0.79130  0.62710  Biso   1.000  C
  C63      1.0000 0.03320  0.70870  0.12710  Biso   1.000  C
  C64      1.0000 0.96680  0.20870  0.37290  Biso   1.000  C
  C65      1.0000 0.56860  0.89930  0.19220  Biso   1.000  C
  C66      1.0000 0.43140  0.39930  0.30780  Biso   1.000  C
  C67      1.0000 0.43140  0.10070  0.80780  Biso   1.000  C
  C68      1.0000 0.56860  0.60070  0.69220  Biso   1.000  C
  C69      1.0000 0.52360  0.85780  0.09790  Biso   1.000  C
  C70      1.0000 0.47640  0.35780  0.40210  Biso   1.000  C
  C71      1.0000 0.47640  0.14220  0.90210  Biso   1.000  C
  C72      1.0000 0.52360  0.64220  0.59790  Biso   1.000  C
  C73      1.0000 0.55610  0.87890  0.02930  Biso   1.000  C
  C74      1.0000 0.44390  0.37890  0.47070  Biso   1.000  C
  C75      1.0000 0.44390  0.12110  0.97070  Biso   1.000  C
  C76      1.0000 0.55610  0.62110  0.52930  Biso   1.000  C
  H41      1.0000 0.60050  0.92270  0.04050  Biso   1.000  H
  H42      1.0000 0.39950  0.42270  0.45950  Biso   1.000  H
  H43      1.0000 0.39950  0.07730  0.95950  Biso   1.000  H
  H44      1.0000 0.60050  0.57730  0.54050  Biso   1.000  H
  C77      1.0000 0.52350  0.83540  0.94350  Biso   1.000  C
  C78      1.0000 0.47650  0.33540  0.55650  Biso   1.000  C
  C79      1.0000 0.47650  0.16460  0.05650  Biso   1.000  C
  C80      1.0000 0.52350  0.66460  0.44350  Biso   1.000  C
  C81      1.0000 0.56910  0.85160  0.87540  Biso   1.000  C
  C82      1.0000 0.43090  0.35160  0.62460  Biso   1.000  C
  C83      1.0000 0.43090  0.14840  0.12460  Biso   1.000  C
  C84      1.0000 0.56910  0.64840  0.37540  Biso   1.000  C
  C85      1.0000 0.19610  0.01190  0.88000  Biso   1.000  C
  C86      1.0000 0.80390  0.51190  0.62000  Biso   1.000  C
  C87      1.0000 0.80390  0.98810  0.12000  Biso   1.000  C
  C88      1.0000 0.19610  0.48810  0.38000  Biso   1.000  C
  N1       1.0000 0.33110  0.67480  0.06210  Biso   1.000  N
  N2       1.0000 0.66890  0.17480  0.43790  Biso   1.000  N
  N3       1.0000 0.66890  0.32520  0.93790  Biso   1.000  N
  N4       1.0000 0.33110  0.82520  0.56210  Biso   1.000  N
  N5       1.0000 0.33670  0.63930  0.88640  Biso   1.000  N
  N6       1.0000 0.66330  0.13930  0.61360  Biso   1.000  N
  N7       1.0000 0.66330  0.36070  0.11360  Biso   1.000  N
  N8       1.0000 0.33670  0.86070  0.38640  Biso   1.000  N
  N9       1.0000 0.91490  0.23520  0.85820  Biso   1.000  N
  N10      1.0000 0.08510  0.73520  0.64180  Biso   1.000  N
  N11      1.0000 0.08510  0.76480  0.14180  Biso   1.000  N
  N12      1.0000 0.91490  0.26480  0.35820  Biso   1.000  N
  O1       1.0000 0.46340  0.80320  0.09460  Biso   1.000  O
  O2       1.0000 0.53660  0.30320  0.40540  Biso   1.000  O
  O3       1.0000 0.53660  0.19680  0.90540  Biso   1.000  O
  O4       1.0000 0.46340  0.69680  0.59460  Biso   1.000  O
  O5       1.0000 0.46220  0.77960  0.91610  Biso   1.000  O
  O6       1.0000 0.53780  0.27960  0.58390  Biso   1.000  O
  O7       1.0000 0.53780  0.22040  0.08390  Biso   1.000  O
  O8       1.0000 0.46220  0.72040  0.41610  Biso   1.000  O
  O9       1.0000 0.31060  0.88310  0.94460  Biso   1.000  O
  O10      1.0000 0.68940  0.38310  0.55540  Biso   1.000  O
  O11      1.0000 0.68940  0.11690  0.05540  Biso   1.000  O
  O12      1.0000 0.31060  0.61690  0.44460  Biso   1.000  O
  O13      1.0000 0.20710  0.89540  0.01660  Biso   1.000  O
  O14      1.0000 0.79290  0.39540  0.48340  Biso   1.000  O
  O15      1.0000 0.79290  0.10460  0.98340  Biso   1.000  O
  O16      1.0000 0.20710  0.60460  0.51660  Biso   1.000  O
  O17      1.0000 0.17950  0.81290  0.87050  Biso   1.000  O
  O18      1.0000 0.82050  0.31290  0.62950  Biso   1.000  O
  O19      1.0000 0.82050  0.18710  0.12950  Biso   1.000  O
  O20      1.0000 0.17950  0.68710  0.37050  Biso   1.000  O
  F1       1.0000 0.52560  0.89670  0.24770  Biso   1.000  F
  F2       1.0000 0.47440  0.39670  0.25230  Biso   1.000  F
  F3       1.0000 0.47440  0.10330  0.75230  Biso   1.000  F
  F4       1.0000 0.52560  0.60330  0.74770  Biso   1.000  F
  F5       1.0000 0.63420  0.84390  0.22900  Biso   1.000  F
  F6       1.0000 0.36580  0.34390  0.27100  Biso   1.000  F
  F7       1.0000 0.36580  0.15610  0.77100  Biso   1.000  F
  F8       1.0000 0.63420  0.65610  0.72900  Biso   1.000  F
  F9       1.0000 0.59210  0.99900  0.18810  Biso   1.000  F
  F10      1.0000 0.40790  0.49900  0.31190  Biso   1.000  F
  F11      1.0000 0.40790  0.00100  0.81190  Biso   1.000  F
  F12      1.0000 0.59210  0.50100  0.68810  Biso   1.000  F
  F13      1.0000 0.59650  0.95060  0.87890  Biso   1.000  F
  F14      1.0000 0.40350  0.45060  0.62110  Biso   1.000  F
  F15      1.0000 0.40350  0.04940  0.12110  Biso   1.000  F
  F16      1.0000 0.59650  0.54940  0.37890  Biso   1.000  F
  F17      1.0000 0.63350  0.78950  0.89530  Biso   1.000  F
  F18      1.0000 0.36650  0.28950  0.60470  Biso   1.000  F
  F19      1.0000 0.36650  0.21050  0.10470  Biso   1.000  F
  F20      1.0000 0.63350  0.71050  0.39530  Biso   1.000  F
  F21      1.0000 0.52630  0.83230  0.79140  Biso   1.000  F
  F22      1.0000 0.47370  0.33230  0.70860  Biso   1.000  F
  F23      1.0000 0.47370  0.16770  0.20860  Biso   1.000  F
  F24      1.0000 0.52630  0.66770  0.29140  Biso   1.000  F
  F25      1.0000 0.23600  0.09050  0.93070  Biso   1.000  F
  F26      1.0000 0.76400  0.59050  0.56930  Biso   1.000  F
  F27      1.0000 0.76400  0.90950  0.06930  Biso   1.000  F
  F28      1.0000 0.23600  0.40950  0.43070  Biso   1.000  F
  F29      1.0000 0.11900  0.03070  0.86710  Biso   1.000  F
  F30      1.0000 0.88100  0.53070  0.63290  Biso   1.000  F
  F31      1.0000 0.88100  0.96930  0.13290  Biso   1.000  F
  F32      1.0000 0.11900  0.46930  0.36710  Biso   1.000  F
  F33      1.0000 0.20840  0.01640  0.80020  Biso   1.000  F
  F34      1.0000 0.79160  0.51640  0.69980  Biso   1.000  F
  F35      1.0000 0.79160  0.98360  0.19980  Biso   1.000  F
  F36      1.0000 0.20840  0.48360  0.30020  Biso   1.000  F
  S1       1.0000 0.22679  0.88563  0.93459  Biso   1.000  S
  S2       1.0000 0.77321  0.38563  0.56541  Biso   1.000  S
  S3       1.0000 0.77321  0.11437  0.06541  Biso   1.000  S
  S4       1.0000 0.22679  0.61437  0.43459  Biso   1.000  S
  Cu1      1.0000 0.39302  0.73008  0.98728  Biso   1.000  Cu
  Cu2      1.0000 0.60698  0.23008  0.51272  Biso   1.000  Cu
  Cu3      1.0000 0.60698  0.26992  0.01272  Biso   1.000  Cu
  Cu4      1.0000 0.39302  0.76992  0.48728  Biso   1.000  Cu
  Ag1      1.0000 0.20829  0.82354  0.16351  Biso   1.000  Ag
  Ag2      1.0000 0.79171  0.32354  0.33649  Biso   1.000  Ag
  Ag3      1.0000 0.79171  0.17646  0.83649  Biso   1.000  Ag
  Ag4      1.0000 0.20829  0.67646  0.66351  Biso   1.000  Ag
  C89      1.0000 0.11020  0.10010  0.08960  Biso   1.000  C
  C90      1.0000 0.88980  0.60010  0.41040  Biso   1.000  C
  C91      1.0000 0.88980  0.89990  0.91040  Biso   1.000  C
  C92      1.0000 0.11020  0.39990  0.58960  Biso   1.000  C
  H45      1.0000 0.11850  0.04170  0.05780  Biso   1.000  H
  H46      1.0000 0.88150  0.54170  0.44220  Biso   1.000  H
  H47      1.0000 0.88150  0.95830  0.94220  Biso   1.000  H
  H48      1.0000 0.11850  0.45830  0.55780  Biso   1.000  H
  C93      1.0000 0.17250  0.16590  0.13140  Biso   1.000  C
  C94      1.0000 0.82750  0.66590  0.36860  Biso   1.000  C
  C95      1.0000 0.82750  0.83410  0.86860  Biso   1.000  C
  C96      1.0000 0.17250  0.33410  0.63140  Biso   1.000  C
  H49      1.0000 0.22330  0.15320  0.12720  Biso   1.000  H
  H50      1.0000 0.77670  0.65320  0.37280  Biso   1.000  H
  H51      1.0000 0.77670  0.84680  0.87280  Biso   1.000  H
  H52      1.0000 0.22330  0.34680  0.62720  Biso   1.000  H
  C97      1.0000 0.15890  0.25130  0.17960  Biso   1.000  C
  C98      1.0000 0.84110  0.75130  0.32040  Biso   1.000  C
  C99      1.0000 0.84110  0.74870  0.82040  Biso   1.000  C
  C100     1.0000 0.15890  0.24870  0.67960  Biso   1.000  C
  H53      1.0000 0.20020  0.29750  0.20700  Biso   1.000  H
  H54      1.0000 0.79980  0.79750  0.29300  Biso   1.000  H
  H55      1.0000 0.79980  0.70250  0.79300  Biso   1.000  H
  H56      1.0000 0.20020  0.20250  0.70700  Biso   1.000  H
  C101     1.0000 0.08540  0.26670  0.18650  Biso   1.000  C
  C102     1.0000 0.91460  0.76670  0.31350  Biso   1.000  C
  C103     1.0000 0.91460  0.73330  0.81350  Biso   1.000  C
  C104     1.0000 0.08540  0.23330  0.68650  Biso   1.000  C
  H57      1.0000 0.07700  0.32200  0.22160  Biso   1.000  H
  H58      1.0000 0.92300  0.82200  0.27840  Biso   1.000  H
  H59      1.0000 0.92300  0.67800  0.77840  Biso   1.000  H
  H60      1.0000 0.07700  0.17800  0.72160  Biso   1.000  H
  C105     1.0000 0.02400  0.20490  0.14460  Biso   1.000  C
  C106     1.0000 0.97600  0.70490  0.35540  Biso   1.000  C
  C107     1.0000 0.97600  0.79510  0.85540  Biso   1.000  C
  C108     1.0000 0.02400  0.29510  0.64460  Biso   1.000  C
  H61      1.0000 0.97340  0.21870  0.14900  Biso   1.000  H
  H62      1.0000 0.02660  0.71870  0.35100  Biso   1.000  H
  H63      1.0000 0.02660  0.78130  0.85100  Biso   1.000  H
  H64      1.0000 0.97340  0.28130  0.64900  Biso   1.000  H
  C109     1.0000 0.03550  0.12200  0.09570  Biso   1.000  C
  C110     1.0000 0.96450  0.62200  0.40430  Biso   1.000  C
  C111     1.0000 0.96450  0.87800  0.90430  Biso   1.000  C
  C112     1.0000 0.03550  0.37800  0.59570  Biso   1.000  C
  H65      1.0000 0.99250  0.07960  0.06600  Biso   1.000  H
  H66      1.0000 0.00750  0.57960  0.43400  Biso   1.000  H
  H67      1.0000 0.00750  0.92040  0.93400  Biso   1.000  H
  H68      1.0000 0.99250  0.42040  0.56600  Biso   1.000  H
  C113     1.0000 0.55440  0.57550  0.04420  Biso   1.000  C
  C114     1.0000 0.44560  0.07550  0.45580  Biso   1.000  C
  C115     1.0000 0.44560  0.42450  0.95580  Biso   1.000  C
  C116     1.0000 0.55440  0.92450  0.54420  Biso   1.000  C
  H69      1.0000 0.59120  0.62570  0.07470  Biso   1.000  H
  H70      1.0000 0.40880  0.12570  0.42530  Biso   1.000  H
  H71      1.0000 0.40880  0.37430  0.92530  Biso   1.000  H
  H72      1.0000 0.59120  0.87430  0.57470  Biso   1.000  H
  C117     1.0000 0.49840  0.53660  0.08170  Biso   1.000  C
  C118     1.0000 0.50160  0.03660  0.41830  Biso   1.000  C
  C119     1.0000 0.50160  0.46340  0.91830  Biso   1.000  C
  C120     1.0000 0.49840  0.96340  0.58170  Biso   1.000  C
  H73      1.0000 0.49720  0.56240  0.13740  Biso   1.000  H
  H74      1.0000 0.50280  0.06240  0.36260  Biso   1.000  H
  H75      1.0000 0.50280  0.43760  0.86260  Biso   1.000  H
  H76      1.0000 0.49720  0.93760  0.63740  Biso   1.000  H
  C121     1.0000 0.55510  0.53850  0.96030  Biso   1.000  C
  C122     1.0000 0.44490  0.03850  0.53970  Biso   1.000  C
  C123     1.0000 0.44490  0.46150  0.03970  Biso   1.000  C
  C124     1.0000 0.55510  0.96150  0.46030  Biso   1.000  C
  H77      1.0000 0.59160  0.56470  0.93320  Biso   1.000  H
  H78      1.0000 0.40840  0.06470  0.56680  Biso   1.000  H
  H79      1.0000 0.40840  0.43530  0.06680  Biso   1.000  H
  H80      1.0000 0.59160  0.93530  0.43320  Biso   1.000  H
