data_image0
_cell_length_a       7.0631
_cell_length_b       10.9098
_cell_length_c       13.8073
_cell_angle_alpha    82.556
_cell_angle_beta     89.225
_cell_angle_gamma    73.069

_symmetry_space_group_name_H-M    "P 1"
_symmetry_int_tables_number       1

loop_
  _symmetry_equiv_pos_as_xyz
  'x, y, z'

loop_
  _atom_site_label
  _atom_site_occupancy
  _atom_site_fract_x
  _atom_site_fract_y
  _atom_site_fract_z
  _atom_site_thermal_displace_type
  _atom_site_B_iso_or_equiv
  _atom_site_type_symbol
  Cu1      1.0000 0.50000  0.00000  0.00000  Biso   1.000  Cu
  O1       1.0000 0.67150  0.83108  0.97628  Biso   1.000  O
  O2       1.0000 0.32850  0.16892  0.02372  Biso   1.000  O
  O3       1.0000 0.90380  0.81200  0.09079  Biso   1.000  O
  O4       1.0000 0.09620  0.18800  0.90921  Biso   1.000  O
  O5       1.0000 0.20480  0.93830  0.93108  Biso   1.000  O
  O6       1.0000 0.79520  0.06170  0.06892  Biso   1.000  O
  H1       1.0000 0.15280  0.01670  0.92200  Biso   1.000  H
  H2       1.0000 0.84720  0.98330  0.07800  Biso   1.000  H
  N1       1.0000 0.28450  0.61940  0.40128  Biso   1.000  N
  N2       1.0000 0.71550  0.38060  0.59872  Biso   1.000  N
  N3       1.0000 0.42490  0.92240  0.12802  Biso   1.000  N
  N4       1.0000 0.57510  0.07760  0.87198  Biso   1.000  N
  N5       1.0000 0.24700  0.16230  0.45785  Biso   1.000  N
  N6       1.0000 0.75300  0.83770  0.54215  Biso   1.000  N
  C1       1.0000 0.24110  0.72590  0.57750  Biso   1.000  C
  C2       1.0000 0.75890  0.27410  0.42250  Biso   1.000  C
  C3       1.0000 0.27010  0.79710  0.48935  Biso   1.000  C
  C4       1.0000 0.72990  0.20290  0.51065  Biso   1.000  C
  H3       1.0000 0.27370  0.88180  0.48810  Biso   1.000  H
  H4       1.0000 0.72630  0.11820  0.51190  Biso   1.000  H
  C5       1.0000 0.29330  0.73980  0.40388  Biso   1.000  C
  C6       1.0000 0.70670  0.26020  0.59612  Biso   1.000  C
  C7       1.0000 0.25460  0.55020  0.48550  Biso   1.000  C
  C8       1.0000 0.74540  0.44980  0.51450  Biso   1.000  C
  C9       1.0000 0.23430  0.60110  0.57342  Biso   1.000  C
  C10      1.0000 0.76570  0.39890  0.42658  Biso   1.000  C
  H5       1.0000 0.21590  0.55070  0.63040  Biso   1.000  H
  H6       1.0000 0.78410  0.44930  0.36960  Biso   1.000  H
  C11      1.0000 0.33710  0.80620  0.30922  Biso   1.000  C
  C12      1.0000 0.66290  0.19380  0.69078  Biso   1.000  C
  C13      1.0000 0.36590  0.92790  0.29902  Biso   1.000  C
  C14      1.0000 0.63410  0.07210  0.70098  Biso   1.000  C
  H7       1.0000 0.35730  0.97230  0.35280  Biso   1.000  H
  H8       1.0000 0.64270  0.02770  0.64720  Biso   1.000  H
  C15      1.0000 0.40750  0.98240  0.20803  Biso   1.000  C
  C16      1.0000 0.59250  0.01760  0.79197  Biso   1.000  C
  H9       1.0000 0.42420  0.06450  0.20210  Biso   1.000  H
  H10      1.0000 0.57580  0.93550  0.79790  Biso   1.000  H
  C17      1.0000 0.39390  0.80590  0.13800  Biso   1.000  C
  C18      1.0000 0.60610  0.19410  0.86200  Biso   1.000  C
  H11      1.0000 0.40190  0.76390  0.08290  Biso   1.000  H
  H12      1.0000 0.59810  0.23610  0.91710  Biso   1.000  H
  C19      1.0000 0.35120  0.74580  0.22515  Biso   1.000  C
  C20      1.0000 0.64880  0.25420  0.77485  Biso   1.000  C
  H13      1.0000 0.33160  0.66470  0.22840  Biso   1.000  H
  H14      1.0000 0.66840  0.33530  0.77160  Biso   1.000  H
  C21      1.0000 0.24690  0.41780  0.47686  Biso   1.000  C
  C22      1.0000 0.75310  0.58220  0.52314  Biso   1.000  C
  C23      1.0000 0.22980  0.33050  0.55730  Biso   1.000  C
  C24      1.0000 0.77020  0.66950  0.44270  Biso   1.000  C
  H15      1.0000 0.21710  0.35540  0.61960  Biso   1.000  H
  H16      1.0000 0.78290  0.64460  0.38040  Biso   1.000  H
  C25      1.0000 0.23170  0.20670  0.54420  Biso   1.000  C
  C26      1.0000 0.76830  0.79330  0.45580  Biso   1.000  C
  H17      1.0000 0.22160  0.15030  0.59930  Biso   1.000  H
  H18      1.0000 0.77840  0.84970  0.40070  Biso   1.000  H
  C27      1.0000 0.25790  0.24800  0.38070  Biso   1.000  C
  C28      1.0000 0.74210  0.75200  0.61930  Biso   1.000  C
  H19      1.0000 0.26520  0.22120  0.31910  Biso   1.000  H
  H20      1.0000 0.73480  0.77880  0.68090  Biso   1.000  H
  C29      1.0000 0.25880  0.37290  0.38630  Biso   1.000  C
  C30      1.0000 0.74120  0.62710  0.61370  Biso   1.000  C
  H21      1.0000 0.26740  0.42720  0.32970  Biso   1.000  H
  H22      1.0000 0.73260  0.57280  0.67030  Biso   1.000  H
  C31      1.0000 0.22310  0.78150  0.67053  Biso   1.000  C
  C32      1.0000 0.77690  0.21850  0.32947  Biso   1.000  C
  C33      1.0000 0.14100  0.91310  0.67322  Biso   1.000  C
  C34      1.0000 0.85900  0.08690  0.32678  Biso   1.000  C
  H23      1.0000 0.09190  0.96650  0.61550  Biso   1.000  H
  H24      1.0000 0.90810  0.03350  0.38450  Biso   1.000  H
  C35      1.0000 0.13010  0.96710  0.75840  Biso   1.000  C
  C36      1.0000 0.86990  0.03290  0.24160  Biso   1.000  C
  H25      1.0000 0.07330  0.05550  0.75790  Biso   1.000  H
  H26      1.0000 0.92670  0.94450  0.24210  Biso   1.000  H
  C37      1.0000 0.20430  0.88890  0.84572  Biso   1.000  C
  C38      1.0000 0.79570  0.11110  0.15428  Biso   1.000  C
  C39      1.0000 0.28210  0.75680  0.84550  Biso   1.000  C
  C40      1.0000 0.71790  0.24320  0.15450  Biso   1.000  C
  H27      1.0000 0.32820  0.70340  0.90360  Biso   1.000  H
  H28      1.0000 0.67180  0.29660  0.09640  Biso   1.000  H
  C41      1.0000 0.29130  0.70450  0.75922  Biso   1.000  C
  C42      1.0000 0.70870  0.29550  0.24078  Biso   1.000  C
  H29      1.0000 0.34420  0.61570  0.76010  Biso   1.000  H
  H30      1.0000 0.65580  0.38430  0.23990  Biso   1.000  H
  C43      1.0000 0.82560  0.76770  0.02810  Biso   1.000  C
  C44      1.0000 0.17440  0.23230  0.97190  Biso   1.000  C
  C45      1.0000 0.91470  0.62950  0.01260  Biso   1.000  C
  C46      1.0000 0.08530  0.37050  0.98740  Biso   1.000  C
  C47      1.0000 0.84880  0.57750  0.93780  Biso   1.000  C
  C48      1.0000 0.15120  0.42250  0.06220  Biso   1.000  C
  H31      1.0000 0.74670  0.62920  0.89580  Biso   1.000  H
  H32      1.0000 0.25330  0.37080  0.10420  Biso   1.000  H
  C49      1.0000 0.93300  0.45030  0.92540  Biso   1.000  C
  C50      1.0000 0.06700  0.54970  0.07460  Biso   1.000  C
  H33      1.0000 0.88760  0.41710  0.87460  Biso   1.000  H
  H34      1.0000 0.11240  0.58290  0.12540  Biso   1.000  H
