data_image0
_cell_length_a       7.11
_cell_length_b       10.9172
_cell_length_c       13.7599
_cell_angle_alpha    82.193
_cell_angle_beta     87.05
_cell_angle_gamma    72.875

_symmetry_space_group_name_H-M    "P 1"
_symmetry_int_tables_number       1

loop_
  _symmetry_equiv_pos_as_xyz
  'x, y, z'

loop_
  _atom_site_label
  _atom_site_occupancy
  _atom_site_fract_x
  _atom_site_fract_y
  _atom_site_fract_z
  _atom_site_thermal_displace_type
  _atom_site_B_iso_or_equiv
  _atom_site_type_symbol
  Cu1      1.0000 0.50000  0.00000  0.00000  Biso   1.000  Cu
  O1       1.0000 0.67600  0.83260  0.97550  Biso   1.000  O
  O2       1.0000 0.32400  0.16740  0.02450  Biso   1.000  O
  O3       1.0000 0.88890  0.81260  0.09220  Biso   1.000  O
  O4       1.0000 0.11110  0.18740  0.90780  Biso   1.000  O
  O5       1.0000 0.20680  0.93820  0.93310  Biso   1.000  O
  O6       1.0000 0.79320  0.06180  0.06690  Biso   1.000  O
  H1       1.0000 0.14350  0.01480  0.92580  Biso   1.000  H
  H2       1.0000 0.85650  0.98520  0.07420  Biso   1.000  H
  N1       1.0000 0.28660  0.61380  0.40550  Biso   1.000  N
  N2       1.0000 0.71340  0.38620  0.59450  Biso   1.000  N
  N3       1.0000 0.42240  0.91850  0.13010  Biso   1.000  N
  N4       1.0000 0.57760  0.08150  0.86990  Biso   1.000  N
  N5       1.0000 0.25590  0.15460  0.46520  Biso   1.000  N
  N6       1.0000 0.74410  0.84540  0.53480  Biso   1.000  N
  C1       1.0000 0.23440  0.71980  0.58130  Biso   1.000  C
  C2       1.0000 0.76560  0.28020  0.41870  Biso   1.000  C
  C3       1.0000 0.26460  0.79160  0.49190  Biso   1.000  C
  C4       1.0000 0.73540  0.20840  0.50810  Biso   1.000  C
  H3       1.0000 0.26630  0.87680  0.48980  Biso   1.000  H
  H4       1.0000 0.73370  0.12320  0.51020  Biso   1.000  H
  C5       1.0000 0.29120  0.73380  0.40880  Biso   1.000  C
  C6       1.0000 0.70880  0.26620  0.59120  Biso   1.000  C
  C7       1.0000 0.25320  0.54520  0.49150  Biso   1.000  C
  C8       1.0000 0.74680  0.45480  0.50850  Biso   1.000  C
  C9       1.0000 0.22840  0.59500  0.57920  Biso   1.000  C
  C10      1.0000 0.77160  0.40500  0.42080  Biso   1.000  C
  H5       1.0000 0.20770  0.54500  0.63680  Biso   1.000  H
  H6       1.0000 0.79230  0.45500  0.36320  Biso   1.000  H
  C11      1.0000 0.33800  0.80160  0.31160  Biso   1.000  C
  C12      1.0000 0.66200  0.19840  0.68840  Biso   1.000  C
  C13      1.0000 0.36830  0.92140  0.30150  Biso   1.000  C
  C14      1.0000 0.63170  0.07860  0.69850  Biso   1.000  C
  H7       1.0000 0.36080  0.96500  0.35590  Biso   1.000  H
  H8       1.0000 0.63920  0.03500  0.64410  Biso   1.000  H
  C15      1.0000 0.41060  0.97680  0.20860  Biso   1.000  C
  C16      1.0000 0.58940  0.02320  0.79140  Biso   1.000  C
  H9       1.0000 0.43100  0.05790  0.20210  Biso   1.000  H
  H10      1.0000 0.56900  0.94210  0.79790  Biso   1.000  H
  C17      1.0000 0.39010  0.80420  0.13840  Biso   1.000  C
  C18      1.0000 0.60990  0.19580  0.86160  Biso   1.000  C
  H11      1.0000 0.39580  0.76390  0.08250  Biso   1.000  H
  H12      1.0000 0.60420  0.23610  0.91750  Biso   1.000  H
  C19      1.0000 0.34770  0.74260  0.22890  Biso   1.000  C
  C20      1.0000 0.65230  0.25740  0.77110  Biso   1.000  C
  H13      1.0000 0.32620  0.66200  0.23310  Biso   1.000  H
  H14      1.0000 0.67380  0.33800  0.76690  Biso   1.000  H
  C21      1.0000 0.25030  0.41020  0.48160  Biso   1.000  C
  C22      1.0000 0.74970  0.58980  0.51840  Biso   1.000  C
  C23      1.0000 0.22330  0.32460  0.56460  Biso   1.000  C
  C24      1.0000 0.77670  0.67540  0.43540  Biso   1.000  C
  H15      1.0000 0.20270  0.35040  0.62690  Biso   1.000  H
  H16      1.0000 0.79730  0.64960  0.37310  Biso   1.000  H
  C25      1.0000 0.22880  0.20210  0.54910  Biso   1.000  C
  C26      1.0000 0.77120  0.79790  0.45090  Biso   1.000  C
  H17      1.0000 0.21130  0.14660  0.60410  Biso   1.000  H
  H18      1.0000 0.78870  0.85340  0.39590  Biso   1.000  H
  C27      1.0000 0.27590  0.24040  0.38850  Biso   1.000  C
  C28      1.0000 0.72410  0.75960  0.61150  Biso   1.000  C
  H19      1.0000 0.29110  0.21300  0.32670  Biso   1.000  H
  H20      1.0000 0.70890  0.78700  0.67330  Biso   1.000  H
  C29      1.0000 0.27580  0.36380  0.39360  Biso   1.000  C
  C30      1.0000 0.72420  0.63620  0.60640  Biso   1.000  C
  H21      1.0000 0.29310  0.41650  0.33690  Biso   1.000  H
  H22      1.0000 0.70690  0.58350  0.66310  Biso   1.000  H
  C31      1.0000 0.21390  0.77680  0.67530  Biso   1.000  C
  C32      1.0000 0.78610  0.22320  0.32470  Biso   1.000  C
  C33      1.0000 0.13010  0.90830  0.67850  Biso   1.000  C
  C34      1.0000 0.86990  0.09170  0.32150  Biso   1.000  C
  H23      1.0000 0.07620  0.96070  0.62170  Biso   1.000  H
  H24      1.0000 0.92380  0.03930  0.37830  Biso   1.000  H
  C35      1.0000 0.12440  0.96270  0.76200  Biso   1.000  C
  C36      1.0000 0.87560  0.03730  0.23800  Biso   1.000  C
  H25      1.0000 0.06830  0.05130  0.76140  Biso   1.000  H
  H26      1.0000 0.93170  0.94870  0.23860  Biso   1.000  H
  C37      1.0000 0.20230  0.88650  0.84930  Biso   1.000  C
  C38      1.0000 0.79770  0.11350  0.15070  Biso   1.000  C
  C39      1.0000 0.28480  0.75340  0.84810  Biso   1.000  C
  C40      1.0000 0.71520  0.24660  0.15190  Biso   1.000  C
  H27      1.0000 0.33840  0.70140  0.90510  Biso   1.000  H
  H28      1.0000 0.66160  0.29860  0.09490  Biso   1.000  H
  C41      1.0000 0.28720  0.69960  0.76460  Biso   1.000  C
  C42      1.0000 0.71280  0.30040  0.23540  Biso   1.000  C
  H29      1.0000 0.33780  0.61060  0.76580  Biso   1.000  H
  H30      1.0000 0.66220  0.38940  0.23420  Biso   1.000  H
  C43      1.0000 0.82390  0.76890  0.02910  Biso   1.000  C
  C44      1.0000 0.17610  0.23110  0.97090  Biso   1.000  C
  C45      1.0000 0.91220  0.62830  0.01380  Biso   1.000  C
  C46      1.0000 0.08780  0.37170  0.98620  Biso   1.000  C
  C47      1.0000 0.02300  0.54360  0.08770  Biso   1.000  C
  C48      1.0000 0.97700  0.45640  0.91230  Biso   1.000  C
  H31      1.0000 0.03580  0.57150  0.14720  Biso   1.000  H
  H32      1.0000 0.96420  0.42850  0.85280  Biso   1.000  H
  C49      1.0000 0.88410  0.58630  0.92800  Biso   1.000  C
  C50      1.0000 0.11590  0.41370  0.07200  Biso   1.000  C
  H33      1.0000 0.80390  0.64290  0.88000  Biso   1.000  H
  H34      1.0000 0.19610  0.35710  0.12000  Biso   1.000  H
  N7       1.0000 0.00900  0.57000  0.18890  Biso   1.000  N
  N8       1.0000 0.99100  0.43000  0.81110  Biso   1.000  N
  H35      1.0000 0.95850  0.65100  0.19170  Biso   1.000  H
  H36      1.0000 0.04150  0.34900  0.80830  Biso   1.000  H
  H37      1.0000 0.93450  0.52790  0.22010  Biso   1.000  H
  H38      1.0000 0.06550  0.47210  0.77990  Biso   1.000  H
