data_image0
_cell_length_a       11.2631
_cell_length_b       13.8183
_cell_length_c       26.0539
_cell_angle_alpha    90
_cell_angle_beta     90
_cell_angle_gamma    90

_symmetry_space_group_name_H-M    "P 1"
_symmetry_int_tables_number       1

loop_
  _symmetry_equiv_pos_as_xyz
  'x, y, z'

loop_
  _atom_site_label
  _atom_site_occupancy
  _atom_site_fract_x
  _atom_site_fract_y
  _atom_site_fract_z
  _atom_site_thermal_displace_type
  _atom_site_B_iso_or_equiv
  _atom_site_type_symbol
  Cu1      1.0000 0.59083  0.72557  0.14176  Biso   1.000  Cu
  Cu2      1.0000 0.90917  0.27443  0.64176  Biso   1.000  Cu
  Cu3      1.0000 0.40917  0.22557  0.35824  Biso   1.000  Cu
  Cu4      1.0000 0.09083  0.77443  0.85824  Biso   1.000  Cu
  Cu5      1.0000 0.40917  0.27443  0.85824  Biso   1.000  Cu
  Cu6      1.0000 0.09083  0.72557  0.35824  Biso   1.000  Cu
  Cu7      1.0000 0.59083  0.77443  0.64176  Biso   1.000  Cu
  Cu8      1.0000 0.90917  0.22557  0.14176  Biso   1.000  Cu
  Cl1      1.0000 0.48287  0.56754  0.14910  Biso   1.000  Cl
  Cl2      1.0000 0.01713  0.43246  0.64910  Biso   1.000  Cl
  Cl3      1.0000 0.51713  0.06754  0.35090  Biso   1.000  Cl
  Cl4      1.0000 0.98287  0.93246  0.85090  Biso   1.000  Cl
  Cl5      1.0000 0.51713  0.43246  0.85090  Biso   1.000  Cl
  Cl6      1.0000 0.98287  0.56754  0.35090  Biso   1.000  Cl
  Cl7      1.0000 0.48287  0.93246  0.64910  Biso   1.000  Cl
  Cl8      1.0000 0.01713  0.06754  0.14910  Biso   1.000  Cl
  O1       1.0000 0.58080  0.76798  0.56858  Biso   1.000  O
  O2       1.0000 0.91920  0.23202  0.06858  Biso   1.000  O
  O3       1.0000 0.41920  0.26798  0.93142  Biso   1.000  O
  O4       1.0000 0.08080  0.73202  0.43142  Biso   1.000  O
  O5       1.0000 0.41920  0.23202  0.43142  Biso   1.000  O
  O6       1.0000 0.08080  0.76798  0.93142  Biso   1.000  O
  O7       1.0000 0.58080  0.73202  0.06858  Biso   1.000  O
  O8       1.0000 0.91920  0.26798  0.56858  Biso   1.000  O
  N1       1.0000 0.75030  0.65518  0.15092  Biso   1.000  N
  N2       1.0000 0.74970  0.34482  0.65092  Biso   1.000  N
  N3       1.0000 0.24970  0.15518  0.34908  Biso   1.000  N
  N4       1.0000 0.25030  0.84482  0.84908  Biso   1.000  N
  N5       1.0000 0.24970  0.34482  0.84908  Biso   1.000  N
  N6       1.0000 0.25030  0.65518  0.34908  Biso   1.000  N
  N7       1.0000 0.75030  0.84482  0.65092  Biso   1.000  N
  N8       1.0000 0.74970  0.15518  0.15092  Biso   1.000  N
  N9       1.0000 0.94290  0.53770  0.17685  Biso   1.000  N
  N10      1.0000 0.55710  0.46230  0.67685  Biso   1.000  N
  N11      1.0000 0.05710  0.03770  0.32315  Biso   1.000  N
  N12      1.0000 0.44290  0.96230  0.82315  Biso   1.000  N
  N13      1.0000 0.05710  0.46230  0.82315  Biso   1.000  N
  N14      1.0000 0.44290  0.53770  0.32315  Biso   1.000  N
  N15      1.0000 0.94290  0.96230  0.67685  Biso   1.000  N
  N16      1.0000 0.55710  0.03770  0.17685  Biso   1.000  N
  N17      1.0000 0.61310  0.73579  0.21539  Biso   1.000  N
  N18      1.0000 0.88690  0.26421  0.71539  Biso   1.000  N
  N19      1.0000 0.38690  0.23579  0.28461  Biso   1.000  N
  N20      1.0000 0.11310  0.76421  0.78461  Biso   1.000  N
  N21      1.0000 0.38690  0.26421  0.78461  Biso   1.000  N
  N22      1.0000 0.11310  0.73579  0.28461  Biso   1.000  N
  N23      1.0000 0.61310  0.76421  0.71539  Biso   1.000  N
  N24      1.0000 0.88690  0.23579  0.21539  Biso   1.000  N
  N25      1.0000 0.46040  0.82286  0.15953  Biso   1.000  N
  N26      1.0000 0.03960  0.17714  0.65953  Biso   1.000  N
  N27      1.0000 0.53960  0.32286  0.34047  Biso   1.000  N
  N28      1.0000 0.96040  0.67714  0.84047  Biso   1.000  N
  N29      1.0000 0.53960  0.17714  0.84047  Biso   1.000  N
  N30      1.0000 0.96040  0.82286  0.34047  Biso   1.000  N
  N31      1.0000 0.46040  0.67714  0.65953  Biso   1.000  N
  N32      1.0000 0.03960  0.32286  0.15953  Biso   1.000  N
  N33      1.0000 0.28300  0.94460  0.19736  Biso   1.000  N
  N34      1.0000 0.21700  0.05540  0.69736  Biso   1.000  N
  N35      1.0000 0.71700  0.44460  0.30264  Biso   1.000  N
  N36      1.0000 0.78300  0.55540  0.80264  Biso   1.000  N
  N37      1.0000 0.71700  0.05540  0.80264  Biso   1.000  N
  N38      1.0000 0.78300  0.94460  0.30264  Biso   1.000  N
  N39      1.0000 0.28300  0.55540  0.69736  Biso   1.000  N
  N40      1.0000 0.21700  0.44460  0.19736  Biso   1.000  N
  C1       1.0000 0.77740  0.63570  0.20055  Biso   1.000  C
  C2       1.0000 0.72260  0.36430  0.70055  Biso   1.000  C
  C3       1.0000 0.22260  0.13570  0.29945  Biso   1.000  C
  C4       1.0000 0.27740  0.86430  0.79945  Biso   1.000  C
  C5       1.0000 0.22260  0.36430  0.79945  Biso   1.000  C
  C6       1.0000 0.27740  0.63570  0.29945  Biso   1.000  C
  C7       1.0000 0.77740  0.86430  0.70055  Biso   1.000  C
  C8       1.0000 0.72260  0.13570  0.20055  Biso   1.000  C
  C9       1.0000 0.81970  0.61650  0.11504  Biso   1.000  C
  C10      1.0000 0.68030  0.38350  0.61504  Biso   1.000  C
  C11      1.0000 0.18030  0.11650  0.38496  Biso   1.000  C
  C12      1.0000 0.31970  0.88350  0.88496  Biso   1.000  C
  C13      1.0000 0.18030  0.38350  0.88496  Biso   1.000  C
  C14      1.0000 0.31970  0.61650  0.38496  Biso   1.000  C
  C15      1.0000 0.81970  0.88350  0.61504  Biso   1.000  C
  C16      1.0000 0.68030  0.11650  0.11504  Biso   1.000  C
  H1       1.0000 0.80370  0.62850  0.08060  Biso   1.000  H
  H2       1.0000 0.69630  0.37150  0.58060  Biso   1.000  H
  H3       1.0000 0.19630  0.12850  0.41940  Biso   1.000  H
  H4       1.0000 0.30370  0.87150  0.91940  Biso   1.000  H
  H5       1.0000 0.19630  0.37150  0.91940  Biso   1.000  H
  H6       1.0000 0.30370  0.62850  0.41940  Biso   1.000  H
  H7       1.0000 0.80370  0.87150  0.58060  Biso   1.000  H
  H8       1.0000 0.69630  0.12850  0.08060  Biso   1.000  H
  C17      1.0000 0.91500  0.55870  0.12818  Biso   1.000  C
  C18      1.0000 0.58500  0.44130  0.62818  Biso   1.000  C
  C19      1.0000 0.08500  0.05870  0.37182  Biso   1.000  C
  C20      1.0000 0.41500  0.94130  0.87182  Biso   1.000  C
  C21      1.0000 0.08500  0.44130  0.87182  Biso   1.000  C
  C22      1.0000 0.41500  0.55870  0.37182  Biso   1.000  C
  C23      1.0000 0.91500  0.94130  0.62818  Biso   1.000  C
  C24      1.0000 0.58500  0.05870  0.12818  Biso   1.000  C
  H9       1.0000 0.96190  0.53330  0.10210  Biso   1.000  H
  H10      1.0000 0.53810  0.46670  0.60210  Biso   1.000  H
  H11      1.0000 0.03810  0.03330  0.39790  Biso   1.000  H
  H12      1.0000 0.46190  0.96670  0.89790  Biso   1.000  H
  H13      1.0000 0.03810  0.46670  0.89790  Biso   1.000  H
  H14      1.0000 0.46190  0.53330  0.39790  Biso   1.000  H
  H15      1.0000 0.96190  0.96670  0.60210  Biso   1.000  H
  H16      1.0000 0.53810  0.03330  0.10210  Biso   1.000  H
  C25      1.0000 0.87270  0.57680  0.21280  Biso   1.000  C
  C26      1.0000 0.62730  0.42320  0.71280  Biso   1.000  C
  C27      1.0000 0.12730  0.07680  0.28720  Biso   1.000  C
  C28      1.0000 0.37270  0.92320  0.78720  Biso   1.000  C
  C29      1.0000 0.12730  0.42320  0.78720  Biso   1.000  C
  C30      1.0000 0.37270  0.57680  0.28720  Biso   1.000  C
  C31      1.0000 0.87270  0.92320  0.71280  Biso   1.000  C
  C32      1.0000 0.62730  0.07680  0.21280  Biso   1.000  C
  H17      1.0000 0.88850  0.56400  0.24720  Biso   1.000  H
  H18      1.0000 0.61150  0.43600  0.74720  Biso   1.000  H
  H19      1.0000 0.11150  0.06400  0.25280  Biso   1.000  H
  H20      1.0000 0.38850  0.93600  0.75280  Biso   1.000  H
  H21      1.0000 0.11150  0.43600  0.75280  Biso   1.000  H
  H22      1.0000 0.38850  0.56400  0.25280  Biso   1.000  H
  H23      1.0000 0.88850  0.93600  0.74720  Biso   1.000  H
  H24      1.0000 0.61150  0.06400  0.24720  Biso   1.000  H
  C33      1.0000 0.69860  0.68410  0.23833  Biso   1.000  C
  C34      1.0000 0.80140  0.31590  0.73833  Biso   1.000  C
  C35      1.0000 0.30140  0.18410  0.26167  Biso   1.000  C
  C36      1.0000 0.19860  0.81590  0.76167  Biso   1.000  C
  C37      1.0000 0.30140  0.31590  0.76167  Biso   1.000  C
  C38      1.0000 0.19860  0.68410  0.26167  Biso   1.000  C
  C39      1.0000 0.69860  0.81590  0.73833  Biso   1.000  C
  C40      1.0000 0.80140  0.18410  0.23833  Biso   1.000  C
  C41      1.0000 0.53490  0.78740  0.24317  Biso   1.000  C
  C42      1.0000 0.96510  0.21260  0.74317  Biso   1.000  C
  C43      1.0000 0.46510  0.28740  0.25683  Biso   1.000  C
  C44      1.0000 0.03490  0.71260  0.75683  Biso   1.000  C
  C45      1.0000 0.46510  0.21260  0.75683  Biso   1.000  C
  C46      1.0000 0.03490  0.78740  0.25683  Biso   1.000  C
  C47      1.0000 0.53490  0.71260  0.74317  Biso   1.000  C
  C48      1.0000 0.96510  0.28740  0.24317  Biso   1.000  C
  C49      1.0000 0.54000  0.78810  0.29619  Biso   1.000  C
  C50      1.0000 0.96000  0.21190  0.79619  Biso   1.000  C
  C51      1.0000 0.46000  0.28810  0.20381  Biso   1.000  C
  C52      1.0000 0.04000  0.71190  0.70381  Biso   1.000  C
  C53      1.0000 0.46000  0.21190  0.70381  Biso   1.000  C
  C54      1.0000 0.04000  0.78810  0.20381  Biso   1.000  C
  C55      1.0000 0.54000  0.71190  0.79619  Biso   1.000  C
  C56      1.0000 0.96000  0.28810  0.29619  Biso   1.000  C
  H25      1.0000 0.48630  0.82500  0.31500  Biso   1.000  H
  H26      1.0000 0.01370  0.17500  0.81500  Biso   1.000  H
  H27      1.0000 0.51370  0.32500  0.18500  Biso   1.000  H
  H28      1.0000 0.98630  0.67500  0.68500  Biso   1.000  H
  H29      1.0000 0.51370  0.17500  0.68500  Biso   1.000  H
  H30      1.0000 0.98630  0.82500  0.18500  Biso   1.000  H
  H31      1.0000 0.48630  0.67500  0.81500  Biso   1.000  H
  H32      1.0000 0.01370  0.32500  0.31500  Biso   1.000  H
  C57      1.0000 0.62650  0.73290  0.32156  Biso   1.000  C
  C58      1.0000 0.87350  0.26710  0.82156  Biso   1.000  C
  C59      1.0000 0.37350  0.23290  0.17844  Biso   1.000  C
  C60      1.0000 0.12650  0.76710  0.67844  Biso   1.000  C
  C61      1.0000 0.37350  0.26710  0.67844  Biso   1.000  C
  C62      1.0000 0.12650  0.73290  0.17844  Biso   1.000  C
  C63      1.0000 0.62650  0.76710  0.82156  Biso   1.000  C
  C64      1.0000 0.87350  0.23290  0.32156  Biso   1.000  C
  C65      1.0000 0.70790  0.68050  0.29128  Biso   1.000  C
  C66      1.0000 0.79210  0.31950  0.79128  Biso   1.000  C
  C67      1.0000 0.29210  0.18050  0.20872  Biso   1.000  C
  C68      1.0000 0.20790  0.81950  0.70872  Biso   1.000  C
  C69      1.0000 0.29210  0.31950  0.70872  Biso   1.000  C
  C70      1.0000 0.20790  0.68050  0.20872  Biso   1.000  C
  C71      1.0000 0.70790  0.81950  0.79128  Biso   1.000  C
  C72      1.0000 0.79210  0.18050  0.29128  Biso   1.000  C
  H33      1.0000 0.76730  0.64390  0.30670  Biso   1.000  H
  H34      1.0000 0.73270  0.35610  0.80670  Biso   1.000  H
  H35      1.0000 0.23270  0.14390  0.19330  Biso   1.000  H
  H36      1.0000 0.26730  0.85610  0.69330  Biso   1.000  H
  H37      1.0000 0.23270  0.35610  0.69330  Biso   1.000  H
  H38      1.0000 0.26730  0.64390  0.19330  Biso   1.000  H
  H39      1.0000 0.76730  0.85610  0.80670  Biso   1.000  H
  H40      1.0000 0.73270  0.14390  0.30670  Biso   1.000  H
  C73      1.0000 0.44770  0.83890  0.21049  Biso   1.000  C
  C74      1.0000 0.05230  0.16110  0.71049  Biso   1.000  C
  C75      1.0000 0.55230  0.33890  0.28951  Biso   1.000  C
  C76      1.0000 0.94770  0.66110  0.78951  Biso   1.000  C
  C77      1.0000 0.55230  0.16110  0.78951  Biso   1.000  C
  C78      1.0000 0.94770  0.83890  0.28951  Biso   1.000  C
  C79      1.0000 0.44770  0.66110  0.71049  Biso   1.000  C
  C80      1.0000 0.05230  0.33890  0.21049  Biso   1.000  C
  C81      1.0000 0.38520  0.86870  0.12824  Biso   1.000  C
  C82      1.0000 0.11480  0.13130  0.62824  Biso   1.000  C
  C83      1.0000 0.61480  0.36870  0.37176  Biso   1.000  C
  C84      1.0000 0.88520  0.63130  0.87176  Biso   1.000  C
  C85      1.0000 0.61480  0.13130  0.87176  Biso   1.000  C
  C86      1.0000 0.88520  0.86870  0.37176  Biso   1.000  C
  C87      1.0000 0.38520  0.63130  0.62824  Biso   1.000  C
  C88      1.0000 0.11480  0.36870  0.12824  Biso   1.000  C
  H41      1.0000 0.39170  0.85980  0.09300  Biso   1.000  H
  H42      1.0000 0.10830  0.14020  0.59300  Biso   1.000  H
  H43      1.0000 0.60830  0.35980  0.40700  Biso   1.000  H
  H44      1.0000 0.89170  0.64020  0.90700  Biso   1.000  H
  H45      1.0000 0.60830  0.14020  0.90700  Biso   1.000  H
  H46      1.0000 0.89170  0.85980  0.40700  Biso   1.000  H
  H47      1.0000 0.39170  0.64020  0.59300  Biso   1.000  H
  H48      1.0000 0.10830  0.35980  0.09300  Biso   1.000  H
  C89      1.0000 0.29790  0.92910  0.14720  Biso   1.000  C
  C90      1.0000 0.20210  0.07090  0.64720  Biso   1.000  C
  C91      1.0000 0.70210  0.42910  0.35280  Biso   1.000  C
  C92      1.0000 0.79790  0.57090  0.85280  Biso   1.000  C
  C93      1.0000 0.70210  0.07090  0.85280  Biso   1.000  C
  C94      1.0000 0.79790  0.92910  0.35280  Biso   1.000  C
  C95      1.0000 0.29790  0.57090  0.64720  Biso   1.000  C
  C96      1.0000 0.20210  0.42910  0.14720  Biso   1.000  C
  H49      1.0000 0.24760  0.96010  0.12420  Biso   1.000  H
  H50      1.0000 0.25240  0.03990  0.62420  Biso   1.000  H
  H51      1.0000 0.75240  0.46010  0.37580  Biso   1.000  H
  H52      1.0000 0.74760  0.53990  0.87580  Biso   1.000  H
  H53      1.0000 0.75240  0.03990  0.87580  Biso   1.000  H
  H54      1.0000 0.74760  0.96010  0.37580  Biso   1.000  H
  H55      1.0000 0.24760  0.53990  0.62420  Biso   1.000  H
  H56      1.0000 0.25240  0.46010  0.12420  Biso   1.000  H
  C97      1.0000 0.35910  0.89890  0.22893  Biso   1.000  C
  C98      1.0000 0.14090  0.10110  0.72893  Biso   1.000  C
  C99      1.0000 0.64090  0.39890  0.27107  Biso   1.000  C
  C100     1.0000 0.85910  0.60110  0.77107  Biso   1.000  C
  C101     1.0000 0.64090  0.10110  0.77107  Biso   1.000  C
  C102     1.0000 0.85910  0.89890  0.27107  Biso   1.000  C
  C103     1.0000 0.35910  0.60110  0.72893  Biso   1.000  C
  C104     1.0000 0.14090  0.39890  0.22893  Biso   1.000  C
  H57      1.0000 0.35200  0.90800  0.26420  Biso   1.000  H
  H58      1.0000 0.14800  0.09200  0.76420  Biso   1.000  H
  H59      1.0000 0.64800  0.40800  0.23580  Biso   1.000  H
  H60      1.0000 0.85200  0.59200  0.73580  Biso   1.000  H
  H61      1.0000 0.64800  0.09200  0.73580  Biso   1.000  H
  H62      1.0000 0.85200  0.90800  0.23580  Biso   1.000  H
  H63      1.0000 0.35200  0.59200  0.76420  Biso   1.000  H
  H64      1.0000 0.14800  0.40800  0.26420  Biso   1.000  H
  C105     1.0000 0.63150  0.72910  0.37843  Biso   1.000  C
  C106     1.0000 0.86850  0.27090  0.87843  Biso   1.000  C
  C107     1.0000 0.36850  0.22910  0.12157  Biso   1.000  C
  C108     1.0000 0.13150  0.77090  0.62157  Biso   1.000  C
  C109     1.0000 0.36850  0.27090  0.62157  Biso   1.000  C
  C110     1.0000 0.13150  0.72910  0.12157  Biso   1.000  C
  C111     1.0000 0.63150  0.77090  0.87843  Biso   1.000  C
  C112     1.0000 0.86850  0.22910  0.37843  Biso   1.000  C
  C113     1.0000 0.72460  0.68240  0.40327  Biso   1.000  C
  C114     1.0000 0.77540  0.31760  0.90327  Biso   1.000  C
  C115     1.0000 0.27540  0.18240  0.09673  Biso   1.000  C
  C116     1.0000 0.22460  0.81760  0.59673  Biso   1.000  C
  C117     1.0000 0.27540  0.31760  0.59673  Biso   1.000  C
  C118     1.0000 0.22460  0.68240  0.09673  Biso   1.000  C
  C119     1.0000 0.72460  0.81760  0.90327  Biso   1.000  C
  C120     1.0000 0.77540  0.18240  0.40327  Biso   1.000  C
  H65      1.0000 0.78520  0.65450  0.38400  Biso   1.000  H
  H66      1.0000 0.71480  0.34550  0.88400  Biso   1.000  H
  H67      1.0000 0.21480  0.15450  0.11600  Biso   1.000  H
  H68      1.0000 0.28520  0.84550  0.61600  Biso   1.000  H
  H69      1.0000 0.21480  0.34550  0.61600  Biso   1.000  H
  H70      1.0000 0.28520  0.65450  0.11600  Biso   1.000  H
  H71      1.0000 0.78520  0.84550  0.88400  Biso   1.000  H
  H72      1.0000 0.71480  0.15450  0.38400  Biso   1.000  H
  C121     1.0000 0.72820  0.67700  0.45618  Biso   1.000  C
  C122     1.0000 0.77180  0.32300  0.95618  Biso   1.000  C
  C123     1.0000 0.27180  0.17700  0.04382  Biso   1.000  C
  C124     1.0000 0.22820  0.82300  0.54382  Biso   1.000  C
  C125     1.0000 0.27180  0.32300  0.54382  Biso   1.000  C
  C126     1.0000 0.22820  0.67700  0.04382  Biso   1.000  C
  C127     1.0000 0.72820  0.82300  0.95618  Biso   1.000  C
  C128     1.0000 0.77180  0.17700  0.45618  Biso   1.000  C
  H73      1.0000 0.79140  0.64560  0.47210  Biso   1.000  H
  H74      1.0000 0.70860  0.35440  0.97210  Biso   1.000  H
  H75      1.0000 0.20860  0.14560  0.02790  Biso   1.000  H
  H76      1.0000 0.29140  0.85440  0.52790  Biso   1.000  H
  H77      1.0000 0.20860  0.35440  0.52790  Biso   1.000  H
  H78      1.0000 0.29140  0.64560  0.02790  Biso   1.000  H
  H79      1.0000 0.79140  0.85440  0.97210  Biso   1.000  H
  H80      1.0000 0.70860  0.14560  0.47210  Biso   1.000  H
  C129     1.0000 0.63940  0.71740  0.48582  Biso   1.000  C
  C130     1.0000 0.86060  0.28260  0.98582  Biso   1.000  C
  C131     1.0000 0.36060  0.21740  0.01418  Biso   1.000  C
  C132     1.0000 0.13940  0.78260  0.51418  Biso   1.000  C
  C133     1.0000 0.36060  0.28260  0.51418  Biso   1.000  C
  C134     1.0000 0.13940  0.71740  0.01418  Biso   1.000  C
  C135     1.0000 0.63940  0.78260  0.98582  Biso   1.000  C
  C136     1.0000 0.86060  0.21740  0.48582  Biso   1.000  C
  C137     1.0000 0.54650  0.76420  0.46173  Biso   1.000  C
  C138     1.0000 0.95350  0.23580  0.96173  Biso   1.000  C
  C139     1.0000 0.45350  0.26420  0.03827  Biso   1.000  C
  C140     1.0000 0.04650  0.73580  0.53827  Biso   1.000  C
  C141     1.0000 0.45350  0.23580  0.53827  Biso   1.000  C
  C142     1.0000 0.04650  0.76420  0.03827  Biso   1.000  C
  C143     1.0000 0.54650  0.73580  0.96173  Biso   1.000  C
  C144     1.0000 0.95350  0.26420  0.46173  Biso   1.000  C
  H81      1.0000 0.48650  0.79200  0.48130  Biso   1.000  H
  H82      1.0000 0.01350  0.20800  0.98130  Biso   1.000  H
  H83      1.0000 0.51350  0.29200  0.01870  Biso   1.000  H
  H84      1.0000 0.98650  0.70800  0.51870  Biso   1.000  H
  H85      1.0000 0.51350  0.20800  0.51870  Biso   1.000  H
  H86      1.0000 0.98650  0.79200  0.01870  Biso   1.000  H
  H87      1.0000 0.48650  0.70800  0.98130  Biso   1.000  H
  H88      1.0000 0.01350  0.29200  0.48130  Biso   1.000  H
  C145     1.0000 0.54210  0.77000  0.40860  Biso   1.000  C
  C146     1.0000 0.95790  0.23000  0.90860  Biso   1.000  C
  C147     1.0000 0.45790  0.27000  0.09140  Biso   1.000  C
  C148     1.0000 0.04210  0.73000  0.59140  Biso   1.000  C
  C149     1.0000 0.45790  0.23000  0.59140  Biso   1.000  C
  C150     1.0000 0.04210  0.77000  0.09140  Biso   1.000  C
  C151     1.0000 0.54210  0.73000  0.90860  Biso   1.000  C
  C152     1.0000 0.95790  0.27000  0.40860  Biso   1.000  C
  H89      1.0000 0.47880  0.80160  0.39290  Biso   1.000  H
  H90      1.0000 0.02120  0.19840  0.89290  Biso   1.000  H
  H91      1.0000 0.52120  0.30160  0.10710  Biso   1.000  H
  H92      1.0000 0.97880  0.69840  0.60710  Biso   1.000  H
  H93      1.0000 0.52120  0.19840  0.60710  Biso   1.000  H
  H94      1.0000 0.97880  0.80160  0.10710  Biso   1.000  H
  H95      1.0000 0.47880  0.69840  0.89290  Biso   1.000  H
  H96      1.0000 0.02120  0.30160  0.39290  Biso   1.000  H
  C153     1.0000 0.64710  0.71080  0.54345  Biso   1.000  C
  C154     1.0000 0.85290  0.28920  0.04345  Biso   1.000  C
  C155     1.0000 0.35290  0.21080  0.95655  Biso   1.000  C
  C156     1.0000 0.14710  0.78920  0.45655  Biso   1.000  C
  C157     1.0000 0.35290  0.28920  0.45655  Biso   1.000  C
  C158     1.0000 0.14710  0.71080  0.95655  Biso   1.000  C
  C159     1.0000 0.64710  0.78920  0.04345  Biso   1.000  C
  C160     1.0000 0.85290  0.21080  0.54345  Biso   1.000  C
  O9       1.0000 0.73540  0.66790  0.56321  Biso   1.000  O
  O10      1.0000 0.76460  0.33210  0.06321  Biso   1.000  O
  O11      1.0000 0.26460  0.16790  0.93679  Biso   1.000  O
  O12      1.0000 0.23540  0.83210  0.43679  Biso   1.000  O
  O13      1.0000 0.26460  0.33210  0.43679  Biso   1.000  O
  O14      1.0000 0.23540  0.66790  0.93679  Biso   1.000  O
  O15      1.0000 0.73540  0.83210  0.06321  Biso   1.000  O
  O16      1.0000 0.76460  0.16790  0.56321  Biso   1.000  O
  O17      1.0000 0.58170  0.45980  0.49260  Biso   1.000  O
  O18      1.0000 0.91830  0.54020  0.99260  Biso   1.000  O
  O19      1.0000 0.41830  0.95980  0.00740  Biso   1.000  O
  O20      1.0000 0.08170  0.04020  0.50740  Biso   1.000  O
  O21      1.0000 0.41830  0.54020  0.50740  Biso   1.000  O
  O22      1.0000 0.08170  0.45980  0.00740  Biso   1.000  O
  O23      1.0000 0.58170  0.04020  0.99260  Biso   1.000  O
  O24      1.0000 0.91830  0.95980  0.49260  Biso   1.000  O
  O25      1.0000 0.67960  0.44280  0.48950  Biso   1.000  O
  O26      1.0000 0.82040  0.55720  0.98950  Biso   1.000  O
  O27      1.0000 0.32040  0.94280  0.01050  Biso   1.000  O
  O28      1.0000 0.17960  0.05720  0.51050  Biso   1.000  O
  O29      1.0000 0.32040  0.55720  0.51050  Biso   1.000  O
  O30      1.0000 0.17960  0.44280  0.01050  Biso   1.000  O
  O31      1.0000 0.67960  0.05720  0.98950  Biso   1.000  O
  O32      1.0000 0.82040  0.94280  0.48950  Biso   1.000  O
  H97      1.0000 0.60610  0.43710  0.49630  Biso   1.000  H
  H98      1.0000 0.89390  0.56290  0.99630  Biso   1.000  H
  H99      1.0000 0.39390  0.93710  0.00370  Biso   1.000  H
  H100     1.0000 0.10610  0.06290  0.50370  Biso   1.000  H
  H101     1.0000 0.39390  0.56290  0.50370  Biso   1.000  H
  H102     1.0000 0.10610  0.43710  0.00370  Biso   1.000  H
  H103     1.0000 0.60610  0.06290  0.99630  Biso   1.000  H
  H104     1.0000 0.89390  0.93710  0.49630  Biso   1.000  H
  H105     1.0000 0.70600  0.38950  0.47790  Biso   1.000  H
  H106     1.0000 0.79400  0.61050  0.97790  Biso   1.000  H
  H107     1.0000 0.29400  0.88950  0.02210  Biso   1.000  H
  H108     1.0000 0.20600  0.11050  0.52210  Biso   1.000  H
  H109     1.0000 0.29400  0.61050  0.52210  Biso   1.000  H
  H110     1.0000 0.20600  0.38950  0.02210  Biso   1.000  H
  H111     1.0000 0.70600  0.11050  0.97790  Biso   1.000  H
  H112     1.0000 0.79400  0.88950  0.47790  Biso   1.000  H
  O33      1.0000 0.79910  0.46410  0.49890  Biso   1.000  O
  O34      1.0000 0.70090  0.53590  0.99890  Biso   1.000  O
  O35      1.0000 0.20090  0.96410  0.00110  Biso   1.000  O
  O36      1.0000 0.29910  0.03590  0.50110  Biso   1.000  O
  O37      1.0000 0.20090  0.53590  0.50110  Biso   1.000  O
  O38      1.0000 0.29910  0.46410  0.00110  Biso   1.000  O
  O39      1.0000 0.79910  0.03590  0.99890  Biso   1.000  O
  O40      1.0000 0.70090  0.96410  0.49890  Biso   1.000  O
  O41      1.0000 0.89390  0.48770  0.52510  Biso   1.000  O
  O42      1.0000 0.60610  0.51230  0.02510  Biso   1.000  O
  O43      1.0000 0.10610  0.98770  0.97490  Biso   1.000  O
  O44      1.0000 0.39390  0.01230  0.47490  Biso   1.000  O
  O45      1.0000 0.10610  0.51230  0.47490  Biso   1.000  O
  O46      1.0000 0.39390  0.48770  0.97490  Biso   1.000  O
  O47      1.0000 0.89390  0.01230  0.02510  Biso   1.000  O
  O48      1.0000 0.60610  0.98770  0.52510  Biso   1.000  O
  H113     1.0000 0.95620  0.50320  0.50870  Biso   1.000  H
  H114     1.0000 0.54380  0.49680  0.00870  Biso   1.000  H
  H115     1.0000 0.04380  0.00320  0.99130  Biso   1.000  H
  H116     1.0000 0.45620  0.99680  0.49130  Biso   1.000  H
  H117     1.0000 0.04380  0.49680  0.49130  Biso   1.000  H
  H118     1.0000 0.45620  0.50320  0.99130  Biso   1.000  H
  H119     1.0000 0.95620  0.99680  0.00870  Biso   1.000  H
  H120     1.0000 0.54380  0.00320  0.50870  Biso   1.000  H
  H121     1.0000 0.87760  0.53160  0.54690  Biso   1.000  H
  H122     1.0000 0.62240  0.46840  0.04690  Biso   1.000  H
  H123     1.0000 0.12240  0.03160  0.95310  Biso   1.000  H
  H124     1.0000 0.37760  0.96840  0.45310  Biso   1.000  H
  H125     1.0000 0.12240  0.46840  0.45310  Biso   1.000  H
  H126     1.0000 0.37760  0.53160  0.95310  Biso   1.000  H
  H127     1.0000 0.87760  0.96840  0.04690  Biso   1.000  H
  H128     1.0000 0.62240  0.03160  0.54690  Biso   1.000  H
  O49      1.0000 0.81300  0.59142  0.65127  Biso   1.000  O
  O50      1.0000 0.68700  0.40858  0.15127  Biso   1.000  O
  O51      1.0000 0.18700  0.09142  0.84873  Biso   1.000  O
  O52      1.0000 0.31300  0.90858  0.34873  Biso   1.000  O
  O53      1.0000 0.18700  0.40858  0.34873  Biso   1.000  O
  O54      1.0000 0.31300  0.59142  0.84873  Biso   1.000  O
  O55      1.0000 0.81300  0.90858  0.15127  Biso   1.000  O
  O56      1.0000 0.68700  0.09142  0.65127  Biso   1.000  O
  H129     1.0000 0.78800  0.61130  0.62230  Biso   1.000  H
  H130     1.0000 0.71200  0.38870  0.12230  Biso   1.000  H
  H131     1.0000 0.21200  0.11130  0.87770  Biso   1.000  H
  H132     1.0000 0.28800  0.88870  0.37770  Biso   1.000  H
  H133     1.0000 0.21200  0.38870  0.37770  Biso   1.000  H
  H134     1.0000 0.28800  0.61130  0.87770  Biso   1.000  H
  H135     1.0000 0.78800  0.88870  0.12230  Biso   1.000  H
  H136     1.0000 0.71200  0.11130  0.62230  Biso   1.000  H
  H137     1.0000 0.86930  0.55130  0.64670  Biso   1.000  H
  H138     1.0000 0.63070  0.44870  0.14670  Biso   1.000  H
  H139     1.0000 0.13070  0.05130  0.85330  Biso   1.000  H
  H140     1.0000 0.36930  0.94870  0.35330  Biso   1.000  H
  H141     1.0000 0.13070  0.44870  0.35330  Biso   1.000  H
  H142     1.0000 0.36930  0.55130  0.85330  Biso   1.000  H
  H143     1.0000 0.86930  0.94870  0.14670  Biso   1.000  H
  H144     1.0000 0.63070  0.05130  0.64670  Biso   1.000  H
  O57      1.0000 0.67450  0.63060  0.56220  Biso   1.000  O
  O58      1.0000 0.82550  0.36940  0.06220  Biso   1.000  O
  O59      1.0000 0.32550  0.13060  0.93780  Biso   1.000  O
  O60      1.0000 0.17450  0.86940  0.43780  Biso   1.000  O
  O61      1.0000 0.32550  0.36940  0.43780  Biso   1.000  O
  O62      1.0000 0.17450  0.63060  0.93780  Biso   1.000  O
  O63      1.0000 0.67450  0.86940  0.06220  Biso   1.000  O
  O64      1.0000 0.82550  0.13060  0.56220  Biso   1.000  O
  H145     1.0000 0.64180  0.49550  0.49820  Biso   1.000  H
  H146     1.0000 0.85820  0.50450  0.99820  Biso   1.000  H
  H147     1.0000 0.35820  0.99550  0.00180  Biso   1.000  H
  H148     1.0000 0.14180  0.00450  0.50180  Biso   1.000  H
  H149     1.0000 0.35820  0.50450  0.50180  Biso   1.000  H
  H150     1.0000 0.14180  0.49550  0.00180  Biso   1.000  H
  H151     1.0000 0.64180  0.00450  0.99820  Biso   1.000  H
  H152     1.0000 0.85820  0.99550  0.49820  Biso   1.000  H
  H153     1.0000 0.75620  0.48660  0.47480  Biso   1.000  H
  H154     1.0000 0.74380  0.51340  0.97480  Biso   1.000  H
  H155     1.0000 0.24380  0.98660  0.02520  Biso   1.000  H
  H156     1.0000 0.25620  0.01340  0.52520  Biso   1.000  H
  H157     1.0000 0.24380  0.51340  0.52520  Biso   1.000  H
  H158     1.0000 0.25620  0.48660  0.02520  Biso   1.000  H
  H159     1.0000 0.75620  0.01340  0.97480  Biso   1.000  H
  H160     1.0000 0.74380  0.98660  0.47480  Biso   1.000  H
  H161     1.0000 0.52060  0.48520  0.50610  Biso   1.000  H
  H162     1.0000 0.97940  0.51480  0.00610  Biso   1.000  H
  H163     1.0000 0.47940  0.98520  0.99390  Biso   1.000  H
  H164     1.0000 0.02060  0.01480  0.49390  Biso   1.000  H
  H165     1.0000 0.47940  0.51480  0.49390  Biso   1.000  H
  H166     1.0000 0.02060  0.48520  0.99390  Biso   1.000  H
  H167     1.0000 0.52060  0.01480  0.00610  Biso   1.000  H
  H168     1.0000 0.97940  0.98520  0.50610  Biso   1.000  H
  H169     1.0000 0.76120  0.46720  0.52700  Biso   1.000  H
  H170     1.0000 0.73880  0.53280  0.02700  Biso   1.000  H
  H171     1.0000 0.23880  0.96720  0.97300  Biso   1.000  H
  H172     1.0000 0.26120  0.03280  0.47300  Biso   1.000  H
  H173     1.0000 0.23880  0.53280  0.47300  Biso   1.000  H
  H174     1.0000 0.26120  0.46720  0.97300  Biso   1.000  H
  H175     1.0000 0.76120  0.03280  0.02700  Biso   1.000  H
  H176     1.0000 0.73880  0.96720  0.52700  Biso   1.000  H
