data_image0
_cell_length_a       6.8936
_cell_length_b       25.5848
_cell_length_c       11.3583
_cell_angle_alpha    90
_cell_angle_beta     101.573
_cell_angle_gamma    90

_symmetry_space_group_name_H-M    "P 1"
_symmetry_int_tables_number       1

loop_
  _symmetry_equiv_pos_as_xyz
  'x, y, z'

loop_
  _atom_site_label
  _atom_site_occupancy
  _atom_site_fract_x
  _atom_site_fract_y
  _atom_site_fract_z
  _atom_site_thermal_displace_type
  _atom_site_B_iso_or_equiv
  _atom_site_type_symbol
  Cu1      1.0000 0.50456  0.68118  0.65623  Biso   1.000  Cu
  Cu2      1.0000 0.49544  0.18118  0.84377  Biso   1.000  Cu
  Cu3      1.0000 0.49544  0.31882  0.34377  Biso   1.000  Cu
  Cu4      1.0000 0.50456  0.81882  0.15623  Biso   1.000  Cu
  O1       1.0000 0.46550  0.25484  0.86100  Biso   1.000  O
  O2       1.0000 0.53450  0.75484  0.63900  Biso   1.000  O
  O3       1.0000 0.53450  0.74516  0.13900  Biso   1.000  O
  O4       1.0000 0.46550  0.24516  0.36100  Biso   1.000  O
  O5       1.0000 0.64480  0.27734  0.03890  Biso   1.000  O
  O6       1.0000 0.35520  0.77734  0.46110  Biso   1.000  O
  O7       1.0000 0.35520  0.72266  0.96110  Biso   1.000  O
  O8       1.0000 0.64480  0.22266  0.53890  Biso   1.000  O
  O9       1.0000 0.22420  0.69665  0.72560  Biso   1.000  O
  O10      1.0000 0.77580  0.19665  0.77440  Biso   1.000  O
  O11      1.0000 0.77580  0.30335  0.27440  Biso   1.000  O
  O12      1.0000 0.22420  0.80335  0.22560  Biso   1.000  O
  H1       1.0000 0.16900  0.66680  0.72400  Biso   1.000  H
  H2       1.0000 0.83100  0.16680  0.77600  Biso   1.000  H
  H3       1.0000 0.83100  0.33320  0.27600  Biso   1.000  H
  H4       1.0000 0.16900  0.83320  0.22400  Biso   1.000  H
  H5       1.0000 0.26300  0.70470  0.79920  Biso   1.000  H
  H6       1.0000 0.73700  0.20470  0.70080  Biso   1.000  H
  H7       1.0000 0.73700  0.29530  0.20080  Biso   1.000  H
  H8       1.0000 0.26300  0.79530  0.29920  Biso   1.000  H
  N1       1.0000 0.70620  0.68511  0.81790  Biso   1.000  N
  N2       1.0000 0.29380  0.18511  0.68210  Biso   1.000  N
  N3       1.0000 0.29380  0.31489  0.18210  Biso   1.000  N
  N4       1.0000 0.70620  0.81489  0.31790  Biso   1.000  N
  N5       1.0000 0.93410  0.68000  0.04870  Biso   1.000  N
  N6       1.0000 0.06590  0.18000  0.45130  Biso   1.000  N
  N7       1.0000 0.06590  0.32000  0.95130  Biso   1.000  N
  N8       1.0000 0.93410  0.82000  0.54870  Biso   1.000  N
  N9       1.0000 0.52190  0.60773  0.70500  Biso   1.000  N
  N10      1.0000 0.47810  0.10773  0.79500  Biso   1.000  N
  N11      1.0000 0.47810  0.39227  0.29500  Biso   1.000  N
  N12      1.0000 0.52190  0.89227  0.20500  Biso   1.000  N
  N13      1.0000 0.33570  0.64568  0.50410  Biso   1.000  N
  N14      1.0000 0.66430  0.14568  0.99590  Biso   1.000  N
  N15      1.0000 0.66430  0.35432  0.49590  Biso   1.000  N
  N16      1.0000 0.33570  0.85432  0.00410  Biso   1.000  N
  N17      1.0000 0.09550  0.58496  0.32690  Biso   1.000  N
  N18      1.0000 0.90450  0.08496  0.17310  Biso   1.000  N
  N19      1.0000 0.90450  0.41504  0.67310  Biso   1.000  N
  N20      1.0000 0.09550  0.91504  0.82690  Biso   1.000  N
  C1       1.0000 0.73570  0.63922  0.87790  Biso   1.000  C
  C2       1.0000 0.26430  0.13922  0.62210  Biso   1.000  C
  C3       1.0000 0.26430  0.36078  0.12210  Biso   1.000  C
  C4       1.0000 0.73570  0.86078  0.37790  Biso   1.000  C
  C5       1.0000 0.79370  0.72753  0.87200  Biso   1.000  C
  C6       1.0000 0.20630  0.22753  0.62800  Biso   1.000  C
  C7       1.0000 0.20630  0.27247  0.12800  Biso   1.000  C
  C8       1.0000 0.79370  0.77247  0.37200  Biso   1.000  C
  H9       1.0000 0.78010  0.75930  0.83150  Biso   1.000  H
  H10      1.0000 0.21990  0.25930  0.66850  Biso   1.000  H
  H11      1.0000 0.21990  0.24070  0.16850  Biso   1.000  H
  H12      1.0000 0.78010  0.74070  0.33150  Biso   1.000  H
  C9       1.0000 0.90470  0.72504  0.98800  Biso   1.000  C
  C10      1.0000 0.09530  0.22504  0.51200  Biso   1.000  C
  C11      1.0000 0.09530  0.27496  0.01200  Biso   1.000  C
  C12      1.0000 0.90470  0.77496  0.48800  Biso   1.000  C
  H13      1.0000 0.96040  0.75550  0.02460  Biso   1.000  H
  H14      1.0000 0.03960  0.25550  0.47540  Biso   1.000  H
  H15      1.0000 0.03960  0.24450  0.97540  Biso   1.000  H
  H16      1.0000 0.96040  0.74450  0.52460  Biso   1.000  H
  C13      1.0000 0.84940  0.63750  0.99250  Biso   1.000  C
  C14      1.0000 0.15060  0.13750  0.50750  Biso   1.000  C
  C15      1.0000 0.15060  0.36250  0.00750  Biso   1.000  C
  C16      1.0000 0.84940  0.86250  0.49250  Biso   1.000  C
  H17      1.0000 0.86770  0.60550  0.03220  Biso   1.000  H
  H18      1.0000 0.13230  0.10550  0.46780  Biso   1.000  H
  H19      1.0000 0.13230  0.39450  0.96780  Biso   1.000  H
  H20      1.0000 0.86770  0.89450  0.53220  Biso   1.000  H
  C17      1.0000 0.63110  0.59422  0.81100  Biso   1.000  C
  C18      1.0000 0.36890  0.09422  0.68900  Biso   1.000  C
  C19      1.0000 0.36890  0.40578  0.18900  Biso   1.000  C
  C20      1.0000 0.63110  0.90578  0.31100  Biso   1.000  C
  C21      1.0000 0.64120  0.54299  0.85180  Biso   1.000  C
  C22      1.0000 0.35880  0.04299  0.64820  Biso   1.000  C
  C23      1.0000 0.35880  0.45701  0.14820  Biso   1.000  C
  C24      1.0000 0.64120  0.95701  0.35180  Biso   1.000  C
  H21      1.0000 0.71790  0.53440  0.92630  Biso   1.000  H
  H22      1.0000 0.28210  0.03440  0.57370  Biso   1.000  H
  H23      1.0000 0.28210  0.46560  0.07370  Biso   1.000  H
  H24      1.0000 0.71790  0.96560  0.42630  Biso   1.000  H
  C25      1.0000 0.53300  0.50423  0.77830  Biso   1.000  C
  C26      1.0000 0.46700  0.00423  0.72170  Biso   1.000  C
  C27      1.0000 0.46700  0.49577  0.22170  Biso   1.000  C
  C28      1.0000 0.53300  0.99577  0.27830  Biso   1.000  C
  C29      1.0000 0.42180  0.51963  0.66690  Biso   1.000  C
  C30      1.0000 0.57820  0.01963  0.83310  Biso   1.000  C
  C31      1.0000 0.57820  0.48037  0.33310  Biso   1.000  C
  C32      1.0000 0.42180  0.98037  0.16690  Biso   1.000  C
  H25      1.0000 0.34940  0.49500  0.61600  Biso   1.000  H
  H26      1.0000 0.65060  0.99500  0.88400  Biso   1.000  H
  H27      1.0000 0.65060  0.50500  0.38400  Biso   1.000  H
  H28      1.0000 0.34940  0.00500  0.11600  Biso   1.000  H
  C33      1.0000 0.41930  0.57144  0.63240  Biso   1.000  C
  C34      1.0000 0.58070  0.07144  0.86760  Biso   1.000  C
  C35      1.0000 0.58070  0.42856  0.36760  Biso   1.000  C
  C36      1.0000 0.41930  0.92856  0.13240  Biso   1.000  C
  C37      1.0000 0.31290  0.59336  0.51780  Biso   1.000  C
  C38      1.0000 0.68710  0.09336  0.98220  Biso   1.000  C
  C39      1.0000 0.68710  0.40664  0.48220  Biso   1.000  C
  C40      1.0000 0.31290  0.90664  0.01780  Biso   1.000  C
  C41      1.0000 0.19420  0.56414  0.42910  Biso   1.000  C
  C42      1.0000 0.80580  0.06414  0.07090  Biso   1.000  C
  C43      1.0000 0.80580  0.43586  0.57090  Biso   1.000  C
  C44      1.0000 0.19420  0.93586  0.92910  Biso   1.000  C
  H29      1.0000 0.18280  0.52840  0.44120  Biso   1.000  H
  H30      1.0000 0.81720  0.02840  0.05880  Biso   1.000  H
  H31      1.0000 0.81720  0.47160  0.55880  Biso   1.000  H
  H32      1.0000 0.18280  0.97160  0.94120  Biso   1.000  H
  C45      1.0000 0.11930  0.63650  0.31420  Biso   1.000  C
  C46      1.0000 0.88070  0.13650  0.18580  Biso   1.000  C
  C47      1.0000 0.88070  0.36350  0.68580  Biso   1.000  C
  C48      1.0000 0.11930  0.86350  0.81420  Biso   1.000  C
  H33      1.0000 0.05310  0.65270  0.24440  Biso   1.000  H
  H34      1.0000 0.94690  0.15270  0.25560  Biso   1.000  H
  H35      1.0000 0.94690  0.34730  0.75560  Biso   1.000  H
  H36      1.0000 0.05310  0.84730  0.74440  Biso   1.000  H
  C49      1.0000 0.23900  0.66655  0.40150  Biso   1.000  C
  C50      1.0000 0.76100  0.16655  0.09850  Biso   1.000  C
  C51      1.0000 0.76100  0.33345  0.59850  Biso   1.000  C
  C52      1.0000 0.23900  0.83345  0.90150  Biso   1.000  C
  H37      1.0000 0.25210  0.70210  0.38810  Biso   1.000  H
  H38      1.0000 0.74790  0.20210  0.11190  Biso   1.000  H
  H39      1.0000 0.74790  0.29790  0.61190  Biso   1.000  H
  H40      1.0000 0.25210  0.79790  0.88810  Biso   1.000  H
  C53      1.0000 0.53750  0.44901  0.81950  Biso   1.000  C
  C54      1.0000 0.46250  0.94901  0.68050  Biso   1.000  C
  C55      1.0000 0.46250  0.55099  0.18050  Biso   1.000  C
  C56      1.0000 0.53750  0.05099  0.31950  Biso   1.000  C
  C57      1.0000 0.64470  0.43421  0.93230  Biso   1.000  C
  C58      1.0000 0.35530  0.93421  0.56770  Biso   1.000  C
  C59      1.0000 0.35530  0.56579  0.06770  Biso   1.000  C
  C60      1.0000 0.64470  0.06579  0.43230  Biso   1.000  C
  H41      1.0000 0.71460  0.45930  0.98310  Biso   1.000  H
  H42      1.0000 0.28540  0.95930  0.51690  Biso   1.000  H
  H43      1.0000 0.28540  0.54070  0.01690  Biso   1.000  H
  H44      1.0000 0.71460  0.04070  0.48310  Biso   1.000  H
  C61      1.0000 0.64800  0.38262  0.96930  Biso   1.000  C
  C62      1.0000 0.35200  0.88262  0.53070  Biso   1.000  C
  C63      1.0000 0.35200  0.61738  0.03070  Biso   1.000  C
  C64      1.0000 0.64800  0.11738  0.46930  Biso   1.000  C
  H45      1.0000 0.71800  0.37370  0.04540  Biso   1.000  H
  H46      1.0000 0.28200  0.87370  0.45460  Biso   1.000  H
  H47      1.0000 0.28200  0.62630  0.95460  Biso   1.000  H
  H48      1.0000 0.71800  0.12630  0.54540  Biso   1.000  H
  C65      1.0000 0.54880  0.34377  0.89470  Biso   1.000  C
  C66      1.0000 0.45120  0.84377  0.60530  Biso   1.000  C
  C67      1.0000 0.45120  0.65623  0.10530  Biso   1.000  C
  C68      1.0000 0.54880  0.15623  0.39470  Biso   1.000  C
  C69      1.0000 0.44320  0.35868  0.78070  Biso   1.000  C
  C70      1.0000 0.55680  0.85868  0.71930  Biso   1.000  C
  C71      1.0000 0.55680  0.64132  0.21930  Biso   1.000  C
  C72      1.0000 0.44320  0.14132  0.28070  Biso   1.000  C
  H49      1.0000 0.37680  0.33340  0.72890  Biso   1.000  H
  H50      1.0000 0.62320  0.83340  0.77110  Biso   1.000  H
  H51      1.0000 0.62320  0.66660  0.27110  Biso   1.000  H
  H52      1.0000 0.37680  0.16660  0.22890  Biso   1.000  H
  C73      1.0000 0.43650  0.41002  0.74440  Biso   1.000  C
  C74      1.0000 0.56350  0.91002  0.75560  Biso   1.000  C
  C75      1.0000 0.56350  0.58998  0.25560  Biso   1.000  C
  C76      1.0000 0.43650  0.08998  0.24440  Biso   1.000  C
  H53      1.0000 0.36390  0.41900  0.66900  Biso   1.000  H
  H54      1.0000 0.63610  0.91900  0.83100  Biso   1.000  H
  H55      1.0000 0.63610  0.58100  0.33100  Biso   1.000  H
  H56      1.0000 0.36390  0.08100  0.16900  Biso   1.000  H
  C77      1.0000 0.55630  0.28810  0.93700  Biso   1.000  C
  C78      1.0000 0.44370  0.78810  0.56300  Biso   1.000  C
  C79      1.0000 0.44370  0.71190  0.06300  Biso   1.000  C
  C80      1.0000 0.55630  0.21190  0.43700  Biso   1.000  C
  O13      1.0000 0.00920  0.60242  0.69620  Biso   1.000  O
  O14      1.0000 0.99080  0.10242  0.80380  Biso   1.000  O
  O15      1.0000 0.99080  0.39758  0.30380  Biso   1.000  O
  O16      1.0000 0.00920  0.89758  0.19620  Biso   1.000  O
  O17      1.0000 0.82930  0.64671  0.55100  Biso   1.000  O
  O18      1.0000 0.17070  0.14671  0.94900  Biso   1.000  O
  O19      1.0000 0.17070  0.35329  0.44900  Biso   1.000  O
  O20      1.0000 0.82930  0.85329  0.05100  Biso   1.000  O
  O21      1.0000 0.81820  0.56201  0.54960  Biso   1.000  O
  O22      1.0000 0.18180  0.06201  0.95040  Biso   1.000  O
  O23      1.0000 0.18180  0.43799  0.45040  Biso   1.000  O
  O24      1.0000 0.81820  0.93799  0.04960  Biso   1.000  O
  N21      1.0000 0.88550  0.60350  0.59770  Biso   1.000  N
  N22      1.0000 0.11450  0.10350  0.90230  Biso   1.000  N
  N23      1.0000 0.11450  0.39650  0.40230  Biso   1.000  N
  N24      1.0000 0.88550  0.89650  0.09770  Biso   1.000  N
  O25      1.0000 0.92170  0.49920  0.16220  Biso   1.000  O
  O26      1.0000 0.07830  0.99920  0.33780  Biso   1.000  O
  O27      1.0000 0.07830  0.50080  0.83780  Biso   1.000  O
  O28      1.0000 0.92170  0.00080  0.66220  Biso   1.000  O
  H57      1.0000 0.97130  0.52430  0.20730  Biso   1.000  H
  H58      1.0000 0.02870  0.02430  0.29270  Biso   1.000  H
  H59      1.0000 0.02870  0.47570  0.79270  Biso   1.000  H
  H60      1.0000 0.97130  0.97570  0.70730  Biso   1.000  H
  H61      1.0000 0.95320  0.47040  0.19810  Biso   1.000  H
  H62      1.0000 0.04680  0.97040  0.30190  Biso   1.000  H
  H63      1.0000 0.04680  0.52960  0.80190  Biso   1.000  H
  H64      1.0000 0.95320  0.02960  0.69810  Biso   1.000  H
