data_image0
_cell_length_a       6.7054
_cell_length_b       9.0818
_cell_length_c       8.1187
_cell_angle_alpha    90
_cell_angle_beta     90
_cell_angle_gamma    90

_symmetry_space_group_name_H-M    "P 1"
_symmetry_int_tables_number       1

loop_
  _symmetry_equiv_pos_as_xyz
  'x, y, z'

loop_
  _atom_site_label
  _atom_site_occupancy
  _atom_site_fract_x
  _atom_site_fract_y
  _atom_site_fract_z
  _atom_site_thermal_displace_type
  _atom_site_B_iso_or_equiv
  _atom_site_type_symbol
  Cu1      1.0000 0.24593  0.16089  0.49974  Biso   1.000  Cu
  Cu2      1.0000 0.75407  0.83911  0.99974  Biso   1.000  Cu
  Cu3      1.0000 0.25407  0.66089  0.99974  Biso   1.000  Cu
  Cu4      1.0000 0.74593  0.33911  0.49974  Biso   1.000  Cu
  N1       1.0000 0.34190  0.31890  0.34070  Biso   1.000  N
  N2       1.0000 0.65810  0.68110  0.84070  Biso   1.000  N
  N3       1.0000 0.15810  0.81890  0.84070  Biso   1.000  N
  N4       1.0000 0.84190  0.18110  0.34070  Biso   1.000  N
  N5       1.0000 0.52550  0.38570  0.34240  Biso   1.000  N
  N6       1.0000 0.47450  0.61430  0.84240  Biso   1.000  N
  N7       1.0000 0.97450  0.88570  0.84240  Biso   1.000  N
  N8       1.0000 0.02550  0.11430  0.34240  Biso   1.000  N
  N9       1.0000 0.34210  0.49680  0.15290  Biso   1.000  N
  N10      1.0000 0.65790  0.50320  0.65290  Biso   1.000  N
  N11      1.0000 0.15790  0.99680  0.65290  Biso   1.000  N
  N12      1.0000 0.84210  0.00320  0.15290  Biso   1.000  N
  N13      1.0000 0.50040  0.18760  0.62180  Biso   1.000  N
  N14      1.0000 0.49960  0.81240  0.12180  Biso   1.000  N
  N15      1.0000 0.99960  0.68760  0.12180  Biso   1.000  N
  N16      1.0000 0.00040  0.31240  0.62180  Biso   1.000  N
  N17      1.0000 0.50710  0.16170  0.76630  Biso   1.000  N
  N18      1.0000 0.49290  0.83830  0.26630  Biso   1.000  N
  N19      1.0000 0.99290  0.66170  0.26630  Biso   1.000  N
  N20      1.0000 0.00710  0.33830  0.76630  Biso   1.000  N
  N21      1.0000 0.49800  0.16380  0.90800  Biso   1.000  N
  N22      1.0000 0.50200  0.83620  0.40800  Biso   1.000  N
  N23      1.0000 0.00200  0.66380  0.40800  Biso   1.000  N
  N24      1.0000 0.99800  0.33620  0.90800  Biso   1.000  N
  N25      1.0000 0.54100  0.10730  0.89900  Biso   1.000  N
  N26      1.0000 0.45900  0.89270  0.39900  Biso   1.000  N
  N27      1.0000 0.95900  0.60730  0.39900  Biso   1.000  N
  N28      1.0000 0.04100  0.39270  0.89900  Biso   1.000  N
  C1       1.0000 0.52020  0.48980  0.22990  Biso   1.000  C
  C2       1.0000 0.47980  0.51020  0.72990  Biso   1.000  C
  C3       1.0000 0.97980  0.98980  0.72990  Biso   1.000  C
  C4       1.0000 0.02020  0.01020  0.22990  Biso   1.000  C
  H1       1.0000 0.62700  0.55160  0.20620  Biso   1.000  H
  H2       1.0000 0.37300  0.44840  0.70620  Biso   1.000  H
  H3       1.0000 0.87300  0.05160  0.70620  Biso   1.000  H
  H4       1.0000 0.12700  0.94840  0.20620  Biso   1.000  H
  C5       1.0000 0.23720  0.38930  0.22620  Biso   1.000  C
  C6       1.0000 0.76280  0.61070  0.72620  Biso   1.000  C
  C7       1.0000 0.26280  0.88930  0.72620  Biso   1.000  C
  C8       1.0000 0.73720  0.11070  0.22620  Biso   1.000  C
  H5       1.0000 0.10580  0.36660  0.19970  Biso   1.000  H
  H6       1.0000 0.89420  0.63340  0.69970  Biso   1.000  H
  H7       1.0000 0.39420  0.86660  0.69970  Biso   1.000  H
  H8       1.0000 0.60580  0.13340  0.19970  Biso   1.000  H
