data_image0
_cell_length_a       13.063
_cell_length_b       11.596
_cell_length_c       14.022
_cell_angle_alpha    90
_cell_angle_beta     104.96
_cell_angle_gamma    90

_symmetry_space_group_name_H-M    "P 1"
_symmetry_int_tables_number       1

loop_
  _symmetry_equiv_pos_as_xyz
  'x, y, z'

loop_
  _atom_site_label
  _atom_site_occupancy
  _atom_site_fract_x
  _atom_site_fract_y
  _atom_site_fract_z
  _atom_site_thermal_displace_type
  _atom_site_B_iso_or_equiv
  _atom_site_type_symbol
  Cu1      1.0000 0.74244  0.50000  0.10333  Biso   1.000  Cu
  Cu2      1.0000 0.25756  0.50000  0.89667  Biso   1.000  Cu
  Cu3      1.0000 0.24244  0.00000  0.10333  Biso   1.000  Cu
  Cu4      1.0000 0.75756  0.00000  0.89667  Biso   1.000  Cu
  Cu5      1.0000 0.76583  0.50000  0.29824  Biso   1.000  Cu
  Cu6      1.0000 0.23417  0.50000  0.70176  Biso   1.000  Cu
  Cu7      1.0000 0.26583  0.00000  0.29824  Biso   1.000  Cu
  Cu8      1.0000 0.73417  0.00000  0.70176  Biso   1.000  Cu
  N1       1.0000 0.74100  0.50000  0.94960  Biso   1.000  N
  N2       1.0000 0.25900  0.50000  0.05040  Biso   1.000  N
  N3       1.0000 0.24100  0.00000  0.94960  Biso   1.000  N
  N4       1.0000 0.75900  0.00000  0.05040  Biso   1.000  N
  C1       1.0000 0.78360  0.41420  0.91060  Biso   1.000  C
  C2       1.0000 0.21640  0.41420  0.08940  Biso   1.000  C
  C3       1.0000 0.28360  0.91420  0.91060  Biso   1.000  C
  C4       1.0000 0.71640  0.91420  0.08940  Biso   1.000  C
  C5       1.0000 0.21640  0.58580  0.08940  Biso   1.000  C
  C6       1.0000 0.78360  0.58580  0.91060  Biso   1.000  C
  C7       1.0000 0.71640  0.08580  0.08940  Biso   1.000  C
  C8       1.0000 0.28360  0.08580  0.91060  Biso   1.000  C
  C9       1.0000 0.78680  0.40920  0.81340  Biso   1.000  C
  C10      1.0000 0.21320  0.40920  0.18660  Biso   1.000  C
  C11      1.0000 0.28680  0.90920  0.81340  Biso   1.000  C
  C12      1.0000 0.71320  0.90920  0.18660  Biso   1.000  C
  C13      1.0000 0.21320  0.59080  0.18660  Biso   1.000  C
  C14      1.0000 0.78680  0.59080  0.81340  Biso   1.000  C
  C15      1.0000 0.71320  0.09080  0.18660  Biso   1.000  C
  C16      1.0000 0.28680  0.09080  0.81340  Biso   1.000  C
  C17      1.0000 0.74910  0.50000  0.75310  Biso   1.000  C
  C18      1.0000 0.25090  0.50000  0.24690  Biso   1.000  C
  C19      1.0000 0.24910  0.00000  0.75310  Biso   1.000  C
  C20      1.0000 0.75090  0.00000  0.24690  Biso   1.000  C
  C21      1.0000 0.69980  0.58570  0.79200  Biso   1.000  C
  C22      1.0000 0.30020  0.58570  0.20800  Biso   1.000  C
  C23      1.0000 0.19980  0.08570  0.79200  Biso   1.000  C
  C24      1.0000 0.80020  0.08570  0.20800  Biso   1.000  C
  C25      1.0000 0.30020  0.41430  0.20800  Biso   1.000  C
  C26      1.0000 0.69980  0.41430  0.79200  Biso   1.000  C
  C27      1.0000 0.80020  0.91430  0.20800  Biso   1.000  C
  C28      1.0000 0.19980  0.91430  0.79200  Biso   1.000  C
  C29      1.0000 0.69900  0.58180  0.89030  Biso   1.000  C
  C30      1.0000 0.30100  0.58180  0.10970  Biso   1.000  C
  C31      1.0000 0.19900  0.08180  0.89030  Biso   1.000  C
  C32      1.0000 0.80100  0.08180  0.10970  Biso   1.000  C
  C33      1.0000 0.30100  0.41820  0.10970  Biso   1.000  C
  C34      1.0000 0.69900  0.41820  0.89030  Biso   1.000  C
  C35      1.0000 0.80100  0.91820  0.10970  Biso   1.000  C
  C36      1.0000 0.19900  0.91820  0.89030  Biso   1.000  C
  N5       1.0000 0.76820  0.50000  0.45190  Biso   1.000  N
  N6       1.0000 0.23180  0.50000  0.54810  Biso   1.000  N
  N7       1.0000 0.26820  0.00000  0.45190  Biso   1.000  N
  N8       1.0000 0.73180  0.00000  0.54810  Biso   1.000  N
  C37      1.0000 0.81440  0.43030  0.51720  Biso   1.000  C
  C38      1.0000 0.18560  0.43030  0.48280  Biso   1.000  C
  C39      1.0000 0.31440  0.93030  0.51720  Biso   1.000  C
  C40      1.0000 0.68560  0.93030  0.48280  Biso   1.000  C
  C41      1.0000 0.18560  0.56970  0.48280  Biso   1.000  C
  C42      1.0000 0.81440  0.56970  0.51720  Biso   1.000  C
  C43      1.0000 0.68560  0.06970  0.48280  Biso   1.000  C
  C44      1.0000 0.31440  0.06970  0.51720  Biso   1.000  C
  C45      1.0000 0.81030  0.42540  0.61180  Biso   1.000  C
  C46      1.0000 0.18970  0.42540  0.38820  Biso   1.000  C
  C47      1.0000 0.31030  0.92540  0.61180  Biso   1.000  C
  C48      1.0000 0.68970  0.92540  0.38820  Biso   1.000  C
  C49      1.0000 0.18970  0.57460  0.38820  Biso   1.000  C
  C50      1.0000 0.81030  0.57460  0.61180  Biso   1.000  C
  C51      1.0000 0.68970  0.07460  0.38820  Biso   1.000  C
  C52      1.0000 0.31030  0.07460  0.61180  Biso   1.000  C
  C53      1.0000 0.75500  0.50000  0.64800  Biso   1.000  C
  C54      1.0000 0.24500  0.50000  0.35200  Biso   1.000  C
  C55      1.0000 0.25500  0.00000  0.64800  Biso   1.000  C
  C56      1.0000 0.74500  0.00000  0.35200  Biso   1.000  C
  C57      1.0000 0.72070  0.58200  0.48800  Biso   1.000  C
  C58      1.0000 0.27930  0.58200  0.51200  Biso   1.000  C
  C59      1.0000 0.22070  0.08200  0.48800  Biso   1.000  C
  C60      1.0000 0.77930  0.08200  0.51200  Biso   1.000  C
  C61      1.0000 0.27930  0.41800  0.51200  Biso   1.000  C
  C62      1.0000 0.72070  0.41800  0.48800  Biso   1.000  C
  C63      1.0000 0.77930  0.91800  0.51200  Biso   1.000  C
  C64      1.0000 0.22070  0.91800  0.48800  Biso   1.000  C
  C65      1.0000 0.70910  0.58360  0.58530  Biso   1.000  C
  C66      1.0000 0.29090  0.58360  0.41470  Biso   1.000  C
  C67      1.0000 0.20910  0.08360  0.58530  Biso   1.000  C
  C68      1.0000 0.79090  0.08360  0.41470  Biso   1.000  C
  C69      1.0000 0.29090  0.41640  0.41470  Biso   1.000  C
  C70      1.0000 0.70910  0.41640  0.58530  Biso   1.000  C
  C71      1.0000 0.79090  0.91640  0.41470  Biso   1.000  C
  C72      1.0000 0.20910  0.91640  0.58530  Biso   1.000  C
  O1       1.0000 0.65150  0.36930  0.10100  Biso   1.000  O
  O2       1.0000 0.34850  0.36930  0.89900  Biso   1.000  O
  O3       1.0000 0.15150  0.86930  0.10100  Biso   1.000  O
  O4       1.0000 0.84850  0.86930  0.89900  Biso   1.000  O
  O5       1.0000 0.34850  0.63070  0.89900  Biso   1.000  O
  O6       1.0000 0.65150  0.63070  0.10100  Biso   1.000  O
  O7       1.0000 0.84850  0.13070  0.89900  Biso   1.000  O
  O8       1.0000 0.15150  0.13070  0.10100  Biso   1.000  O
  O9       1.0000 0.67680  0.36000  0.26410  Biso   1.000  O
  O10      1.0000 0.32320  0.36000  0.73590  Biso   1.000  O
  O11      1.0000 0.17680  0.86000  0.26410  Biso   1.000  O
  O12      1.0000 0.82320  0.86000  0.73590  Biso   1.000  O
  O13      1.0000 0.32320  0.64000  0.73590  Biso   1.000  O
  O14      1.0000 0.67680  0.64000  0.26410  Biso   1.000  O
  O15      1.0000 0.82320  0.14000  0.73590  Biso   1.000  O
  O16      1.0000 0.17680  0.14000  0.26410  Biso   1.000  O
  O17      1.0000 0.36800  0.10070  0.14090  Biso   1.000  O
  O18      1.0000 0.63200  0.10070  0.85910  Biso   1.000  O
  O19      1.0000 0.86800  0.60070  0.14090  Biso   1.000  O
  O20      1.0000 0.13200  0.60070  0.85910  Biso   1.000  O
  O21      1.0000 0.63200  0.89930  0.85910  Biso   1.000  O
  O22      1.0000 0.36800  0.89930  0.14090  Biso   1.000  O
  O23      1.0000 0.13200  0.39930  0.85910  Biso   1.000  O
  O24      1.0000 0.86800  0.39930  0.14090  Biso   1.000  O
  O25      1.0000 0.39200  0.09780  0.30650  Biso   1.000  O
  O26      1.0000 0.60800  0.09780  0.69350  Biso   1.000  O
  O27      1.0000 0.89200  0.59780  0.30650  Biso   1.000  O
  O28      1.0000 0.10800  0.59780  0.69350  Biso   1.000  O
  O29      1.0000 0.60800  0.90220  0.69350  Biso   1.000  O
  O30      1.0000 0.39200  0.90220  0.30650  Biso   1.000  O
  O31      1.0000 0.10800  0.40220  0.69350  Biso   1.000  O
  O32      1.0000 0.89200  0.40220  0.30650  Biso   1.000  O
  C73      1.0000 0.63060  0.32930  0.17740  Biso   1.000  C
  C74      1.0000 0.36940  0.32930  0.82260  Biso   1.000  C
  C75      1.0000 0.13060  0.82930  0.17740  Biso   1.000  C
  C76      1.0000 0.86940  0.82930  0.82260  Biso   1.000  C
  C77      1.0000 0.36940  0.67070  0.82260  Biso   1.000  C
  C78      1.0000 0.63060  0.67070  0.17740  Biso   1.000  C
  C79      1.0000 0.86940  0.17070  0.82260  Biso   1.000  C
  C80      1.0000 0.13060  0.17070  0.17740  Biso   1.000  C
  C81      1.0000 0.54570  0.24140  0.16670  Biso   1.000  C
  C82      1.0000 0.45430  0.24140  0.83330  Biso   1.000  C
  C83      1.0000 0.04570  0.74140  0.16670  Biso   1.000  C
  C84      1.0000 0.95430  0.74140  0.83330  Biso   1.000  C
  C85      1.0000 0.45430  0.75860  0.83330  Biso   1.000  C
  C86      1.0000 0.54570  0.75860  0.16670  Biso   1.000  C
  C87      1.0000 0.95430  0.25860  0.83330  Biso   1.000  C
  C88      1.0000 0.04570  0.25860  0.16670  Biso   1.000  C
  C89      1.0000 0.51100  0.20540  0.24040  Biso   1.000  C
  C90      1.0000 0.48900  0.20540  0.75960  Biso   1.000  C
  C91      1.0000 0.01100  0.70540  0.24040  Biso   1.000  C
  C92      1.0000 0.98900  0.70540  0.75960  Biso   1.000  C
  C93      1.0000 0.48900  0.79460  0.75960  Biso   1.000  C
  C94      1.0000 0.51100  0.79460  0.24040  Biso   1.000  C
  C95      1.0000 0.98900  0.29460  0.75960  Biso   1.000  C
  C96      1.0000 0.01100  0.29460  0.24040  Biso   1.000  C
  C97      1.0000 0.41650  0.12780  0.22730  Biso   1.000  C
  C98      1.0000 0.58350  0.12780  0.77270  Biso   1.000  C
  C99      1.0000 0.91650  0.62780  0.22730  Biso   1.000  C
  C100     1.0000 0.08350  0.62780  0.77270  Biso   1.000  C
  C101     1.0000 0.58350  0.87220  0.77270  Biso   1.000  C
  C102     1.0000 0.41650  0.87220  0.22730  Biso   1.000  C
  C103     1.0000 0.08350  0.37220  0.77270  Biso   1.000  C
  C104     1.0000 0.91650  0.37220  0.22730  Biso   1.000  C
  O33      1.0000 0.61990  0.60510  0.09930  Biso   1.000  O
  O34      1.0000 0.38010  0.60510  0.90070  Biso   1.000  O
  O35      1.0000 0.11990  0.10510  0.09930  Biso   1.000  O
  O36      1.0000 0.88010  0.10510  0.90070  Biso   1.000  O
  O37      1.0000 0.38010  0.39490  0.90070  Biso   1.000  O
  O38      1.0000 0.61990  0.39490  0.09930  Biso   1.000  O
  O39      1.0000 0.88010  0.89490  0.90070  Biso   1.000  O
  O40      1.0000 0.11990  0.89490  0.09930  Biso   1.000  O
  O41      1.0000 0.63770  0.59510  0.26150  Biso   1.000  O
  O42      1.0000 0.36230  0.59510  0.73850  Biso   1.000  O
  O43      1.0000 0.13770  0.09510  0.26150  Biso   1.000  O
  O44      1.0000 0.86230  0.09510  0.73850  Biso   1.000  O
  O45      1.0000 0.36230  0.40490  0.73850  Biso   1.000  O
  O46      1.0000 0.63770  0.40490  0.26150  Biso   1.000  O
  O47      1.0000 0.86230  0.90490  0.73850  Biso   1.000  O
  O48      1.0000 0.13770  0.90490  0.26150  Biso   1.000  O
  O49      1.0000 0.33660  0.86560  0.13840  Biso   1.000  O
  O50      1.0000 0.66340  0.86560  0.86160  Biso   1.000  O
  O51      1.0000 0.83660  0.36560  0.13840  Biso   1.000  O
  O52      1.0000 0.16340  0.36560  0.86160  Biso   1.000  O
  O53      1.0000 0.66340  0.13440  0.86160  Biso   1.000  O
  O54      1.0000 0.33660  0.13440  0.13840  Biso   1.000  O
  O55      1.0000 0.16340  0.63440  0.86160  Biso   1.000  O
  O56      1.0000 0.83660  0.63440  0.13840  Biso   1.000  O
  O57      1.0000 0.35510  0.86410  0.29980  Biso   1.000  O
  O58      1.0000 0.64490  0.86410  0.70020  Biso   1.000  O
  O59      1.0000 0.85510  0.36410  0.29980  Biso   1.000  O
  O60      1.0000 0.14490  0.36410  0.70020  Biso   1.000  O
  O61      1.0000 0.64490  0.13590  0.70020  Biso   1.000  O
  O62      1.0000 0.35510  0.13590  0.29980  Biso   1.000  O
  O63      1.0000 0.14490  0.63590  0.70020  Biso   1.000  O
  O64      1.0000 0.85510  0.63590  0.29980  Biso   1.000  O
  C105     1.0000 0.59240  0.62710  0.17560  Biso   1.000  C
  C106     1.0000 0.40760  0.62710  0.82440  Biso   1.000  C
  C107     1.0000 0.09240  0.12710  0.17560  Biso   1.000  C
  C108     1.0000 0.90760  0.12710  0.82440  Biso   1.000  C
  C109     1.0000 0.40760  0.37290  0.82440  Biso   1.000  C
  C110     1.0000 0.59240  0.37290  0.17560  Biso   1.000  C
  C111     1.0000 0.90760  0.87290  0.82440  Biso   1.000  C
  C112     1.0000 0.09240  0.87290  0.17560  Biso   1.000  C
  C113     1.0000 0.49700  0.70290  0.16110  Biso   1.000  C
  C114     1.0000 0.50300  0.70290  0.83890  Biso   1.000  C
  C115     1.0000 0.99700  0.20290  0.16110  Biso   1.000  C
  C116     1.0000 0.00300  0.20290  0.83890  Biso   1.000  C
  C117     1.0000 0.50300  0.29710  0.83890  Biso   1.000  C
  C118     1.0000 0.49700  0.29710  0.16110  Biso   1.000  C
  C119     1.0000 0.00300  0.79710  0.83890  Biso   1.000  C
  C120     1.0000 0.99700  0.79710  0.16110  Biso   1.000  C
  C121     1.0000 0.46370  0.74050  0.23620  Biso   1.000  C
  C122     1.0000 0.53630  0.74050  0.76380  Biso   1.000  C
  C123     1.0000 0.96370  0.24050  0.23620  Biso   1.000  C
  C124     1.0000 0.03630  0.24050  0.76380  Biso   1.000  C
  C125     1.0000 0.53630  0.25950  0.76380  Biso   1.000  C
  C126     1.0000 0.46370  0.25950  0.23620  Biso   1.000  C
  C127     1.0000 0.03630  0.75950  0.76380  Biso   1.000  C
  C128     1.0000 0.96370  0.75950  0.23620  Biso   1.000  C
  C129     1.0000 0.37790  0.82780  0.22360  Biso   1.000  C
  C130     1.0000 0.62210  0.82780  0.77640  Biso   1.000  C
  C131     1.0000 0.87790  0.32780  0.22360  Biso   1.000  C
  C132     1.0000 0.12210  0.32780  0.77640  Biso   1.000  C
  C133     1.0000 0.62210  0.17220  0.77640  Biso   1.000  C
  C134     1.0000 0.37790  0.17220  0.22360  Biso   1.000  C
  C135     1.0000 0.12210  0.67220  0.77640  Biso   1.000  C
  C136     1.0000 0.87790  0.67220  0.22360  Biso   1.000  C
  O65      1.0000 0.00000  0.29180  0.50000  Biso   1.000  O
  O66      1.0000 0.50000  0.79180  0.50000  Biso   1.000  O
  O67      1.0000 0.00000  0.70820  0.50000  Biso   1.000  O
  O68      1.0000 0.50000  0.20820  0.50000  Biso   1.000  O
