data_image0
_cell_length_a       13.2869
_cell_length_b       13.5884
_cell_length_c       19.2207
_cell_angle_alpha    90
_cell_angle_beta     103.692
_cell_angle_gamma    90

_symmetry_space_group_name_H-M    "P 1"
_symmetry_int_tables_number       1

loop_
  _symmetry_equiv_pos_as_xyz
  'x, y, z'

loop_
  _atom_site_label
  _atom_site_occupancy
  _atom_site_fract_x
  _atom_site_fract_y
  _atom_site_fract_z
  _atom_site_thermal_displace_type
  _atom_site_B_iso_or_equiv
  _atom_site_type_symbol
  Cu1      1.0000 0.49500  0.48213  0.18668  Biso   1.000  Cu
  Cu2      1.0000 0.00500  0.98213  0.31332  Biso   1.000  Cu
  Cu3      1.0000 0.50500  0.51787  0.81332  Biso   1.000  Cu
  Cu4      1.0000 0.99500  0.01787  0.68668  Biso   1.000  Cu
  Cu5      1.0000 0.50411  0.56922  0.31187  Biso   1.000  Cu
  Cu6      1.0000 0.99589  0.06922  0.18813  Biso   1.000  Cu
  Cu7      1.0000 0.49589  0.43078  0.68813  Biso   1.000  Cu
  Cu8      1.0000 0.00411  0.93078  0.81187  Biso   1.000  Cu
  F1       1.0000 0.57621  0.25999  0.39423  Biso   1.000  F
  F2       1.0000 0.92379  0.75999  0.10577  Biso   1.000  F
  F3       1.0000 0.42379  0.74001  0.60577  Biso   1.000  F
  F4       1.0000 0.07621  0.24001  0.89423  Biso   1.000  F
  F5       1.0000 0.53517  0.08200  0.44478  Biso   1.000  F
  F6       1.0000 0.96483  0.58200  0.05522  Biso   1.000  F
  F7       1.0000 0.46483  0.91800  0.55522  Biso   1.000  F
  F8       1.0000 0.03517  0.41800  0.94478  Biso   1.000  F
  F9       1.0000 0.34542  0.00431  0.40240  Biso   1.000  F
  F10      1.0000 0.15458  0.50431  0.09760  Biso   1.000  F
  F11      1.0000 0.65458  0.99569  0.59760  Biso   1.000  F
  F12      1.0000 0.84542  0.49569  0.90240  Biso   1.000  F
  F13      1.0000 0.23440  0.28529  0.25958  Biso   1.000  F
  F14      1.0000 0.26560  0.78529  0.24042  Biso   1.000  F
  F15      1.0000 0.76560  0.71471  0.74042  Biso   1.000  F
  F16      1.0000 0.73440  0.21471  0.75958  Biso   1.000  F
  F17      1.0000 0.07550  0.29175  0.39305  Biso   1.000  F
  F18      1.0000 0.42450  0.79175  0.10695  Biso   1.000  F
  F19      1.0000 0.92450  0.70825  0.60695  Biso   1.000  F
  F20      1.0000 0.57550  0.20825  0.89305  Biso   1.000  F
  F21      1.0000 0.03412  0.46989  0.44113  Biso   1.000  F
  F22      1.0000 0.46588  0.96989  0.05887  Biso   1.000  F
  F23      1.0000 0.96588  0.53011  0.55887  Biso   1.000  F
  F24      1.0000 0.53412  0.03011  0.94113  Biso   1.000  F
  F25      1.0000 0.84473  0.54822  0.39772  Biso   1.000  F
  F26      1.0000 0.65527  0.04822  0.10228  Biso   1.000  F
  F27      1.0000 0.15527  0.45178  0.60228  Biso   1.000  F
  F28      1.0000 0.34473  0.95178  0.89772  Biso   1.000  F
  F29      1.0000 0.73438  0.26362  0.25848  Biso   1.000  F
  F30      1.0000 0.76562  0.76362  0.24152  Biso   1.000  F
  F31      1.0000 0.26562  0.73638  0.74152  Biso   1.000  F
  F32      1.0000 0.23438  0.23638  0.75848  Biso   1.000  F
  O1       1.0000 0.44910  0.44322  0.33955  Biso   1.000  O
  O2       1.0000 0.05090  0.94322  0.16045  Biso   1.000  O
  O3       1.0000 0.55090  0.55678  0.66045  Biso   1.000  O
  O4       1.0000 0.94910  0.05678  0.83955  Biso   1.000  O
  O5       1.0000 0.43570  0.37270  0.23205  Biso   1.000  O
  O6       1.0000 0.06430  0.87270  0.26795  Biso   1.000  O
  O7       1.0000 0.56430  0.62730  0.76795  Biso   1.000  O
  O8       1.0000 0.93570  0.12730  0.73205  Biso   1.000  O
  O9       1.0000 0.64197  0.50920  0.33955  Biso   1.000  O
  O10      1.0000 0.85803  0.00920  0.16045  Biso   1.000  O
  O11      1.0000 0.35803  0.49080  0.66045  Biso   1.000  O
  O12      1.0000 0.14197  0.99080  0.83955  Biso   1.000  O
  O13      1.0000 0.63291  0.43500  0.23409  Biso   1.000  O
  O14      1.0000 0.86709  0.93500  0.26591  Biso   1.000  O
  O15      1.0000 0.36709  0.56500  0.76591  Biso   1.000  O
  O16      1.0000 0.13291  0.06500  0.73409  Biso   1.000  O
  O17      1.0000 0.94360  0.10560  0.33806  Biso   1.000  O
  O18      1.0000 0.55640  0.60560  0.16194  Biso   1.000  O
  O19      1.0000 0.05640  0.89440  0.66194  Biso   1.000  O
  O20      1.0000 0.44360  0.39440  0.83806  Biso   1.000  O
  O21      1.0000 0.94210  0.18050  0.23338  Biso   1.000  O
  O22      1.0000 0.55790  0.68050  0.26662  Biso   1.000  O
  O23      1.0000 0.05790  0.81950  0.76662  Biso   1.000  O
  O24      1.0000 0.44210  0.31950  0.73338  Biso   1.000  O
  O25      1.0000 0.13721  0.10980  0.23613  Biso   1.000  O
  O26      1.0000 0.36279  0.60980  0.26387  Biso   1.000  O
  O27      1.0000 0.86279  0.89020  0.76387  Biso   1.000  O
  O28      1.0000 0.63721  0.39020  0.73613  Biso   1.000  O
  O29      1.0000 0.14139  0.04600  0.34448  Biso   1.000  O
  O30      1.0000 0.35861  0.54600  0.15552  Biso   1.000  O
  O31      1.0000 0.85861  0.95400  0.65552  Biso   1.000  O
  O32      1.0000 0.64139  0.45400  0.84448  Biso   1.000  O
  O33      1.0000 0.46680  0.41600  0.08280  Biso   1.000  O
  O34      1.0000 0.03320  0.91600  0.41720  Biso   1.000  O
  O35      1.0000 0.53320  0.58400  0.91720  Biso   1.000  O
  O36      1.0000 0.96680  0.08400  0.58280  Biso   1.000  O
  H1       1.0000 0.51920  0.41640  0.05900  Biso   1.000  H
  H2       1.0000 0.98080  0.91640  0.44100  Biso   1.000  H
  H3       1.0000 0.48080  0.58360  0.94100  Biso   1.000  H
  H4       1.0000 0.01920  0.08360  0.55900  Biso   1.000  H
  O37      1.0000 0.49160  0.63630  0.40787  Biso   1.000  O
  O38      1.0000 0.00840  0.13630  0.09213  Biso   1.000  O
  O39      1.0000 0.50840  0.36370  0.59213  Biso   1.000  O
  O40      1.0000 0.99160  0.86370  0.90787  Biso   1.000  O
  H5       1.0000 0.53520  0.61950  0.45440  Biso   1.000  H
  H6       1.0000 0.96480  0.11950  0.04560  Biso   1.000  H
  H7       1.0000 0.46480  0.38050  0.54560  Biso   1.000  H
  H8       1.0000 0.03520  0.88050  0.95440  Biso   1.000  H
  C1       1.0000 0.67680  0.45500  0.29840  Biso   1.000  C
  C2       1.0000 0.82320  0.95500  0.20160  Biso   1.000  C
  C3       1.0000 0.32320  0.54500  0.70160  Biso   1.000  C
  C4       1.0000 0.17680  0.04500  0.79840  Biso   1.000  C
  C5       1.0000 0.78180  0.40870  0.32699  Biso   1.000  C
  C6       1.0000 0.71820  0.90870  0.17301  Biso   1.000  C
  C7       1.0000 0.21820  0.59130  0.67301  Biso   1.000  C
  C8       1.0000 0.28180  0.09130  0.82699  Biso   1.000  C
  C9       1.0000 0.85990  0.45790  0.37477  Biso   1.000  C
  C10      1.0000 0.64010  0.95790  0.12523  Biso   1.000  C
  C11      1.0000 0.14010  0.54210  0.62523  Biso   1.000  C
  C12      1.0000 0.35990  0.04210  0.87477  Biso   1.000  C
  C13      1.0000 0.95830  0.41880  0.39764  Biso   1.000  C
  C14      1.0000 0.54170  0.91880  0.10236  Biso   1.000  C
  C15      1.0000 0.04170  0.58120  0.60236  Biso   1.000  C
  C16      1.0000 0.45830  0.08120  0.89764  Biso   1.000  C
  C17      1.0000 0.97890  0.32800  0.37303  Biso   1.000  C
  C18      1.0000 0.52110  0.82800  0.12697  Biso   1.000  C
  C19      1.0000 0.02110  0.67200  0.62697  Biso   1.000  C
  C20      1.0000 0.47890  0.17200  0.87303  Biso   1.000  C
  C21      1.0000 0.90370  0.27440  0.32553  Biso   1.000  C
  C22      1.0000 0.59630  0.77440  0.17447  Biso   1.000  C
  C23      1.0000 0.09630  0.72560  0.67447  Biso   1.000  C
  C24      1.0000 0.40370  0.22560  0.82553  Biso   1.000  C
  C25      1.0000 0.80680  0.31660  0.30369  Biso   1.000  C
  C26      1.0000 0.69320  0.81660  0.19631  Biso   1.000  C
  C27      1.0000 0.19320  0.68340  0.69631  Biso   1.000  C
  C28      1.0000 0.30680  0.18340  0.80369  Biso   1.000  C
  C29      1.0000 0.43090  0.37200  0.29615  Biso   1.000  C
  C30      1.0000 0.06910  0.87200  0.20385  Biso   1.000  C
  C31      1.0000 0.56910  0.62800  0.70385  Biso   1.000  C
  C32      1.0000 0.93090  0.12800  0.79615  Biso   1.000  C
  C33      1.0000 0.40470  0.27620  0.32601  Biso   1.000  C
  C34      1.0000 0.09530  0.77620  0.17399  Biso   1.000  C
  C35      1.0000 0.59530  0.72380  0.67399  Biso   1.000  C
  C36      1.0000 0.90470  0.22380  0.82601  Biso   1.000  C
  C37      1.0000 0.47950  0.22350  0.37405  Biso   1.000  C
  C38      1.0000 0.02050  0.72350  0.12595  Biso   1.000  C
  C39      1.0000 0.52050  0.77650  0.62595  Biso   1.000  C
  C40      1.0000 0.97950  0.27650  0.87405  Biso   1.000  C
  C41      1.0000 0.45940  0.13320  0.39994  Biso   1.000  C
  C42      1.0000 0.04060  0.63320  0.10006  Biso   1.000  C
  C43      1.0000 0.54060  0.86680  0.60006  Biso   1.000  C
  C44      1.0000 0.95940  0.36680  0.89994  Biso   1.000  C
  C45      1.0000 0.36150  0.09340  0.37803  Biso   1.000  C
  C46      1.0000 0.13850  0.59340  0.12197  Biso   1.000  C
  C47      1.0000 0.63850  0.90660  0.62197  Biso   1.000  C
  C48      1.0000 0.86150  0.40660  0.87803  Biso   1.000  C
  C49      1.0000 0.28220  0.14200  0.32972  Biso   1.000  C
  C50      1.0000 0.21780  0.64200  0.17028  Biso   1.000  C
  C51      1.0000 0.71780  0.85800  0.67028  Biso   1.000  C
  C52      1.0000 0.78220  0.35800  0.82972  Biso   1.000  C
  C53      1.0000 0.30780  0.23360  0.30537  Biso   1.000  C
  C54      1.0000 0.19220  0.73360  0.19463  Biso   1.000  C
  C55      1.0000 0.69220  0.76640  0.69463  Biso   1.000  C
  C56      1.0000 0.80780  0.26640  0.80537  Biso   1.000  C
  C57      1.0000 0.17840  0.09530  0.30140  Biso   1.000  C
  C58      1.0000 0.32160  0.59530  0.19860  Biso   1.000  C
  C59      1.0000 0.82160  0.90470  0.69860  Biso   1.000  C
  C60      1.0000 0.67840  0.40470  0.80140  Biso   1.000  C
  C61      1.0000 0.93140  0.17770  0.29659  Biso   1.000  C
  C62      1.0000 0.56860  0.67770  0.20341  Biso   1.000  C
  C63      1.0000 0.06860  0.82230  0.70341  Biso   1.000  C
  C64      1.0000 0.43140  0.32230  0.79659  Biso   1.000  C
  C65      1.0000 0.45550  0.73540  0.41320  Biso   1.000  C
  C66      1.0000 0.04450  0.23540  0.08680  Biso   1.000  C
  C67      1.0000 0.54450  0.26460  0.58680  Biso   1.000  C
  C68      1.0000 0.95550  0.76460  0.91320  Biso   1.000  C
  H9       1.0000 0.40610  0.75380  0.36790  Biso   1.000  H
  H10      1.0000 0.09390  0.25380  0.13210  Biso   1.000  H
  H11      1.0000 0.59390  0.24620  0.63210  Biso   1.000  H
  H12      1.0000 0.90610  0.74620  0.86790  Biso   1.000  H
  H13      1.0000 0.41890  0.73940  0.45240  Biso   1.000  H
  H14      1.0000 0.08110  0.23940  0.04760  Biso   1.000  H
  H15      1.0000 0.58110  0.26060  0.54760  Biso   1.000  H
  H16      1.0000 0.91890  0.76060  0.95240  Biso   1.000  H
  C69      1.0000 0.54000  0.80110  0.42680  Biso   1.000  C
  C70      1.0000 0.96000  0.30110  0.07320  Biso   1.000  C
  C71      1.0000 0.46000  0.19890  0.57320  Biso   1.000  C
  C72      1.0000 0.04000  0.69890  0.92680  Biso   1.000  C
  H17      1.0000 0.58780  0.78380  0.47230  Biso   1.000  H
  H18      1.0000 0.91220  0.28380  0.02770  Biso   1.000  H
  H19      1.0000 0.41220  0.21620  0.52770  Biso   1.000  H
  H20      1.0000 0.08780  0.71620  0.97230  Biso   1.000  H
  H21      1.0000 0.51470  0.86840  0.42970  Biso   1.000  H
  H22      1.0000 0.98530  0.36840  0.07030  Biso   1.000  H
  H23      1.0000 0.48530  0.13160  0.57030  Biso   1.000  H
  H24      1.0000 0.01470  0.63160  0.92970  Biso   1.000  H
  H25      1.0000 0.57620  0.79690  0.38800  Biso   1.000  H
  H26      1.0000 0.92380  0.29690  0.11200  Biso   1.000  H
  H27      1.0000 0.42380  0.20310  0.61200  Biso   1.000  H
  H28      1.0000 0.07620  0.70310  0.88800  Biso   1.000  H
  C73      1.0000 0.39550  0.33270  0.06360  Biso   1.000  C
  C74      1.0000 0.10450  0.83270  0.43640  Biso   1.000  C
  C75      1.0000 0.60450  0.66730  0.93640  Biso   1.000  C
  C76      1.0000 0.89550  0.16730  0.56360  Biso   1.000  C
  H29      1.0000 0.35240  0.32730  0.09890  Biso   1.000  H
  H30      1.0000 0.14760  0.82730  0.40110  Biso   1.000  H
  H31      1.0000 0.64760  0.67270  0.90110  Biso   1.000  H
  H32      1.0000 0.85240  0.17270  0.59890  Biso   1.000  H
  H33      1.0000 0.43610  0.27120  0.06570  Biso   1.000  H
  H34      1.0000 0.06390  0.77120  0.43430  Biso   1.000  H
  H35      1.0000 0.56390  0.72880  0.93430  Biso   1.000  H
  H36      1.0000 0.93610  0.22880  0.56570  Biso   1.000  H
  C77      1.0000 0.32600  0.34380  0.98960  Biso   1.000  C
  C78      1.0000 0.17400  0.84380  0.51040  Biso   1.000  C
  C79      1.0000 0.67400  0.65620  0.01040  Biso   1.000  C
  C80      1.0000 0.82600  0.15620  0.48960  Biso   1.000  C
  H37      1.0000 0.27830  0.39890  0.98930  Biso   1.000  H
  H38      1.0000 0.22170  0.89890  0.51070  Biso   1.000  H
  H39      1.0000 0.72170  0.60110  0.01070  Biso   1.000  H
  H40      1.0000 0.77830  0.10110  0.48930  Biso   1.000  H
  H41      1.0000 0.28620  0.28310  0.97640  Biso   1.000  H
  H42      1.0000 0.21380  0.78310  0.52360  Biso   1.000  H
  H43      1.0000 0.71380  0.71690  0.02360  Biso   1.000  H
  H44      1.0000 0.78620  0.21690  0.47640  Biso   1.000  H
  H45      1.0000 0.36820  0.35650  0.95520  Biso   1.000  H
  H46      1.0000 0.13180  0.85650  0.54480  Biso   1.000  H
  H47      1.0000 0.63180  0.64350  0.04480  Biso   1.000  H
  H48      1.0000 0.86820  0.14350  0.45520  Biso   1.000  H
  O41      1.0000 0.61140  0.58870  0.53137  Biso   1.000  O
  O42      1.0000 0.88860  0.08870  0.96863  Biso   1.000  O
  O43      1.0000 0.38860  0.41130  0.46863  Biso   1.000  O
  O44      1.0000 0.11140  0.91130  0.03137  Biso   1.000  O
  H49      1.0000 0.59440  0.56850  0.56830  Biso   1.000  H
  H50      1.0000 0.90560  0.06850  0.93170  Biso   1.000  H
  H51      1.0000 0.40560  0.43150  0.43170  Biso   1.000  H
  H52      1.0000 0.09440  0.93150  0.06830  Biso   1.000  H
  O45      1.0000 0.39850  0.59770  0.99733  Biso   1.000  O
  O46      1.0000 0.10150  0.09770  0.50267  Biso   1.000  O
  O47      1.0000 0.60150  0.40230  0.00267  Biso   1.000  O
  O48      1.0000 0.89850  0.90230  0.49733  Biso   1.000  O
  H53      1.0000 0.39730  0.55630  0.02960  Biso   1.000  H
  H54      1.0000 0.10270  0.05630  0.47040  Biso   1.000  H
  H55      1.0000 0.60270  0.44370  0.97040  Biso   1.000  H
  H56      1.0000 0.89730  0.94370  0.52960  Biso   1.000  H
  C81      1.0000 0.71380  0.55650  0.53260  Biso   1.000  C
  C82      1.0000 0.78620  0.05650  0.96740  Biso   1.000  C
  C83      1.0000 0.28620  0.44350  0.46740  Biso   1.000  C
  C84      1.0000 0.21380  0.94350  0.03260  Biso   1.000  C
  H57      1.0000 0.76110  0.57850  0.57770  Biso   1.000  H
  H58      1.0000 0.73890  0.07850  0.92230  Biso   1.000  H
  H59      1.0000 0.23890  0.42150  0.42230  Biso   1.000  H
  H60      1.0000 0.26110  0.92150  0.07770  Biso   1.000  H
  H61      1.0000 0.73680  0.58740  0.49230  Biso   1.000  H
  H62      1.0000 0.76320  0.08740  0.00770  Biso   1.000  H
  H63      1.0000 0.26320  0.41260  0.50770  Biso   1.000  H
  H64      1.0000 0.23680  0.91260  0.99230  Biso   1.000  H
  C85      1.0000 0.72080  0.44720  0.52680  Biso   1.000  C
  C86      1.0000 0.77920  0.94720  0.97320  Biso   1.000  C
  C87      1.0000 0.27920  0.55280  0.47320  Biso   1.000  C
  C88      1.0000 0.22080  0.05280  0.02680  Biso   1.000  C
  H65      1.0000 0.69940  0.41620  0.56710  Biso   1.000  H
  H66      1.0000 0.80060  0.91620  0.93290  Biso   1.000  H
  H67      1.0000 0.30060  0.58380  0.43290  Biso   1.000  H
  H68      1.0000 0.19940  0.08380  0.06710  Biso   1.000  H
  H69      1.0000 0.79240  0.42850  0.52790  Biso   1.000  H
  H70      1.0000 0.70760  0.92850  0.97210  Biso   1.000  H
  H71      1.0000 0.20760  0.57150  0.47210  Biso   1.000  H
  H72      1.0000 0.29240  0.07150  0.02790  Biso   1.000  H
  H73      1.0000 0.67520  0.42510  0.48170  Biso   1.000  H
  H74      1.0000 0.82480  0.92510  0.01830  Biso   1.000  H
  H75      1.0000 0.32480  0.57490  0.51830  Biso   1.000  H
  H76      1.0000 0.17520  0.07490  0.98170  Biso   1.000  H
  C89      1.0000 0.29990  0.64460  0.97630  Biso   1.000  C
  C90      1.0000 0.20010  0.14460  0.52370  Biso   1.000  C
  C91      1.0000 0.70010  0.35540  0.02370  Biso   1.000  C
  C92      1.0000 0.79990  0.85540  0.47630  Biso   1.000  C
  H77      1.0000 0.28280  0.67770  0.01790  Biso   1.000  H
  H78      1.0000 0.21720  0.17770  0.48210  Biso   1.000  H
  H79      1.0000 0.71720  0.32230  0.98210  Biso   1.000  H
  H80      1.0000 0.78280  0.82230  0.51790  Biso   1.000  H
  H81      1.0000 0.24550  0.59530  0.95730  Biso   1.000  H
  H82      1.0000 0.25450  0.09530  0.54270  Biso   1.000  H
  H83      1.0000 0.75450  0.40470  0.04270  Biso   1.000  H
  H84      1.0000 0.74550  0.90470  0.45730  Biso   1.000  H
  C93      1.0000 0.30530  0.71840  0.91970  Biso   1.000  C
  C94      1.0000 0.19470  0.21840  0.58030  Biso   1.000  C
  C95      1.0000 0.69470  0.28160  0.08030  Biso   1.000  C
  C96      1.0000 0.80530  0.78160  0.41970  Biso   1.000  C
  H85      1.0000 0.36110  0.76540  0.93850  Biso   1.000  H
  H86      1.0000 0.13890  0.26540  0.56150  Biso   1.000  H
  H87      1.0000 0.63890  0.23460  0.06150  Biso   1.000  H
  H88      1.0000 0.86110  0.73460  0.43850  Biso   1.000  H
  H89      1.0000 0.23920  0.75350  0.90570  Biso   1.000  H
  H90      1.0000 0.26080  0.25350  0.59430  Biso   1.000  H
  H91      1.0000 0.76080  0.24650  0.09430  Biso   1.000  H
  H92      1.0000 0.73920  0.74650  0.40570  Biso   1.000  H
  H93      1.0000 0.31930  0.68460  0.87790  Biso   1.000  H
  H94      1.0000 0.18070  0.18460  0.62210  Biso   1.000  H
  H95      1.0000 0.68070  0.31540  0.12210  Biso   1.000  H
  H96      1.0000 0.81930  0.81540  0.37790  Biso   1.000  H
  C97      1.0000 0.60120  0.06750  0.27150  Biso   1.000  C
  C98      1.0000 0.89880  0.56750  0.22850  Biso   1.000  C
  C99      1.0000 0.39880  0.93250  0.72850  Biso   1.000  C
  C100     1.0000 0.10120  0.43250  0.77150  Biso   1.000  C
  H97      1.0000 0.67060  0.08890  0.28910  Biso   1.000  H
  H98      1.0000 0.82940  0.58890  0.21090  Biso   1.000  H
  H99      1.0000 0.32940  0.91110  0.71090  Biso   1.000  H
  H100     1.0000 0.17060  0.41110  0.78910  Biso   1.000  H
  C101     1.0000 0.53060  0.12710  0.22600  Biso   1.000  C
  C102     1.0000 0.96940  0.62710  0.27400  Biso   1.000  C
  C103     1.0000 0.46940  0.87290  0.77400  Biso   1.000  C
  C104     1.0000 0.03060  0.37290  0.72600  Biso   1.000  C
  H101     1.0000 0.55170  0.18950  0.21220  Biso   1.000  H
  H102     1.0000 0.94830  0.68950  0.28780  Biso   1.000  H
  H103     1.0000 0.44830  0.81050  0.78780  Biso   1.000  H
  H104     1.0000 0.05170  0.31050  0.71220  Biso   1.000  H
  C105     1.0000 0.43000  0.09660  0.20090  Biso   1.000  C
  C106     1.0000 0.07000  0.59660  0.29910  Biso   1.000  C
  C107     1.0000 0.57000  0.90340  0.79910  Biso   1.000  C
  C108     1.0000 0.93000  0.40340  0.70090  Biso   1.000  C
  H105     1.0000 0.38160  0.13790  0.17000  Biso   1.000  H
  H106     1.0000 0.11840  0.63790  0.33000  Biso   1.000  H
  H107     1.0000 0.61840  0.86210  0.83000  Biso   1.000  H
  H108     1.0000 0.88160  0.36210  0.67000  Biso   1.000  H
  C109     1.0000 0.39870  0.00490  0.22070  Biso   1.000  C
  C110     1.0000 0.10130  0.50490  0.27930  Biso   1.000  C
  C111     1.0000 0.60130  0.99510  0.77930  Biso   1.000  C
  C112     1.0000 0.89870  0.49510  0.72070  Biso   1.000  C
  H109     1.0000 0.32930  0.98360  0.20310  Biso   1.000  H
  H110     1.0000 0.17070  0.48360  0.29690  Biso   1.000  H
  H111     1.0000 0.67070  0.01640  0.79690  Biso   1.000  H
  H112     1.0000 0.82930  0.51640  0.70310  Biso   1.000  H
  C113     1.0000 0.46950  0.94490  0.26630  Biso   1.000  C
  C114     1.0000 0.03050  0.44490  0.23370  Biso   1.000  C
  C115     1.0000 0.53050  0.05510  0.73370  Biso   1.000  C
  C116     1.0000 0.96950  0.55510  0.76630  Biso   1.000  C
  H113     1.0000 0.44850  0.88250  0.28010  Biso   1.000  H
  H114     1.0000 0.05150  0.38250  0.21990  Biso   1.000  H
  H115     1.0000 0.55150  0.11750  0.71990  Biso   1.000  H
  H116     1.0000 0.94850  0.61750  0.78010  Biso   1.000  H
  C117     1.0000 0.57020  0.97590  0.29140  Biso   1.000  C
  C118     1.0000 0.92980  0.47590  0.20860  Biso   1.000  C
  C119     1.0000 0.42980  0.02410  0.70860  Biso   1.000  C
  C120     1.0000 0.07020  0.52410  0.79140  Biso   1.000  C
  H117     1.0000 0.61870  0.93470  0.32230  Biso   1.000  H
  H118     1.0000 0.88130  0.43470  0.17770  Biso   1.000  H
  H119     1.0000 0.38130  0.06530  0.67770  Biso   1.000  H
  H120     1.0000 0.11870  0.56530  0.82230  Biso   1.000  H
