data_image0
_cell_length_a       11.3895
_cell_length_b       12.7032
_cell_length_c       13.2957
_cell_angle_alpha    89.2
_cell_angle_beta     69.464
_cell_angle_gamma    78.878

_symmetry_space_group_name_H-M    "P 1"
_symmetry_int_tables_number       1

loop_
  _symmetry_equiv_pos_as_xyz
  'x, y, z'

loop_
  _atom_site_label
  _atom_site_occupancy
  _atom_site_fract_x
  _atom_site_fract_y
  _atom_site_fract_z
  _atom_site_thermal_displace_type
  _atom_site_B_iso_or_equiv
  _atom_site_type_symbol
  Cu1      1.0000 0.12630  0.45647  0.48179  Biso   1.000  Cu
  Cu2      1.0000 0.87370  0.54353  0.51821  Biso   1.000  Cu
  Cu3      1.0000 0.87308  0.99384  0.02940  Biso   1.000  Cu
  Cu4      1.0000 0.12692  0.00616  0.97060  Biso   1.000  Cu
  F1       1.0000 0.98040  0.76126  0.73877  Biso   1.000  F
  F2       1.0000 0.01960  0.23874  0.26123  Biso   1.000  F
  F3       1.0000 0.14240  0.83000  0.37170  Biso   1.000  F
  F4       1.0000 0.85760  0.17000  0.62830  Biso   1.000  F
  F5       1.0000 0.19410  0.01730  0.42386  Biso   1.000  F
  F6       1.0000 0.80590  0.98270  0.57614  Biso   1.000  F
  F7       1.0000 0.13910  0.07786  0.63180  Biso   1.000  F
  F8       1.0000 0.86090  0.92214  0.36820  Biso   1.000  F
  F9       1.0000 0.99120  0.26755  0.76294  Biso   1.000  F
  F10      1.0000 0.00880  0.73245  0.23706  Biso   1.000  F
  F11      1.0000 0.81930  0.63197  0.88104  Biso   1.000  F
  F12      1.0000 0.18070  0.36803  0.11896  Biso   1.000  F
  F13      1.0000 0.76430  0.57940  0.08830  Biso   1.000  F
  F14      1.0000 0.23570  0.42060  0.91170  Biso   1.000  F
  F15      1.0000 0.82050  0.36910  0.13273  Biso   1.000  F
  F16      1.0000 0.17950  0.63090  0.86727  Biso   1.000  F
  O1       1.0000 0.13110  0.60970  0.50220  Biso   1.000  O
  O2       1.0000 0.86890  0.39030  0.49780  Biso   1.000  O
  O3       1.0000 0.84680  0.52050  0.67230  Biso   1.000  O
  O4       1.0000 0.15320  0.47950  0.32770  Biso   1.000  O
  O5       1.0000 0.05470  0.44970  0.63960  Biso   1.000  O
  O6       1.0000 0.94530  0.55030  0.36040  Biso   1.000  O
  O7       1.0000 0.92350  0.68080  0.53640  Biso   1.000  O
  O8       1.0000 0.07650  0.31920  0.46360  Biso   1.000  O
  O9       1.0000 0.92040  0.95890  0.87320  Biso   1.000  O
  O10      1.0000 0.07960  0.04110  0.12680  Biso   1.000  O
  O11      1.0000 0.84630  0.14870  0.00010  Biso   1.000  O
  O12      1.0000 0.15370  0.85130  0.99990  Biso   1.000  O
  O13      1.0000 0.12860  0.96720  0.82720  Biso   1.000  O
  O14      1.0000 0.87140  0.03280  0.17280  Biso   1.000  O
  O15      1.0000 0.05370  0.15830  0.95500  Biso   1.000  O
  O16      1.0000 0.94630  0.84170  0.04500  Biso   1.000  O
  N1       1.0000 0.32780  0.40500  0.45730  Biso   1.000  N
  N2       1.0000 0.67220  0.59500  0.54270  Biso   1.000  N
  N3       1.0000 0.68270  0.95980  0.07770  Biso   1.000  N
  N4       1.0000 0.31730  0.04020  0.92230  Biso   1.000  N
  C1       1.0000 0.40560  0.46900  0.38960  Biso   1.000  C
  C2       1.0000 0.59440  0.53100  0.61040  Biso   1.000  C
  H1       1.0000 0.36340  0.52740  0.36150  Biso   1.000  H
  H2       1.0000 0.63660  0.47260  0.63850  Biso   1.000  H
  C3       1.0000 0.53680  0.45700  0.35890  Biso   1.000  C
  C4       1.0000 0.46320  0.54300  0.64110  Biso   1.000  C
  H3       1.0000 0.58320  0.50290  0.31060  Biso   1.000  H
  H4       1.0000 0.41680  0.49710  0.68940  Biso   1.000  H
  C5       1.0000 0.38620  0.32880  0.50160  Biso   1.000  C
  C6       1.0000 0.61380  0.67120  0.49840  Biso   1.000  C
  C7       1.0000 0.93890  0.47710  0.69920  Biso   1.000  C
  C8       1.0000 0.06110  0.52290  0.30080  Biso   1.000  C
  C9       1.0000 0.03440  0.68480  0.52880  Biso   1.000  C
  C10      1.0000 0.96560  0.31520  0.47120  Biso   1.000  C
  C11      1.0000 0.05810  0.79300  0.55560  Biso   1.000  C
  C12      1.0000 0.94190  0.20700  0.44440  Biso   1.000  C
  C13      1.0000 0.11300  0.85910  0.47740  Biso   1.000  C
  C14      1.0000 0.88700  0.14090  0.52260  Biso   1.000  C
  C15      1.0000 0.14030  0.95400  0.50220  Biso   1.000  C
  C16      1.0000 0.85970  0.04600  0.49780  Biso   1.000  C
  C17      1.0000 0.11180  0.98420  0.60940  Biso   1.000  C
  C18      1.0000 0.88820  0.01580  0.39060  Biso   1.000  C
  C19      1.0000 0.05710  0.92150  0.69160  Biso   1.000  C
  C20      1.0000 0.94290  0.07850  0.30840  Biso   1.000  C
  C21      1.0000 0.03120  0.82680  0.66140  Biso   1.000  C
  C22      1.0000 0.96880  0.17320  0.33860  Biso   1.000  C
  C23      1.0000 0.03250  0.95220  0.80860  Biso   1.000  C
  C24      1.0000 0.96750  0.04780  0.19140  Biso   1.000  C
  C25      1.0000 0.67640  0.86490  0.04230  Biso   1.000  C
  C26      1.0000 0.32360  0.13510  0.95770  Biso   1.000  C
  H5       1.0000 0.75440  0.81700  0.00400  Biso   1.000  H
  H6       1.0000 0.24560  0.18300  0.99600  Biso   1.000  H
  C27      1.0000 0.56140  0.83100  0.05780  Biso   1.000  C
  C28      1.0000 0.43860  0.16900  0.94220  Biso   1.000  C
  H7       1.0000 0.56230  0.76120  0.03260  Biso   1.000  H
  H8       1.0000 0.43770  0.23880  0.96740  Biso   1.000  H
  C29      1.0000 0.44800  0.90030  0.10990  Biso   1.000  C
  C30      1.0000 0.55200  0.09970  0.89010  Biso   1.000  C
  H9       1.0000 0.36910  0.87980  0.11880  Biso   1.000  H
  H10      1.0000 0.63090  0.12020  0.88120  Biso   1.000  H
  C31      1.0000 0.44870  0.00190  0.15020  Biso   1.000  C
  C32      1.0000 0.55130  0.99810  0.84980  Biso   1.000  C
  C33      1.0000 0.56960  0.02940  0.13460  Biso   1.000  C
  C34      1.0000 0.43040  0.97060  0.86540  Biso   1.000  C
  C35      1.0000 0.57310  0.12950  0.17780  Biso   1.000  C
  C36      1.0000 0.42690  0.87050  0.82220  Biso   1.000  C
  H11      1.0000 0.65300  0.14770  0.16930  Biso   1.000  H
  H12      1.0000 0.34700  0.85230  0.83070  Biso   1.000  H
  C37      1.0000 0.46090  0.20070  0.23220  Biso   1.000  C
  C38      1.0000 0.53910  0.79930  0.76780  Biso   1.000  C
  H13      1.0000 0.46420  0.26750  0.26140  Biso   1.000  H
  H14      1.0000 0.53580  0.73250  0.73860  Biso   1.000  H
  C39      1.0000 0.34090  0.17560  0.24520  Biso   1.000  C
  C40      1.0000 0.65910  0.82440  0.75480  Biso   1.000  C
  H15      1.0000 0.26430  0.22560  0.28230  Biso   1.000  H
  H16      1.0000 0.73570  0.77440  0.71770  Biso   1.000  H
  C41      1.0000 0.33520  0.08010  0.20470  Biso   1.000  C
  C42      1.0000 0.66480  0.91990  0.79530  Biso   1.000  C
  H17      1.0000 0.25410  0.06480  0.21260  Biso   1.000  H
  H18      1.0000 0.74590  0.93520  0.78740  Biso   1.000  H
  C43      1.0000 0.93860  0.19630  0.97000  Biso   1.000  C
  C44      1.0000 0.06140  0.80370  0.03000  Biso   1.000  C
  C45      1.0000 0.90850  0.31440  0.94730  Biso   1.000  C
  C46      1.0000 0.09150  0.68560  0.05270  Biso   1.000  C
  C47      1.0000 0.93710  0.34580  0.84310  Biso   1.000  C
  C48      1.0000 0.06290  0.65420  0.15690  Biso   1.000  C
  C49      1.0000 0.90950  0.45050  0.81600  Biso   1.000  C
  C50      1.0000 0.09050  0.54950  0.18400  Biso   1.000  C
  C51      1.0000 0.84930  0.52820  0.90070  Biso   1.000  C
  C52      1.0000 0.15070  0.47180  0.09930  Biso   1.000  C
  C53      1.0000 0.82150  0.50130  0.00710  Biso   1.000  C
  C54      1.0000 0.17850  0.49870  0.99290  Biso   1.000  C
  C55      1.0000 0.85040  0.39400  0.02910  Biso   1.000  C
  C56      1.0000 0.14960  0.60600  0.97090  Biso   1.000  C
  C57      1.0000 0.52350  0.30840  0.47660  Biso   1.000  C
  C58      1.0000 0.47650  0.69160  0.52340  Biso   1.000  C
  C59      1.0000 0.31210  0.26570  0.57350  Biso   1.000  C
  C60      1.0000 0.68790  0.73430  0.42650  Biso   1.000  C
  H19      1.0000 0.22300  0.27580  0.58660  Biso   1.000  H
  H20      1.0000 0.77700  0.72420  0.41340  Biso   1.000  H
  C61      1.0000 0.59670  0.37270  0.40380  Biso   1.000  C
  C62      1.0000 0.40330  0.62730  0.59620  Biso   1.000  C
  H21      1.0000 0.68700  0.35900  0.38510  Biso   1.000  H
  H22      1.0000 0.31300  0.64100  0.61490  Biso   1.000  H
  C63      1.0000 0.57620  0.22920  0.52940  Biso   1.000  C
  C64      1.0000 0.42380  0.77080  0.47060  Biso   1.000  C
  H23      1.0000 0.66590  0.21560  0.51430  Biso   1.000  H
  H24      1.0000 0.33410  0.78440  0.48570  Biso   1.000  H
  C65      1.0000 0.50200  0.16930  0.60370  Biso   1.000  C
  C66      1.0000 0.49800  0.83070  0.39630  Biso   1.000  C
  H25      1.0000 0.54020  0.11580  0.63960  Biso   1.000  H
  H26      1.0000 0.45980  0.88420  0.36040  Biso   1.000  H
  C67      1.0000 0.36850  0.18820  0.62560  Biso   1.000  C
  C68      1.0000 0.63150  0.81180  0.37440  Biso   1.000  C
  H27      1.0000 0.31720  0.14730  0.67670  Biso   1.000  H
  H28      1.0000 0.68280  0.85270  0.32330  Biso   1.000  H
  Cl1      1.0000 0.65770  0.34153  0.80730  Biso   1.000  Cl
  Cl2      1.0000 0.34230  0.65847  0.19270  Biso   1.000  Cl
  C69      1.0000 0.57460  0.42920  0.91220  Biso   1.000  C
  C70      1.0000 0.42540  0.57080  0.08780  Biso   1.000  C
  C71      1.0000 0.54870  0.39480  0.01570  Biso   1.000  C
  C72      1.0000 0.45130  0.60520  0.98430  Biso   1.000  C
  H29      1.0000 0.58290  0.32310  0.02670  Biso   1.000  H
  H30      1.0000 0.41710  0.67690  0.97330  Biso   1.000  H
  C73      1.0000 0.52730  0.53490  0.89660  Biso   1.000  C
  C74      1.0000 0.47270  0.46510  0.10340  Biso   1.000  C
  H31      1.0000 0.54700  0.55910  0.82580  Biso   1.000  H
  H32      1.0000 0.45300  0.44090  0.17420  Biso   1.000  H
