data_image0
_cell_length_a       11.2399
_cell_length_b       12.9837
_cell_length_c       13.4073
_cell_angle_alpha    89.579
_cell_angle_beta     67.174
_cell_angle_gamma    79.601

_symmetry_space_group_name_H-M    "P 1"
_symmetry_int_tables_number       1

loop_
  _symmetry_equiv_pos_as_xyz
  'x, y, z'

loop_
  _atom_site_label
  _atom_site_occupancy
  _atom_site_fract_x
  _atom_site_fract_y
  _atom_site_fract_z
  _atom_site_thermal_displace_type
  _atom_site_B_iso_or_equiv
  _atom_site_type_symbol
  Cu1      1.0000 0.37487  0.04276  0.00958  Biso   1.000  Cu
  Cu2      1.0000 0.62513  0.95724  0.99042  Biso   1.000  Cu
  Cu3      1.0000 0.62335  0.52463  0.46323  Biso   1.000  Cu
  Cu4      1.0000 0.37665  0.47537  0.53677  Biso   1.000  Cu
  F1       1.0000 0.49099  0.23574  0.73967  Biso   1.000  F
  F2       1.0000 0.50901  0.76426  0.26033  Biso   1.000  F
  F3       1.0000 0.47532  0.26003  0.24477  Biso   1.000  F
  F4       1.0000 0.52468  0.73997  0.75523  Biso   1.000  F
  O1       1.0000 0.66838  0.37818  0.49845  Biso   1.000  O
  O2       1.0000 0.33162  0.62182  0.50155  Biso   1.000  O
  O3       1.0000 0.42065  0.17610  0.03861  Biso   1.000  O
  O4       1.0000 0.57935  0.82390  0.96139  Biso   1.000  O
  F5       1.0000 0.81053  0.17770  0.38303  Biso   1.000  F
  F6       1.0000 0.18947  0.82230  0.61697  Biso   1.000  F
  F7       1.0000 0.64540  0.56628  0.12617  Biso   1.000  F
  F8       1.0000 0.35460  0.43372  0.87383  Biso   1.000  F
  F9       1.0000 0.80327  0.91769  0.62544  Biso   1.000  F
  F10      1.0000 0.19673  0.08231  0.37456  Biso   1.000  F
  F11      1.0000 0.63390  0.32242  0.87667  Biso   1.000  F
  F12      1.0000 0.36610  0.67758  0.12333  Biso   1.000  F
  O5       1.0000 0.46750  0.33568  0.55535  Biso   1.000  O
  O6       1.0000 0.53250  0.66432  0.44465  Biso   1.000  O
  O7       1.0000 0.46280  0.06022  0.85393  Biso   1.000  O
  O8       1.0000 0.53720  0.93978  0.14607  Biso   1.000  O
  O9       1.0000 0.63060  0.47655  0.32113  Biso   1.000  O
  O10      1.0000 0.36940  0.52345  0.67887  Biso   1.000  O
  F13      1.0000 0.69140  0.50613  0.92165  Biso   1.000  F
  F14      1.0000 0.30860  0.49387  0.07835  Biso   1.000  F
  O11      1.0000 0.66730  0.99140  0.83864  Biso   1.000  O
  O12      1.0000 0.33270  0.00860  0.16136  Biso   1.000  O
  F15      1.0000 0.91235  0.98772  0.42783  Biso   1.000  F
  F16      1.0000 0.08765  0.01228  0.57217  Biso   1.000  F
  O13      1.0000 0.43020  0.43416  0.38070  Biso   1.000  O
  O14      1.0000 0.56980  0.56584  0.61930  Biso   1.000  O
  C1       1.0000 0.53040  0.18030  0.03850  Biso   1.000  C
  C2       1.0000 0.46960  0.81970  0.96150  Biso   1.000  C
  O15      1.0000 0.62490  0.10629  0.02330  Biso   1.000  O
  O16      1.0000 0.37510  0.89371  0.97670  Biso   1.000  O
  C3       1.0000 0.58570  0.03870  0.80330  Biso   1.000  C
  C4       1.0000 0.41430  0.96130  0.19670  Biso   1.000  C
  C5       1.0000 0.55990  0.41430  0.19370  Biso   1.000  C
  C6       1.0000 0.44010  0.58570  0.80630  Biso   1.000  C
  N1       1.0000 0.16750  0.09703  0.04210  Biso   1.000  N
  N2       1.0000 0.83250  0.90297  0.95790  Biso   1.000  N
  C7       1.0000 0.52940  0.32230  0.16600  Biso   1.000  C
  C8       1.0000 0.47060  0.67770  0.83400  Biso   1.000  C
  C9       1.0000 0.64160  0.07420  0.69060  Biso   1.000  C
  C10      1.0000 0.35840  0.92580  0.30940  Biso   1.000  C
  C11      1.0000 0.59270  0.17200  0.66180  Biso   1.000  C
  C12      1.0000 0.40730  0.82800  0.33820  Biso   1.000  C
  N3       1.0000 0.81920  0.56000  0.41710  Biso   1.000  N
  N4       1.0000 0.18080  0.44000  0.58290  Biso   1.000  N
  C13      1.0000 0.58850  0.31770  0.53590  Biso   1.000  C
  C14      1.0000 0.41150  0.68230  0.46410  Biso   1.000  C
  C15      1.0000 0.75490  0.14650  0.48330  Biso   1.000  C
  C16      1.0000 0.24510  0.85350  0.51670  Biso   1.000  C
  C17      1.0000 0.60730  0.35150  0.98060  Biso   1.000  C
  C18      1.0000 0.39270  0.64850  0.01940  Biso   1.000  C
  C19      1.0000 0.75090  0.01440  0.60750  Biso   1.000  C
  C20      1.0000 0.24910  0.98560  0.39250  Biso   1.000  C
  C21      1.0000 0.55380  0.28760  0.06150  Biso   1.000  C
  C22      1.0000 0.44620  0.71240  0.93850  Biso   1.000  C
  C23      1.0000 0.11650  0.16850  0.98610  Biso   1.000  C
  C24      1.0000 0.88350  0.83150  0.01390  Biso   1.000  C
  C25      1.0000 0.05790  0.51260  0.35410  Biso   1.000  C
  C26      1.0000 0.94210  0.48740  0.64590  Biso   1.000  C
  C27      1.0000 0.64530  0.21030  0.56130  Biso   1.000  C
  C28      1.0000 0.35470  0.78970  0.43870  Biso   1.000  C
  C29      1.0000 0.53790  0.44430  0.30870  Biso   1.000  C
  C30      1.0000 0.46210  0.55570  0.69130  Biso   1.000  C
  C31      1.0000 0.80720  0.04880  0.50610  Biso   1.000  C
  C32      1.0000 0.19280  0.95120  0.49390  Biso   1.000  C
  C33      1.0000 0.93400  0.49130  0.36060  Biso   1.000  C
  C34      1.0000 0.06600  0.50870  0.63940  Biso   1.000  C
  C35      1.0000 0.93070  0.39810  0.31010  Biso   1.000  C
  C36      1.0000 0.06930  0.60190  0.68990  Biso   1.000  C
  H1       1.0000 0.84940  0.38420  0.31280  Biso   1.000  H
  H2       1.0000 0.15060  0.61580  0.68720  Biso   1.000  H
  C37      1.0000 0.61540  0.47480  0.10800  Biso   1.000  C
  C38      1.0000 0.38460  0.52520  0.89200  Biso   1.000  C
  C39      1.0000 0.05960  0.60780  0.40260  Biso   1.000  C
  C40      1.0000 0.94040  0.39220  0.59740  Biso   1.000  C
  H3       1.0000 0.14040  0.62370  0.39890  Biso   1.000  H
  H4       1.0000 0.85960  0.37630  0.60110  Biso   1.000  H
  C41      1.0000 0.95020  0.05940  0.14030  Biso   1.000  C
  C42      1.0000 0.04980  0.94060  0.85970  Biso   1.000  C
  H5       1.0000 0.89580  0.02270  0.19580  Biso   1.000  H
  H6       1.0000 0.10420  0.97730  0.80420  Biso   1.000  H
  C43      1.0000 0.19870  0.22780  0.91090  Biso   1.000  C
  C44      1.0000 0.80130  0.77220  0.08910  Biso   1.000  C
  H7       1.0000 0.28820  0.22010  0.90130  Biso   1.000  H
  H8       1.0000 0.71180  0.77990  0.09870  Biso   1.000  H
  C45      1.0000 0.04440  0.32790  0.25730  Biso   1.000  C
  C46      1.0000 0.95560  0.67210  0.74270  Biso   1.000  C
  H9       1.0000 0.04150  0.26540  0.22260  Biso   1.000  H
  H10      1.0000 0.95850  0.73460  0.77740  Biso   1.000  H
  C47      1.0000 0.08630  0.04600  0.11590  Biso   1.000  C
  C48      1.0000 0.91370  0.95400  0.88410  Biso   1.000  C
  H11      1.0000 0.12200  0.99730  0.15500  Biso   1.000  H
  H12      1.0000 0.87800  0.00270  0.84500  Biso   1.000  H
  C49      1.0000 0.17130  0.43480  0.30020  Biso   1.000  C
  C50      1.0000 0.82870  0.56520  0.69980  Biso   1.000  C
  H13      1.0000 0.25380  0.44570  0.29740  Biso   1.000  H
  H14      1.0000 0.74620  0.55430  0.70260  Biso   1.000  H
  C51      1.0000 0.94420  0.67710  0.45510  Biso   1.000  C
  C52      1.0000 0.05580  0.32290  0.54490  Biso   1.000  C
  H15      1.0000 0.94320  0.74250  0.48690  Biso   1.000  H
  H16      1.0000 0.05680  0.25750  0.51310  Biso   1.000  H
  C53      1.0000 0.63790  0.44480  0.00240  Biso   1.000  C
  C54      1.0000 0.36210  0.55520  0.99760  Biso   1.000  C
  C55      1.0000 0.89900  0.12650  0.08220  Biso   1.000  C
  C56      1.0000 0.10100  0.87350  0.91780  Biso   1.000  C
  H17      1.0000 0.80850  0.13530  0.09490  Biso   1.000  H
  H18      1.0000 0.19150  0.86470  0.90510  Biso   1.000  H
  C57      1.0000 0.82720  0.64870  0.46080  Biso   1.000  C
  C58      1.0000 0.17280  0.35130  0.53920  Biso   1.000  C
  H19      1.0000 0.74730  0.69670  0.49900  Biso   1.000  H
  H20      1.0000 0.25270  0.30330  0.50100  Biso   1.000  H
  C59      1.0000 0.98090  0.18240  0.00350  Biso   1.000  C
  C60      1.0000 0.01910  0.81760  0.99650  Biso   1.000  C
  C61      1.0000 0.16590  0.34550  0.25270  Biso   1.000  C
  C62      1.0000 0.83410  0.65450  0.74730  Biso   1.000  C
  H21      1.0000 0.24380  0.29490  0.21630  Biso   1.000  H
  H22      1.0000 0.75620  0.70510  0.78370  Biso   1.000  H
  C63      1.0000 0.93700  0.25190  0.93640  Biso   1.000  C
  C64      1.0000 0.06300  0.74810  0.06360  Biso   1.000  C
  H23      1.0000 0.84870  0.25960  0.94270  Biso   1.000  H
  H24      1.0000 0.15130  0.74040  0.05730  Biso   1.000  H
  C65      1.0000 0.15050  0.29610  0.85160  Biso   1.000  C
  C66      1.0000 0.84950  0.70390  0.14840  Biso   1.000  C
  H25      1.0000 0.20620  0.33640  0.80170  Biso   1.000  H
  H26      1.0000 0.79380  0.66360  0.19830  Biso   1.000  H
  C67      1.0000 0.01850  0.30690  0.86410  Biso   1.000  C
  C68      1.0000 0.98150  0.69310  0.13590  Biso   1.000  C
  H27      1.0000 0.98630  0.35340  0.82120  Biso   1.000  H
  H28      1.0000 0.01370  0.64660  0.17880  Biso   1.000  H
  Cl1      1.0000 0.32280  0.10660  0.62497  Biso   1.000  Cl
  Cl2      1.0000 0.67720  0.89340  0.37503  Biso   1.000  Cl
  Cl3      1.0000 0.52330  0.12190  0.37500  Biso   1.000  Cl
  Cl4      1.0000 0.47670  0.87810  0.62500  Biso   1.000  Cl
  C69      1.0000 0.46630  0.05120  0.50040  Biso   1.000  C
  C70      1.0000 0.53370  0.94880  0.49960  Biso   1.000  C
  C71      1.0000 0.39860  0.94350  0.67670  Biso   1.000  C
  C72      1.0000 0.60140  0.05650  0.32330  Biso   1.000  C
  C73      1.0000 0.33460  0.04610  0.67730  Biso   1.000  C
  C74      1.0000 0.66540  0.95390  0.32270  Biso   1.000  C
  C75      1.0000 0.37400  0.10120  0.58250  Biso   1.000  C
  C76      1.0000 0.62600  0.89880  0.41750  Biso   1.000  C
  C77      1.0000 0.49370  0.10380  0.41790  Biso   1.000  C
  C78      1.0000 0.50630  0.89620  0.58210  Biso   1.000  C
