data_image0
_cell_length_a       12.2599
_cell_length_b       12.1377
_cell_length_c       21.1716
_cell_angle_alpha    90
_cell_angle_beta     90
_cell_angle_gamma    90

_symmetry_space_group_name_H-M    "P 1"
_symmetry_int_tables_number       1

loop_
  _symmetry_equiv_pos_as_xyz
  'x, y, z'

loop_
  _atom_site_label
  _atom_site_occupancy
  _atom_site_fract_x
  _atom_site_fract_y
  _atom_site_fract_z
  _atom_site_thermal_displace_type
  _atom_site_B_iso_or_equiv
  _atom_site_type_symbol
  Cu1      1.0000 0.02855  0.48036  0.06203  Biso   1.000  Cu
  Cu2      1.0000 0.47145  0.51964  0.56203  Biso   1.000  Cu
  Cu3      1.0000 0.97145  0.98036  0.43796  Biso   1.000  Cu
  Cu4      1.0000 0.52855  0.01964  0.93797  Biso   1.000  Cu
  Cu5      1.0000 0.97145  0.51964  0.93797  Biso   1.000  Cu
  Cu6      1.0000 0.52855  0.48036  0.43796  Biso   1.000  Cu
  Cu7      1.0000 0.02855  0.01964  0.56203  Biso   1.000  Cu
  Cu8      1.0000 0.47145  0.98036  0.06203  Biso   1.000  Cu
  F1       1.0000 0.85043  0.12329  0.09953  Biso   1.000  F
  F2       1.0000 0.64957  0.87671  0.59953  Biso   1.000  F
  F3       1.0000 0.14957  0.62329  0.40047  Biso   1.000  F
  F4       1.0000 0.35043  0.37671  0.90047  Biso   1.000  F
  F5       1.0000 0.14957  0.87671  0.90047  Biso   1.000  F
  F6       1.0000 0.35043  0.12329  0.40047  Biso   1.000  F
  F7       1.0000 0.85043  0.37671  0.59953  Biso   1.000  F
  F8       1.0000 0.64957  0.62329  0.09953  Biso   1.000  F
  F9       1.0000 0.06064  0.06272  0.11976  Biso   1.000  F
  F10      1.0000 0.43936  0.93728  0.61976  Biso   1.000  F
  F11      1.0000 0.93936  0.56272  0.38024  Biso   1.000  F
  F12      1.0000 0.56064  0.43728  0.88024  Biso   1.000  F
  F13      1.0000 0.93936  0.93728  0.88024  Biso   1.000  F
  F14      1.0000 0.56064  0.06272  0.38024  Biso   1.000  F
  F15      1.0000 0.06064  0.43728  0.61976  Biso   1.000  F
  F16      1.0000 0.43936  0.56272  0.11976  Biso   1.000  F
  F17      1.0000 0.78259  0.78668  0.99771  Biso   1.000  F
  F18      1.0000 0.71741  0.21332  0.49771  Biso   1.000  F
  F19      1.0000 0.21741  0.28668  0.50229  Biso   1.000  F
  F20      1.0000 0.28259  0.71332  0.00229  Biso   1.000  F
  F21      1.0000 0.21741  0.21332  0.00229  Biso   1.000  F
  F22      1.0000 0.28259  0.78668  0.50229  Biso   1.000  F
  F23      1.0000 0.78259  0.71332  0.49771  Biso   1.000  F
  F24      1.0000 0.71741  0.28668  0.99771  Biso   1.000  F
  F25      1.0000 0.13014  0.86084  0.08326  Biso   1.000  F
  F26      1.0000 0.36986  0.13916  0.58326  Biso   1.000  F
  F27      1.0000 0.86986  0.36084  0.41674  Biso   1.000  F
  F28      1.0000 0.63014  0.63916  0.91674  Biso   1.000  F
  F29      1.0000 0.86986  0.13916  0.91674  Biso   1.000  F
  F30      1.0000 0.63014  0.86084  0.41674  Biso   1.000  F
  F31      1.0000 0.13014  0.63916  0.58326  Biso   1.000  F
  F32      1.0000 0.36986  0.36084  0.08326  Biso   1.000  F
  O1       1.0000 0.01964  0.64242  0.06583  Biso   1.000  O
  O2       1.0000 0.48036  0.35758  0.56583  Biso   1.000  O
  O3       1.0000 0.98036  0.14242  0.43417  Biso   1.000  O
  O4       1.0000 0.51964  0.85758  0.93417  Biso   1.000  O
  O5       1.0000 0.98036  0.35758  0.93417  Biso   1.000  O
  O6       1.0000 0.51964  0.64242  0.43417  Biso   1.000  O
  O7       1.0000 0.01964  0.85758  0.56583  Biso   1.000  O
  O8       1.0000 0.48036  0.14242  0.06583  Biso   1.000  O
  O9       1.0000 0.62948  0.97451  0.08081  Biso   1.000  O
  O10      1.0000 0.87052  0.02549  0.58081  Biso   1.000  O
  O11      1.0000 0.37052  0.47451  0.41919  Biso   1.000  O
  O12      1.0000 0.12948  0.52549  0.91919  Biso   1.000  O
  O13      1.0000 0.37052  0.02549  0.91919  Biso   1.000  O
  O14      1.0000 0.12948  0.97451  0.41919  Biso   1.000  O
  O15      1.0000 0.62948  0.52549  0.58081  Biso   1.000  O
  O16      1.0000 0.87052  0.47451  0.08081  Biso   1.000  O
  O17      1.0000 0.67277  0.00595  0.97875  Biso   1.000  O
  O18      1.0000 0.82723  0.99405  0.47875  Biso   1.000  O
  O19      1.0000 0.32723  0.50595  0.52125  Biso   1.000  O
  O20      1.0000 0.17277  0.49405  0.02125  Biso   1.000  O
  O21      1.0000 0.32723  0.99405  0.02125  Biso   1.000  O
  O22      1.0000 0.17277  0.00595  0.52125  Biso   1.000  O
  O23      1.0000 0.67277  0.49405  0.47875  Biso   1.000  O
  O24      1.0000 0.82723  0.50595  0.97875  Biso   1.000  O
  O25      1.0000 0.97654  0.67508  0.96404  Biso   1.000  O
  O26      1.0000 0.52346  0.32492  0.46404  Biso   1.000  O
  O27      1.0000 0.02346  0.17508  0.53596  Biso   1.000  O
  O28      1.0000 0.47654  0.82492  0.03596  Biso   1.000  O
  O29      1.0000 0.02346  0.32492  0.03596  Biso   1.000  O
  O30      1.0000 0.47654  0.67508  0.53596  Biso   1.000  O
  O31      1.0000 0.97654  0.82492  0.46404  Biso   1.000  O
  O32      1.0000 0.52346  0.17508  0.96404  Biso   1.000  O
  N1       1.0000 0.10620  0.46950  0.15413  Biso   1.000  N
  N2       1.0000 0.39380  0.53050  0.65413  Biso   1.000  N
  N3       1.0000 0.89380  0.96950  0.34587  Biso   1.000  N
  N4       1.0000 0.60620  0.03050  0.84587  Biso   1.000  N
  N5       1.0000 0.89380  0.53050  0.84587  Biso   1.000  N
  N6       1.0000 0.60620  0.46950  0.34587  Biso   1.000  N
  N7       1.0000 0.10620  0.03050  0.65413  Biso   1.000  N
  N8       1.0000 0.39380  0.96950  0.15413  Biso   1.000  N
  C1       1.0000 0.69460  0.98290  0.03491  Biso   1.000  C
  C2       1.0000 0.80540  0.01710  0.53491  Biso   1.000  C
  C3       1.0000 0.30540  0.48290  0.46509  Biso   1.000  C
  C4       1.0000 0.19460  0.51710  0.96509  Biso   1.000  C
  C5       1.0000 0.30540  0.01710  0.96509  Biso   1.000  C
  C6       1.0000 0.19460  0.98290  0.46509  Biso   1.000  C
  C7       1.0000 0.69460  0.51710  0.53491  Biso   1.000  C
  C8       1.0000 0.80540  0.48290  0.03491  Biso   1.000  C
  C9       1.0000 0.81310  0.95540  0.04746  Biso   1.000  C
  C10      1.0000 0.68690  0.04460  0.54746  Biso   1.000  C
  C11      1.0000 0.18690  0.45540  0.45254  Biso   1.000  C
  C12      1.0000 0.31310  0.54460  0.95254  Biso   1.000  C
  C13      1.0000 0.18690  0.04460  0.95254  Biso   1.000  C
  C14      1.0000 0.31310  0.95540  0.45254  Biso   1.000  C
  C15      1.0000 0.81310  0.54460  0.54746  Biso   1.000  C
  C16      1.0000 0.68690  0.45540  0.04746  Biso   1.000  C
  C17      1.0000 0.88420  0.02400  0.07916  Biso   1.000  C
  C18      1.0000 0.61580  0.97600  0.57916  Biso   1.000  C
  C19      1.0000 0.11580  0.52400  0.42084  Biso   1.000  C
  C20      1.0000 0.38420  0.47600  0.92084  Biso   1.000  C
  C21      1.0000 0.11580  0.97600  0.92084  Biso   1.000  C
  C22      1.0000 0.38420  0.02400  0.42084  Biso   1.000  C
  C23      1.0000 0.88420  0.47600  0.57916  Biso   1.000  C
  C24      1.0000 0.61580  0.52400  0.07916  Biso   1.000  C
  C25      1.0000 0.99170  0.99320  0.09018  Biso   1.000  C
  C26      1.0000 0.50830  0.00680  0.59018  Biso   1.000  C
  C27      1.0000 0.00830  0.49320  0.40982  Biso   1.000  C
  C28      1.0000 0.49170  0.50680  0.90982  Biso   1.000  C
  C29      1.0000 0.00830  0.00680  0.90982  Biso   1.000  C
  C30      1.0000 0.49170  0.99320  0.40982  Biso   1.000  C
  C31      1.0000 0.99170  0.50680  0.59018  Biso   1.000  C
  C32      1.0000 0.50830  0.49320  0.09018  Biso   1.000  C
  C33      1.0000 0.98960  0.70240  0.02070  Biso   1.000  C
  C34      1.0000 0.51040  0.29760  0.52070  Biso   1.000  C
  C35      1.0000 0.01040  0.20240  0.47930  Biso   1.000  C
  C36      1.0000 0.48960  0.79760  0.97930  Biso   1.000  C
  C37      1.0000 0.01040  0.29760  0.97930  Biso   1.000  C
  C38      1.0000 0.48960  0.70240  0.47930  Biso   1.000  C
  C39      1.0000 0.98960  0.79760  0.52070  Biso   1.000  C
  C40      1.0000 0.51040  0.20240  0.02070  Biso   1.000  C
  C41      1.0000 0.95870  0.81880  0.03815  Biso   1.000  C
  C42      1.0000 0.54130  0.18120  0.53815  Biso   1.000  C
  C43      1.0000 0.04130  0.31880  0.46185  Biso   1.000  C
  C44      1.0000 0.45870  0.68120  0.96185  Biso   1.000  C
  C45      1.0000 0.04130  0.18120  0.96185  Biso   1.000  C
  C46      1.0000 0.45870  0.81880  0.46185  Biso   1.000  C
  C47      1.0000 0.95870  0.68120  0.53815  Biso   1.000  C
  C48      1.0000 0.54130  0.31880  0.03815  Biso   1.000  C
  C49      1.0000 0.85320  0.85520  0.02714  Biso   1.000  C
  C50      1.0000 0.64680  0.14480  0.52714  Biso   1.000  C
  C51      1.0000 0.14680  0.35520  0.47286  Biso   1.000  C
  C52      1.0000 0.35320  0.64480  0.97286  Biso   1.000  C
  C53      1.0000 0.14680  0.14480  0.97286  Biso   1.000  C
  C54      1.0000 0.35320  0.85520  0.47286  Biso   1.000  C
  C55      1.0000 0.85320  0.64480  0.52714  Biso   1.000  C
  C56      1.0000 0.64680  0.35520  0.02714  Biso   1.000  C
  C57      1.0000 0.02700  0.89030  0.07075  Biso   1.000  C
  C58      1.0000 0.47300  0.10970  0.57075  Biso   1.000  C
  C59      1.0000 0.97300  0.39030  0.42925  Biso   1.000  C
  C60      1.0000 0.52700  0.60970  0.92925  Biso   1.000  C
  C61      1.0000 0.97300  0.10970  0.92925  Biso   1.000  C
  C62      1.0000 0.52700  0.89030  0.42925  Biso   1.000  C
  C63      1.0000 0.02700  0.60970  0.57075  Biso   1.000  C
  C64      1.0000 0.47300  0.39030  0.07075  Biso   1.000  C
  C65      1.0000 0.18610  0.54080  0.16359  Biso   1.000  C
  C66      1.0000 0.31390  0.45920  0.66359  Biso   1.000  C
  C67      1.0000 0.81390  0.04080  0.33641  Biso   1.000  C
  C68      1.0000 0.68610  0.95920  0.83641  Biso   1.000  C
  C69      1.0000 0.81390  0.45920  0.83641  Biso   1.000  C
  C70      1.0000 0.68610  0.54080  0.33641  Biso   1.000  C
  C71      1.0000 0.18610  0.95920  0.66359  Biso   1.000  C
  C72      1.0000 0.31390  0.04080  0.16359  Biso   1.000  C
  H1       1.0000 0.19920  0.59500  0.13210  Biso   1.000  H
  H2       1.0000 0.30080  0.40500  0.63210  Biso   1.000  H
  H3       1.0000 0.80080  0.09500  0.36790  Biso   1.000  H
  H4       1.0000 0.69920  0.90500  0.86790  Biso   1.000  H
  H5       1.0000 0.80080  0.40500  0.86790  Biso   1.000  H
  H6       1.0000 0.69920  0.59500  0.36790  Biso   1.000  H
  H7       1.0000 0.19920  0.90500  0.63210  Biso   1.000  H
  H8       1.0000 0.30080  0.09500  0.13210  Biso   1.000  H
  C73      1.0000 0.25280  0.54100  0.21770  Biso   1.000  C
  C74      1.0000 0.24720  0.45900  0.71770  Biso   1.000  C
  C75      1.0000 0.74720  0.04100  0.28230  Biso   1.000  C
  C76      1.0000 0.75280  0.95900  0.78230  Biso   1.000  C
  C77      1.0000 0.74720  0.45900  0.78230  Biso   1.000  C
  C78      1.0000 0.75280  0.54100  0.28230  Biso   1.000  C
  C79      1.0000 0.25280  0.95900  0.71770  Biso   1.000  C
  C80      1.0000 0.24720  0.04100  0.21770  Biso   1.000  C
  H9       1.0000 0.30850  0.59480  0.22250  Biso   1.000  H
  H10      1.0000 0.19150  0.40520  0.72250  Biso   1.000  H
  H11      1.0000 0.69150  0.09480  0.27750  Biso   1.000  H
  H12      1.0000 0.80850  0.90520  0.77750  Biso   1.000  H
  H13      1.0000 0.69150  0.40520  0.77750  Biso   1.000  H
  H14      1.0000 0.80850  0.59480  0.27750  Biso   1.000  H
  H15      1.0000 0.30850  0.90520  0.72250  Biso   1.000  H
  H16      1.0000 0.19150  0.09480  0.22250  Biso   1.000  H
  C81      1.0000 0.23660  0.46300  0.26326  Biso   1.000  C
  C82      1.0000 0.26340  0.53700  0.76326  Biso   1.000  C
  C83      1.0000 0.76340  0.96300  0.23674  Biso   1.000  C
  C84      1.0000 0.73660  0.03700  0.73674  Biso   1.000  C
  C85      1.0000 0.76340  0.53700  0.73674  Biso   1.000  C
  C86      1.0000 0.73660  0.46300  0.23674  Biso   1.000  C
  C87      1.0000 0.23660  0.03700  0.76326  Biso   1.000  C
  C88      1.0000 0.26340  0.96300  0.26326  Biso   1.000  C
  H17      1.0000 0.28130  0.46160  0.29990  Biso   1.000  H
  H18      1.0000 0.21870  0.53840  0.79990  Biso   1.000  H
  H19      1.0000 0.71870  0.96160  0.20010  Biso   1.000  H
  H20      1.0000 0.78130  0.03840  0.70010  Biso   1.000  H
  H21      1.0000 0.71870  0.53840  0.70010  Biso   1.000  H
  H22      1.0000 0.78130  0.46160  0.20010  Biso   1.000  H
  H23      1.0000 0.28130  0.03840  0.79990  Biso   1.000  H
  H24      1.0000 0.21870  0.96160  0.29990  Biso   1.000  H
  C89      1.0000 0.15270  0.38430  0.25531  Biso   1.000  C
  C90      1.0000 0.34730  0.61570  0.75531  Biso   1.000  C
  C91      1.0000 0.84730  0.88430  0.24469  Biso   1.000  C
  C92      1.0000 0.65270  0.11570  0.74469  Biso   1.000  C
  C93      1.0000 0.84730  0.61570  0.74469  Biso   1.000  C
  C94      1.0000 0.65270  0.38430  0.24469  Biso   1.000  C
  C95      1.0000 0.15270  0.11570  0.75531  Biso   1.000  C
  C96      1.0000 0.34730  0.88430  0.25531  Biso   1.000  C
  C97      1.0000 0.12960  0.30010  0.29990  Biso   1.000  C
  C98      1.0000 0.37040  0.69990  0.79990  Biso   1.000  C
  C99      1.0000 0.87040  0.80010  0.20010  Biso   1.000  C
  C100     1.0000 0.62960  0.19990  0.70010  Biso   1.000  C
  C101     1.0000 0.87040  0.69990  0.70010  Biso   1.000  C
  C102     1.0000 0.62960  0.30010  0.20010  Biso   1.000  C
  C103     1.0000 0.12960  0.19990  0.79990  Biso   1.000  C
  C104     1.0000 0.37040  0.80010  0.29990  Biso   1.000  C
  H25      1.0000 0.17320  0.29390  0.33680  Biso   1.000  H
  H26      1.0000 0.32680  0.70610  0.83680  Biso   1.000  H
  H27      1.0000 0.82680  0.79390  0.16320  Biso   1.000  H
  H28      1.0000 0.67320  0.20610  0.66320  Biso   1.000  H
  H29      1.0000 0.82680  0.70610  0.66320  Biso   1.000  H
  H30      1.0000 0.67320  0.29390  0.16320  Biso   1.000  H
  H31      1.0000 0.17320  0.20610  0.83680  Biso   1.000  H
  H32      1.0000 0.32680  0.79390  0.33680  Biso   1.000  H
  C105     1.0000 0.04650  0.22870  0.29077  Biso   1.000  C
  C106     1.0000 0.45350  0.77130  0.79077  Biso   1.000  C
  C107     1.0000 0.95350  0.72870  0.20923  Biso   1.000  C
  C108     1.0000 0.54650  0.27130  0.70923  Biso   1.000  C
  C109     1.0000 0.95350  0.77130  0.70923  Biso   1.000  C
  C110     1.0000 0.54650  0.22870  0.20923  Biso   1.000  C
  C111     1.0000 0.04650  0.27130  0.79077  Biso   1.000  C
  C112     1.0000 0.45350  0.72870  0.29077  Biso   1.000  C
  H33      1.0000 0.03150  0.17370  0.32150  Biso   1.000  H
  H34      1.0000 0.46850  0.82630  0.82150  Biso   1.000  H
  H35      1.0000 0.96850  0.67370  0.17850  Biso   1.000  H
  H36      1.0000 0.53150  0.32630  0.67850  Biso   1.000  H
  H37      1.0000 0.96850  0.82630  0.67850  Biso   1.000  H
  H38      1.0000 0.53150  0.17370  0.17850  Biso   1.000  H
  H39      1.0000 0.03150  0.32630  0.82150  Biso   1.000  H
  H40      1.0000 0.46850  0.67370  0.32150  Biso   1.000  H
  C113     1.0000 0.98230  0.23560  0.23594  Biso   1.000  C
  C114     1.0000 0.51770  0.76440  0.73594  Biso   1.000  C
  C115     1.0000 0.01770  0.73560  0.26406  Biso   1.000  C
  C116     1.0000 0.48230  0.26440  0.76406  Biso   1.000  C
  C117     1.0000 0.01770  0.76440  0.76406  Biso   1.000  C
  C118     1.0000 0.48230  0.23560  0.26406  Biso   1.000  C
  C119     1.0000 0.98230  0.26440  0.73594  Biso   1.000  C
  C120     1.0000 0.51770  0.73560  0.23594  Biso   1.000  C
  H41      1.0000 0.92400  0.18510  0.23020  Biso   1.000  H
  H42      1.0000 0.57600  0.81490  0.73020  Biso   1.000  H
  H43      1.0000 0.07600  0.68510  0.26980  Biso   1.000  H
  H44      1.0000 0.42400  0.31490  0.76980  Biso   1.000  H
  H45      1.0000 0.07600  0.81490  0.76980  Biso   1.000  H
  H46      1.0000 0.42400  0.18510  0.26980  Biso   1.000  H
  H47      1.0000 0.92400  0.31490  0.73020  Biso   1.000  H
  H48      1.0000 0.57600  0.68510  0.23020  Biso   1.000  H
  C121     1.0000 0.00190  0.31340  0.19074  Biso   1.000  C
  C122     1.0000 0.49810  0.68660  0.69074  Biso   1.000  C
  C123     1.0000 0.99810  0.81340  0.30926  Biso   1.000  C
  C124     1.0000 0.50190  0.18660  0.80926  Biso   1.000  C
  C125     1.0000 0.99810  0.68660  0.80926  Biso   1.000  C
  C126     1.0000 0.50190  0.31340  0.30926  Biso   1.000  C
  C127     1.0000 0.00190  0.18660  0.69074  Biso   1.000  C
  C128     1.0000 0.49810  0.81340  0.19074  Biso   1.000  C
  H49      1.0000 0.95840  0.31590  0.15360  Biso   1.000  H
  H50      1.0000 0.54160  0.68410  0.65360  Biso   1.000  H
  H51      1.0000 0.04160  0.81590  0.34640  Biso   1.000  H
  H52      1.0000 0.45840  0.18410  0.84640  Biso   1.000  H
  H53      1.0000 0.04160  0.68410  0.84640  Biso   1.000  H
  H54      1.0000 0.45840  0.31590  0.34640  Biso   1.000  H
  H55      1.0000 0.95840  0.18410  0.65360  Biso   1.000  H
  H56      1.0000 0.54160  0.81590  0.15360  Biso   1.000  H
  C129     1.0000 0.08730  0.39030  0.19958  Biso   1.000  C
  C130     1.0000 0.41270  0.60970  0.69958  Biso   1.000  C
  C131     1.0000 0.91270  0.89030  0.30042  Biso   1.000  C
  C132     1.0000 0.58730  0.10970  0.80042  Biso   1.000  C
  C133     1.0000 0.91270  0.60970  0.80042  Biso   1.000  C
  C134     1.0000 0.58730  0.39030  0.30042  Biso   1.000  C
  C135     1.0000 0.08730  0.10970  0.69958  Biso   1.000  C
  C136     1.0000 0.41270  0.89030  0.19958  Biso   1.000  C
