data_image0
_cell_length_a       13.0006
_cell_length_b       12.9131
_cell_length_c       20.042
_cell_angle_alpha    90
_cell_angle_beta     103.889
_cell_angle_gamma    90

_symmetry_space_group_name_H-M    "P 1"
_symmetry_int_tables_number       1

loop_
  _symmetry_equiv_pos_as_xyz
  'x, y, z'

loop_
  _atom_site_label
  _atom_site_occupancy
  _atom_site_fract_x
  _atom_site_fract_y
  _atom_site_fract_z
  _atom_site_thermal_displace_type
  _atom_site_B_iso_or_equiv
  _atom_site_type_symbol
  Cu1      1.0000 0.96156  0.11994  0.18124  Biso   1.000  Cu
  Cu2      1.0000 0.53844  0.61994  0.31876  Biso   1.000  Cu
  Cu3      1.0000 0.03844  0.88006  0.81876  Biso   1.000  Cu
  Cu4      1.0000 0.46156  0.38006  0.68124  Biso   1.000  Cu
  Cu5      1.0000 0.03888  0.16980  0.31805  Biso   1.000  Cu
  Cu6      1.0000 0.46112  0.66980  0.18195  Biso   1.000  Cu
  Cu7      1.0000 0.96112  0.83020  0.68195  Biso   1.000  Cu
  Cu8      1.0000 0.53888  0.33020  0.81805  Biso   1.000  Cu
  F1       1.0000 0.32048  0.04390  0.18492  Biso   1.000  F
  F2       1.0000 0.17952  0.54390  0.31508  Biso   1.000  F
  F3       1.0000 0.67952  0.95610  0.81508  Biso   1.000  F
  F4       1.0000 0.82048  0.45610  0.68492  Biso   1.000  F
  F5       1.0000 0.50480  0.10218  0.15823  Biso   1.000  F
  F6       1.0000 0.99520  0.60218  0.34177  Biso   1.000  F
  F7       1.0000 0.49520  0.89782  0.84177  Biso   1.000  F
  F8       1.0000 0.00480  0.39782  0.65823  Biso   1.000  F
  F9       1.0000 0.56890  0.30157  0.17841  Biso   1.000  F
  F10      1.0000 0.93110  0.80157  0.32159  Biso   1.000  F
  F11      1.0000 0.43110  0.69843  0.82159  Biso   1.000  F
  F12      1.0000 0.06890  0.19843  0.67841  Biso   1.000  F
  F13      1.0000 0.26170  0.38477  0.24959  Biso   1.000  F
  F14      1.0000 0.23830  0.88477  0.25041  Biso   1.000  F
  F15      1.0000 0.73830  0.61523  0.75041  Biso   1.000  F
  F16      1.0000 0.76170  0.11523  0.74959  Biso   1.000  F
  O1       1.0000 0.11300  0.14790  0.18147  Biso   1.000  O
  O2       1.0000 0.38700  0.64790  0.31853  Biso   1.000  O
  O3       1.0000 0.88700  0.85210  0.81853  Biso   1.000  O
  O4       1.0000 0.61300  0.35210  0.68147  Biso   1.000  O
  O5       1.0000 0.16990  0.19860  0.29050  Biso   1.000  O
  O6       1.0000 0.33010  0.69860  0.20950  Biso   1.000  O
  O7       1.0000 0.83010  0.80140  0.70950  Biso   1.000  O
  O8       1.0000 0.66990  0.30140  0.79050  Biso   1.000  O
  O9       1.0000 0.42640  0.51930  0.17751  Biso   1.000  O
  O10      1.0000 0.07360  0.01930  0.32249  Biso   1.000  O
  O11      1.0000 0.57360  0.48070  0.82249  Biso   1.000  O
  O12      1.0000 0.92640  0.98070  0.67751  Biso   1.000  O
  O13      1.0000 0.49730  0.47960  0.28845  Biso   1.000  O
  O14      1.0000 0.00270  0.97960  0.21155  Biso   1.000  O
  O15      1.0000 0.50270  0.52040  0.71155  Biso   1.000  O
  O16      1.0000 0.99730  0.02040  0.78845  Biso   1.000  O
  C1       1.0000 0.28590  0.21300  0.21850  Biso   1.000  C
  C2       1.0000 0.21410  0.71300  0.28150  Biso   1.000  C
  C3       1.0000 0.71410  0.78700  0.78150  Biso   1.000  C
  C4       1.0000 0.78590  0.28700  0.71850  Biso   1.000  C
  C5       1.0000 0.34890  0.14400  0.19410  Biso   1.000  C
  C6       1.0000 0.15110  0.64400  0.30590  Biso   1.000  C
  C7       1.0000 0.65110  0.85600  0.80590  Biso   1.000  C
  C8       1.0000 0.84890  0.35600  0.69410  Biso   1.000  C
  C9       1.0000 0.44340  0.17110  0.18070  Biso   1.000  C
  C10      1.0000 0.05660  0.67110  0.31930  Biso   1.000  C
  C11      1.0000 0.55660  0.82890  0.81930  Biso   1.000  C
  C12      1.0000 0.94340  0.32890  0.68070  Biso   1.000  C
  C13      1.0000 0.47530  0.27370  0.19080  Biso   1.000  C
  C14      1.0000 0.02470  0.77370  0.30920  Biso   1.000  C
  C15      1.0000 0.52470  0.72630  0.80920  Biso   1.000  C
  C16      1.0000 0.97530  0.22630  0.69080  Biso   1.000  C
  C17      1.0000 0.41630  0.34700  0.21470  Biso   1.000  C
  C18      1.0000 0.08370  0.84700  0.28530  Biso   1.000  C
  C19      1.0000 0.58370  0.65300  0.78530  Biso   1.000  C
  C20      1.0000 0.91630  0.15300  0.71470  Biso   1.000  C
  C21      1.0000 0.32200  0.31350  0.22750  Biso   1.000  C
  C22      1.0000 0.17800  0.81350  0.27250  Biso   1.000  C
  C23      1.0000 0.67800  0.68650  0.77250  Biso   1.000  C
  C24      1.0000 0.82200  0.18650  0.72750  Biso   1.000  C
  C25      1.0000 0.18030  0.18360  0.23110  Biso   1.000  C
  C26      1.0000 0.31970  0.68360  0.26890  Biso   1.000  C
  C27      1.0000 0.81970  0.81640  0.76890  Biso   1.000  C
  C28      1.0000 0.68030  0.31640  0.73110  Biso   1.000  C
  C29      1.0000 0.45000  0.45950  0.22790  Biso   1.000  C
  C30      1.0000 0.05000  0.95950  0.27210  Biso   1.000  C
  C31      1.0000 0.55000  0.54050  0.77210  Biso   1.000  C
  C32      1.0000 0.95000  0.04050  0.72790  Biso   1.000  C
  F17      1.0000 0.69690  0.23789  0.33678  Biso   1.000  F
  F18      1.0000 0.80310  0.73789  0.16322  Biso   1.000  F
  F19      1.0000 0.30310  0.76211  0.66322  Biso   1.000  F
  F20      1.0000 0.19690  0.26211  0.83678  Biso   1.000  F
  F21      1.0000 0.51410  0.17700  0.36530  Biso   1.000  F
  F22      1.0000 0.98590  0.67700  0.13470  Biso   1.000  F
  F23      1.0000 0.48590  0.82300  0.63470  Biso   1.000  F
  F24      1.0000 0.01410  0.32300  0.86530  Biso   1.000  F
  F25      1.0000 0.44650  0.97950  0.34044  Biso   1.000  F
  F26      1.0000 0.05350  0.47950  0.15956  Biso   1.000  F
  F27      1.0000 0.55350  0.02050  0.65956  Biso   1.000  F
  F28      1.0000 0.94650  0.52050  0.84044  Biso   1.000  F
  F29      1.0000 0.73750  0.90681  0.24885  Biso   1.000  F
  F30      1.0000 0.76250  0.40681  0.25115  Biso   1.000  F
  F31      1.0000 0.26250  0.09319  0.75115  Biso   1.000  F
  F32      1.0000 0.23750  0.59319  0.74885  Biso   1.000  F
  O17      1.0000 0.83050  0.10360  0.21566  Biso   1.000  O
  O18      1.0000 0.66950  0.60360  0.28434  Biso   1.000  O
  O19      1.0000 0.16950  0.89640  0.78434  Biso   1.000  O
  O20      1.0000 0.33050  0.39640  0.71566  Biso   1.000  O
  O21      1.0000 0.89750  0.13200  0.32784  Biso   1.000  O
  O22      1.0000 0.60250  0.63200  0.17216  Biso   1.000  O
  O23      1.0000 0.10250  0.86800  0.67216  Biso   1.000  O
  O24      1.0000 0.39750  0.36800  0.82784  Biso   1.000  O
  O25      1.0000 0.51770  0.80650  0.21855  Biso   1.000  O
  O26      1.0000 0.98230  0.30650  0.28145  Biso   1.000  O
  O27      1.0000 0.48230  0.19350  0.78145  Biso   1.000  O
  O28      1.0000 0.01770  0.69350  0.71855  Biso   1.000  O
  O29      1.0000 0.56710  0.76840  0.33126  Biso   1.000  O
  O30      1.0000 0.93290  0.26840  0.16874  Biso   1.000  O
  O31      1.0000 0.43290  0.23160  0.66874  Biso   1.000  O
  O32      1.0000 0.06710  0.73160  0.83126  Biso   1.000  O
  C33      1.0000 0.72310  0.07360  0.29240  Biso   1.000  C
  C34      1.0000 0.77690  0.57360  0.20760  Biso   1.000  C
  C35      1.0000 0.27690  0.92640  0.70760  Biso   1.000  C
  C36      1.0000 0.22310  0.42640  0.79240  Biso   1.000  C
  C37      1.0000 0.66410  0.14000  0.32280  Biso   1.000  C
  C38      1.0000 0.83590  0.64000  0.17720  Biso   1.000  C
  C39      1.0000 0.33590  0.86000  0.67720  Biso   1.000  C
  C40      1.0000 0.16410  0.36000  0.82280  Biso   1.000  C
  C41      1.0000 0.57130  0.10920  0.33770  Biso   1.000  C
  C42      1.0000 0.92870  0.60920  0.16230  Biso   1.000  C
  C43      1.0000 0.42870  0.89080  0.66230  Biso   1.000  C
  C44      1.0000 0.07130  0.39080  0.83770  Biso   1.000  C
  C45      1.0000 0.53810  0.00720  0.32500  Biso   1.000  C
  C46      1.0000 0.96190  0.50720  0.17500  Biso   1.000  C
  C47      1.0000 0.46190  0.99280  0.67500  Biso   1.000  C
  C48      1.0000 0.03810  0.49280  0.82500  Biso   1.000  C
  C49      1.0000 0.59220  0.93840  0.29540  Biso   1.000  C
  C50      1.0000 0.90780  0.43840  0.20460  Biso   1.000  C
  C51      1.0000 0.40780  0.06160  0.70460  Biso   1.000  C
  C52      1.0000 0.09220  0.56160  0.79540  Biso   1.000  C
  C53      1.0000 0.68260  0.97330  0.27840  Biso   1.000  C
  C54      1.0000 0.81740  0.47330  0.22160  Biso   1.000  C
  C55      1.0000 0.31740  0.02670  0.72160  Biso   1.000  C
  C56      1.0000 0.18260  0.52670  0.77840  Biso   1.000  C
  C57      1.0000 0.82630  0.10570  0.27660  Biso   1.000  C
  C58      1.0000 0.67370  0.60570  0.22340  Biso   1.000  C
  C59      1.0000 0.17370  0.89430  0.72340  Biso   1.000  C
  C60      1.0000 0.32630  0.39430  0.77660  Biso   1.000  C
  C61      1.0000 0.55510  0.82770  0.27980  Biso   1.000  C
  C62      1.0000 0.94490  0.32770  0.22020  Biso   1.000  C
  C63      1.0000 0.44490  0.17230  0.72020  Biso   1.000  C
  C64      1.0000 0.05510  0.67230  0.77980  Biso   1.000  C
  N1       1.0000 0.90880  0.08800  0.07310  Biso   1.000  N
  N2       1.0000 0.59120  0.58800  0.42690  Biso   1.000  N
  N3       1.0000 0.09120  0.91200  0.92690  Biso   1.000  N
  N4       1.0000 0.40880  0.41200  0.57310  Biso   1.000  N
  C65      1.0000 0.95450  0.15110  0.03330  Biso   1.000  C
  C66      1.0000 0.54550  0.65110  0.46670  Biso   1.000  C
  C67      1.0000 0.04550  0.84890  0.96670  Biso   1.000  C
  C68      1.0000 0.45450  0.34890  0.53330  Biso   1.000  C
  H1       1.0000 0.00420  0.20170  0.05540  Biso   1.000  H
  H2       1.0000 0.49580  0.70170  0.44460  Biso   1.000  H
  H3       1.0000 0.99580  0.79830  0.94460  Biso   1.000  H
  H4       1.0000 0.50420  0.29830  0.55540  Biso   1.000  H
  C69      1.0000 0.93190  0.14460  0.96400  Biso   1.000  C
  C70      1.0000 0.56810  0.64460  0.53600  Biso   1.000  C
  C71      1.0000 0.06810  0.85540  0.03600  Biso   1.000  C
  C72      1.0000 0.43190  0.35540  0.46400  Biso   1.000  C
  H5       1.0000 0.96390  0.19070  0.93800  Biso   1.000  H
  H6       1.0000 0.53610  0.69070  0.56200  Biso   1.000  H
  H7       1.0000 0.03610  0.80930  0.06200  Biso   1.000  H
  H8       1.0000 0.46390  0.30930  0.43800  Biso   1.000  H
  C73      1.0000 0.86120  0.06940  0.93150  Biso   1.000  C
  C74      1.0000 0.63880  0.56940  0.56850  Biso   1.000  C
  C75      1.0000 0.13880  0.93060  0.06850  Biso   1.000  C
  C76      1.0000 0.36120  0.43060  0.43150  Biso   1.000  C
  H9       1.0000 0.84520  0.06170  0.88300  Biso   1.000  H
  H10      1.0000 0.65480  0.56170  0.61700  Biso   1.000  H
  H11      1.0000 0.15480  0.93830  0.11700  Biso   1.000  H
  H12      1.0000 0.34520  0.43830  0.38300  Biso   1.000  H
  C77      1.0000 0.81580  0.00780  0.97030  Biso   1.000  C
  C78      1.0000 0.68420  0.50780  0.52970  Biso   1.000  C
  C79      1.0000 0.18420  0.99220  0.02970  Biso   1.000  C
  C80      1.0000 0.31580  0.49220  0.47030  Biso   1.000  C
  H13      1.0000 0.76610  0.95680  0.94890  Biso   1.000  H
  H14      1.0000 0.73390  0.45680  0.55110  Biso   1.000  H
  H15      1.0000 0.23390  0.04320  0.05110  Biso   1.000  H
  H16      1.0000 0.26610  0.54320  0.44890  Biso   1.000  H
  C81      1.0000 0.84120  0.01810  0.04220  Biso   1.000  C
  C82      1.0000 0.65880  0.51810  0.45780  Biso   1.000  C
  C83      1.0000 0.15880  0.98190  0.95780  Biso   1.000  C
  C84      1.0000 0.34120  0.48190  0.54220  Biso   1.000  C
  C85      1.0000 0.79520  0.95010  0.08600  Biso   1.000  C
  C86      1.0000 0.70480  0.45010  0.41400  Biso   1.000  C
  C87      1.0000 0.20480  0.04990  0.91400  Biso   1.000  C
  C88      1.0000 0.29520  0.54990  0.58600  Biso   1.000  C
  H17      1.0000 0.75340  0.99150  0.11090  Biso   1.000  H
  H18      1.0000 0.74660  0.49150  0.38910  Biso   1.000  H
  H19      1.0000 0.24660  0.00850  0.88910  Biso   1.000  H
  H20      1.0000 0.25340  0.50850  0.61090  Biso   1.000  H
  H21      1.0000 0.85210  0.91460  0.11900  Biso   1.000  H
  H22      1.0000 0.64790  0.41460  0.38100  Biso   1.000  H
  H23      1.0000 0.14790  0.08540  0.88100  Biso   1.000  H
  H24      1.0000 0.35210  0.58540  0.61900  Biso   1.000  H
  H25      1.0000 0.74920  0.89870  0.05740  Biso   1.000  H
  H26      1.0000 0.75080  0.39870  0.44260  Biso   1.000  H
  H27      1.0000 0.25080  0.10130  0.94260  Biso   1.000  H
  H28      1.0000 0.24920  0.60130  0.55740  Biso   1.000  H
  N5       1.0000 0.10390  0.20930  0.42390  Biso   1.000  N
  N6       1.0000 0.39610  0.70930  0.07610  Biso   1.000  N
  N7       1.0000 0.89610  0.79070  0.57610  Biso   1.000  N
  N8       1.0000 0.60390  0.29070  0.92390  Biso   1.000  N
  C89      1.0000 0.06540  0.28420  0.45930  Biso   1.000  C
  C90      1.0000 0.43460  0.78420  0.04070  Biso   1.000  C
  C91      1.0000 0.93460  0.71580  0.54070  Biso   1.000  C
  C92      1.0000 0.56540  0.21580  0.95930  Biso   1.000  C
  C93      1.0000 0.11150  0.30640  0.52880  Biso   1.000  C
  C94      1.0000 0.38850  0.80640  0.97120  Biso   1.000  C
  C95      1.0000 0.88850  0.69360  0.47120  Biso   1.000  C
  C96      1.0000 0.61150  0.19360  0.02880  Biso   1.000  C
  H29      1.0000 0.08180  0.35750  0.55270  Biso   1.000  H
  H30      1.0000 0.41820  0.85750  0.94730  Biso   1.000  H
  H31      1.0000 0.91820  0.64250  0.44730  Biso   1.000  H
  H32      1.0000 0.58180  0.14250  0.05270  Biso   1.000  H
  C97      1.0000 0.19850  0.25350  0.56050  Biso   1.000  C
  C98      1.0000 0.30150  0.75350  0.93950  Biso   1.000  C
  C99      1.0000 0.80150  0.74650  0.43950  Biso   1.000  C
  C100     1.0000 0.69850  0.24650  0.06050  Biso   1.000  C
  H33      1.0000 0.22970  0.26560  0.60780  Biso   1.000  H
  H34      1.0000 0.27030  0.76560  0.89220  Biso   1.000  H
  H35      1.0000 0.77030  0.73440  0.39220  Biso   1.000  H
  H36      1.0000 0.72970  0.23440  0.10780  Biso   1.000  H
  C101     1.0000 0.24250  0.18240  0.52530  Biso   1.000  C
  C102     1.0000 0.25750  0.68240  0.97470  Biso   1.000  C
  C103     1.0000 0.75750  0.81760  0.47470  Biso   1.000  C
  C104     1.0000 0.74250  0.31760  0.02530  Biso   1.000  C
  H37      1.0000 0.30480  0.14570  0.54730  Biso   1.000  H
  H38      1.0000 0.19520  0.64570  0.95270  Biso   1.000  H
  H39      1.0000 0.69520  0.85430  0.45270  Biso   1.000  H
  H40      1.0000 0.80480  0.35430  0.04730  Biso   1.000  H
  C105     1.0000 0.19330  0.16470  0.45550  Biso   1.000  C
  C106     1.0000 0.30670  0.66470  0.04450  Biso   1.000  C
  C107     1.0000 0.80670  0.83530  0.54450  Biso   1.000  C
  C108     1.0000 0.69330  0.33530  0.95550  Biso   1.000  C
  C109     1.0000 0.97640  0.35160  0.42930  Biso   1.000  C
  C110     1.0000 0.52360  0.85160  0.07070  Biso   1.000  C
  C111     1.0000 0.02360  0.64840  0.57070  Biso   1.000  C
  C112     1.0000 0.47640  0.14840  0.92930  Biso   1.000  C
  H41      1.0000 0.94770  0.33260  0.38100  Biso   1.000  H
  H42      1.0000 0.55230  0.83260  0.11900  Biso   1.000  H
  H43      1.0000 0.05230  0.66740  0.61900  Biso   1.000  H
  H44      1.0000 0.44770  0.16740  0.88100  Biso   1.000  H
  H45      1.0000 0.00050  0.42380  0.43190  Biso   1.000  H
  H46      1.0000 0.49950  0.92380  0.06810  Biso   1.000  H
  H47      1.0000 0.99950  0.57620  0.56810  Biso   1.000  H
  H48      1.0000 0.50050  0.07620  0.93190  Biso   1.000  H
  H49      1.0000 0.92110  0.34390  0.45460  Biso   1.000  H
  H50      1.0000 0.57890  0.84390  0.04540  Biso   1.000  H
  H51      1.0000 0.07890  0.65610  0.54540  Biso   1.000  H
  H52      1.0000 0.42110  0.15610  0.95460  Biso   1.000  H
  F33      1.0000 0.12850  0.07570  0.61690  Biso   1.000  F
  F34      1.0000 0.37150  0.57570  0.88310  Biso   1.000  F
  F35      1.0000 0.87150  0.92430  0.38310  Biso   1.000  F
  F36      1.0000 0.62850  0.42430  0.11690  Biso   1.000  F
  F37      1.0000 0.19820  0.91910  0.54760  Biso   1.000  F
  F38      1.0000 0.30180  0.41910  0.95240  Biso   1.000  F
  F39      1.0000 0.80180  0.08090  0.45240  Biso   1.000  F
  F40      1.0000 0.69820  0.58090  0.04760  Biso   1.000  F
  F41      1.0000 0.92930  0.15580  0.57100  Biso   1.000  F
  F42      1.0000 0.57070  0.65580  0.92900  Biso   1.000  F
  F43      1.0000 0.07070  0.84420  0.42900  Biso   1.000  F
  F44      1.0000 0.42930  0.34420  0.07100  Biso   1.000  F
  C113     1.0000 0.06430  0.03620  0.55970  Biso   1.000  C
  C114     1.0000 0.43570  0.53620  0.94030  Biso   1.000  C
  C115     1.0000 0.93570  0.96380  0.44030  Biso   1.000  C
  C116     1.0000 0.56430  0.46380  0.05970  Biso   1.000  C
  C117     1.0000 0.09990  0.95740  0.52430  Biso   1.000  C
  C118     1.0000 0.40010  0.45740  0.97570  Biso   1.000  C
  C119     1.0000 0.90010  0.04260  0.47570  Biso   1.000  C
  C120     1.0000 0.59990  0.54260  0.02430  Biso   1.000  C
  C121     1.0000 0.96500  0.08110  0.53550  Biso   1.000  C
  C122     1.0000 0.53500  0.58110  0.96450  Biso   1.000  C
  C123     1.0000 0.03500  0.91890  0.46450  Biso   1.000  C
  C124     1.0000 0.46500  0.41890  0.03550  Biso   1.000  C
  O33      1.0000 0.43700  0.94240  0.48980  Biso   1.000  O
  O34      1.0000 0.06300  0.44240  0.01020  Biso   1.000  O
  O35      1.0000 0.56300  0.05760  0.51020  Biso   1.000  O
  O36      1.0000 0.93700  0.55760  0.98980  Biso   1.000  O
  C125     1.0000 0.25200  0.85400  0.47470  Biso   1.000  C
  C126     1.0000 0.24800  0.35400  0.02530  Biso   1.000  C
  C127     1.0000 0.74800  0.14600  0.52530  Biso   1.000  C
  C128     1.0000 0.75200  0.64600  0.97470  Biso   1.000  C
  C129     1.0000 0.33100  0.92500  0.49550  Biso   1.000  C
  C130     1.0000 0.16900  0.42500  0.00450  Biso   1.000  C
  C131     1.0000 0.66900  0.07500  0.50450  Biso   1.000  C
  C132     1.0000 0.83100  0.57500  0.99550  Biso   1.000  C
  C133     1.0000 0.25450  0.09610  0.42680  Biso   1.000  C
  C134     1.0000 0.24550  0.59610  0.07320  Biso   1.000  C
  C135     1.0000 0.74550  0.90390  0.57320  Biso   1.000  C
  C136     1.0000 0.75450  0.40390  0.92680  Biso   1.000  C
  H53      1.0000 0.21980  0.08430  0.37830  Biso   1.000  H
  H54      1.0000 0.28020  0.58430  0.12170  Biso   1.000  H
  H55      1.0000 0.78020  0.91570  0.62170  Biso   1.000  H
  H56      1.0000 0.71980  0.41570  0.87830  Biso   1.000  H
  H57      1.0000 0.26160  0.03020  0.45170  Biso   1.000  H
  H58      1.0000 0.23840  0.53020  0.04830  Biso   1.000  H
  H59      1.0000 0.73840  0.96980  0.54830  Biso   1.000  H
  H60      1.0000 0.76160  0.46980  0.95170  Biso   1.000  H
  H61      1.0000 0.32490  0.12610  0.43040  Biso   1.000  H
  H62      1.0000 0.17510  0.62610  0.06960  Biso   1.000  H
  H63      1.0000 0.67510  0.87390  0.56960  Biso   1.000  H
  H64      1.0000 0.82490  0.37390  0.93040  Biso   1.000  H
  N9       1.0000 0.09030  0.22810  0.42050  Biso   1.000  N
  N10      1.0000 0.40970  0.72810  0.07950  Biso   1.000  N
  N11      1.0000 0.90970  0.77190  0.57950  Biso   1.000  N
  N12      1.0000 0.59030  0.27190  0.92050  Biso   1.000  N
  C137     1.0000 0.18040  0.19950  0.46720  Biso   1.000  C
  C138     1.0000 0.31960  0.69950  0.03280  Biso   1.000  C
  C139     1.0000 0.81960  0.80050  0.53280  Biso   1.000  C
  C140     1.0000 0.68040  0.30050  0.96720  Biso   1.000  C
  C141     1.0000 0.20940  0.24240  0.53450  Biso   1.000  C
  C142     1.0000 0.29060  0.74240  0.96550  Biso   1.000  C
  C143     1.0000 0.79060  0.75760  0.46550  Biso   1.000  C
  C144     1.0000 0.70940  0.25760  0.03450  Biso   1.000  C
  H65      1.0000 0.27290  0.22290  0.56650  Biso   1.000  H
  H66      1.0000 0.22710  0.72290  0.93350  Biso   1.000  H
  H67      1.0000 0.72710  0.77710  0.43350  Biso   1.000  H
  H68      1.0000 0.77290  0.27710  0.06650  Biso   1.000  H
  C145     1.0000 0.14250  0.31160  0.55050  Biso   1.000  C
  C146     1.0000 0.35750  0.81160  0.94950  Biso   1.000  C
  C147     1.0000 0.85750  0.68840  0.44950  Biso   1.000  C
  C148     1.0000 0.64250  0.18840  0.05050  Biso   1.000  C
  H69      1.0000 0.16070  0.34320  0.59460  Biso   1.000  H
  H70      1.0000 0.33930  0.84320  0.90540  Biso   1.000  H
  H71      1.0000 0.83930  0.65680  0.40540  Biso   1.000  H
  H72      1.0000 0.66070  0.15680  0.09460  Biso   1.000  H
  C149     1.0000 0.05030  0.33850  0.50670  Biso   1.000  C
  C150     1.0000 0.44970  0.83850  0.99330  Biso   1.000  C
  C151     1.0000 0.94970  0.66150  0.49330  Biso   1.000  C
  C152     1.0000 0.55030  0.16150  0.00670  Biso   1.000  C
  H73      1.0000 0.00190  0.38420  0.52020  Biso   1.000  H
  H74      1.0000 0.49810  0.88420  0.97980  Biso   1.000  H
  H75      1.0000 0.99810  0.61580  0.47980  Biso   1.000  H
  H76      1.0000 0.50190  0.11580  0.02020  Biso   1.000  H
  C153     1.0000 0.02870  0.29590  0.43980  Biso   1.000  C
  C154     1.0000 0.47130  0.79590  0.06020  Biso   1.000  C
  C155     1.0000 0.97130  0.70410  0.56020  Biso   1.000  C
  C156     1.0000 0.52870  0.20410  0.93980  Biso   1.000  C
  C157     1.0000 0.94920  0.35840  0.40340  Biso   1.000  C
  C158     1.0000 0.55080  0.85840  0.09660  Biso   1.000  C
  C159     1.0000 0.05080  0.64160  0.59660  Biso   1.000  C
  C160     1.0000 0.44920  0.14160  0.90340  Biso   1.000  C
  H77      1.0000 0.92820  0.33490  0.35560  Biso   1.000  H
  H78      1.0000 0.57180  0.83490  0.14440  Biso   1.000  H
  H79      1.0000 0.07180  0.66510  0.64440  Biso   1.000  H
  H80      1.0000 0.42820  0.16510  0.85560  Biso   1.000  H
  H81      1.0000 0.97460  0.43000  0.40490  Biso   1.000  H
  H82      1.0000 0.52540  0.93000  0.09510  Biso   1.000  H
  H83      1.0000 0.02540  0.57000  0.59510  Biso   1.000  H
  H84      1.0000 0.47460  0.07000  0.90490  Biso   1.000  H
  H85      1.0000 0.88800  0.35490  0.42400  Biso   1.000  H
  H86      1.0000 0.61200  0.85490  0.07600  Biso   1.000  H
  H87      1.0000 0.11200  0.64510  0.57600  Biso   1.000  H
  H88      1.0000 0.38800  0.14510  0.92400  Biso   1.000  H
  C161     1.0000 0.25820  0.12900  0.44590  Biso   1.000  C
  C162     1.0000 0.24180  0.62900  0.05410  Biso   1.000  C
  C163     1.0000 0.74180  0.87100  0.55410  Biso   1.000  C
  C164     1.0000 0.75820  0.37100  0.94590  Biso   1.000  C
  H89      1.0000 0.22880  0.10490  0.39880  Biso   1.000  H
  H90      1.0000 0.27120  0.60490  0.10120  Biso   1.000  H
  H91      1.0000 0.77120  0.89510  0.60120  Biso   1.000  H
  H92      1.0000 0.72880  0.39510  0.89880  Biso   1.000  H
  H93      1.0000 0.27230  0.06930  0.47700  Biso   1.000  H
  H94      1.0000 0.22770  0.56930  0.02300  Biso   1.000  H
  H95      1.0000 0.72770  0.93070  0.52300  Biso   1.000  H
  H96      1.0000 0.77230  0.43070  0.97700  Biso   1.000  H
  H97      1.0000 0.32440  0.16650  0.44810  Biso   1.000  H
  H98      1.0000 0.17560  0.66650  0.05190  Biso   1.000  H
  H99      1.0000 0.67560  0.83350  0.55190  Biso   1.000  H
  H100     1.0000 0.82440  0.33350  0.94810  Biso   1.000  H
  O37      1.0000 0.11740  0.91510  0.52890  Biso   1.000  O
  O38      1.0000 0.38260  0.41510  0.97110  Biso   1.000  O
  O39      1.0000 0.88260  0.08490  0.47110  Biso   1.000  O
  O40      1.0000 0.61740  0.58490  0.02890  Biso   1.000  O
  C165     1.0000 0.02910  0.95630  0.48590  Biso   1.000  C
  C166     1.0000 0.47090  0.45630  0.01410  Biso   1.000  C
  C167     1.0000 0.97090  0.04370  0.51410  Biso   1.000  C
  C168     1.0000 0.52910  0.54370  0.98590  Biso   1.000  C
  C169     1.0000 0.18570  0.75760  0.46190  Biso   1.000  C
  C170     1.0000 0.31430  0.25760  0.03810  Biso   1.000  C
  C171     1.0000 0.81430  0.24240  0.53810  Biso   1.000  C
  C172     1.0000 0.68570  0.74240  0.96190  Biso   1.000  C
  C173     1.0000 0.28890  0.77850  0.46550  Biso   1.000  C
  C174     1.0000 0.21110  0.27850  0.03450  Biso   1.000  C
  C175     1.0000 0.71110  0.22150  0.53450  Biso   1.000  C
  C176     1.0000 0.78890  0.72150  0.96550  Biso   1.000  C
  O41      1.0000 0.33400  0.86590  0.45050  Biso   1.000  O
  O42      1.0000 0.16600  0.36590  0.04950  Biso   1.000  O
  O43      1.0000 0.66600  0.13410  0.54950  Biso   1.000  O
  O44      1.0000 0.83400  0.63410  0.95050  Biso   1.000  O
  O45      1.0000 0.17100  0.85100  0.49100  Biso   1.000  O
  O46      1.0000 0.32900  0.35100  0.00900  Biso   1.000  O
  O47      1.0000 0.82900  0.14900  0.50900  Biso   1.000  O
  O48      1.0000 0.67100  0.64900  0.99100  Biso   1.000  O
