data_image0
_cell_length_a       25.878
_cell_length_b       10.267
_cell_length_c       17.084
_cell_angle_alpha    90
_cell_angle_beta     129.229
_cell_angle_gamma    90

_symmetry_space_group_name_H-M    "P 1"
_symmetry_int_tables_number       1

loop_
  _symmetry_equiv_pos_as_xyz
  'x, y, z'

loop_
  _atom_site_label
  _atom_site_occupancy
  _atom_site_fract_x
  _atom_site_fract_y
  _atom_site_fract_z
  _atom_site_thermal_displace_type
  _atom_site_B_iso_or_equiv
  _atom_site_type_symbol
  Cu1      1.0000 0.17423  0.09506  0.38950  Biso   1.000  Cu
  Cu2      1.0000 0.67423  0.59506  0.38950  Biso   1.000  Cu
  Cu3      1.0000 0.82577  0.09506  0.11050  Biso   1.000  Cu
  Cu4      1.0000 0.32577  0.59506  0.11050  Biso   1.000  Cu
  Cu5      1.0000 0.82577  0.90494  0.61050  Biso   1.000  Cu
  Cu6      1.0000 0.32577  0.40494  0.61050  Biso   1.000  Cu
  Cu7      1.0000 0.17423  0.90494  0.88950  Biso   1.000  Cu
  Cu8      1.0000 0.67423  0.40494  0.88950  Biso   1.000  Cu
  O1       1.0000 0.17050  0.89850  0.39480  Biso   1.000  O
  O2       1.0000 0.67050  0.39850  0.39480  Biso   1.000  O
  O3       1.0000 0.82950  0.89850  0.10520  Biso   1.000  O
  O4       1.0000 0.32950  0.39850  0.10520  Biso   1.000  O
  O5       1.0000 0.82950  0.10150  0.60520  Biso   1.000  O
  O6       1.0000 0.32950  0.60150  0.60520  Biso   1.000  O
  O7       1.0000 0.17050  0.10150  0.89480  Biso   1.000  O
  O8       1.0000 0.67050  0.60150  0.89480  Biso   1.000  O
  O9       1.0000 0.07530  0.95370  0.24650  Biso   1.000  O
  O10      1.0000 0.57530  0.45370  0.24650  Biso   1.000  O
  O11      1.0000 0.92470  0.95370  0.25350  Biso   1.000  O
  O12      1.0000 0.42470  0.45370  0.25350  Biso   1.000  O
  O13      1.0000 0.92470  0.04630  0.75350  Biso   1.000  O
  O14      1.0000 0.42470  0.54630  0.75350  Biso   1.000  O
  O15      1.0000 0.07530  0.04630  0.74650  Biso   1.000  O
  O16      1.0000 0.57530  0.54630  0.74650  Biso   1.000  O
  O17      1.0000 0.21710  0.41160  0.46670  Biso   1.000  O
  O18      1.0000 0.71710  0.91160  0.46670  Biso   1.000  O
  O19      1.0000 0.78290  0.41160  0.03330  Biso   1.000  O
  O20      1.0000 0.28290  0.91160  0.03330  Biso   1.000  O
  O21      1.0000 0.78290  0.58840  0.53330  Biso   1.000  O
  O22      1.0000 0.28290  0.08840  0.53330  Biso   1.000  O
  O23      1.0000 0.21710  0.58840  0.96670  Biso   1.000  O
  O24      1.0000 0.71710  0.08840  0.96670  Biso   1.000  O
  O25      1.0000 0.14580  0.27580  0.34090  Biso   1.000  O
  O26      1.0000 0.64580  0.77580  0.34090  Biso   1.000  O
  O27      1.0000 0.85420  0.27580  0.15910  Biso   1.000  O
  O28      1.0000 0.35420  0.77580  0.15910  Biso   1.000  O
  O29      1.0000 0.85420  0.72420  0.65910  Biso   1.000  O
  O30      1.0000 0.35420  0.22420  0.65910  Biso   1.000  O
  O31      1.0000 0.14580  0.72420  0.84090  Biso   1.000  O
  O32      1.0000 0.64580  0.22420  0.84090  Biso   1.000  O
  O33      1.0000 0.93790  0.43570  0.03850  Biso   1.000  O
  O34      1.0000 0.43790  0.93570  0.03850  Biso   1.000  O
  O35      1.0000 0.06210  0.43570  0.46150  Biso   1.000  O
  O36      1.0000 0.56210  0.93570  0.46150  Biso   1.000  O
  O37      1.0000 0.06210  0.56430  0.96150  Biso   1.000  O
  O38      1.0000 0.56210  0.06430  0.96150  Biso   1.000  O
  O39      1.0000 0.93790  0.56430  0.53850  Biso   1.000  O
  O40      1.0000 0.43790  0.06430  0.53850  Biso   1.000  O
  O41      1.0000 0.92200  0.63500  0.00730  Biso   1.000  O
  O42      1.0000 0.42200  0.13500  0.00730  Biso   1.000  O
  O43      1.0000 0.07800  0.63500  0.49270  Biso   1.000  O
  O44      1.0000 0.57800  0.13500  0.49270  Biso   1.000  O
  O45      1.0000 0.07800  0.36500  0.99270  Biso   1.000  O
  O46      1.0000 0.57800  0.86500  0.99270  Biso   1.000  O
  O47      1.0000 0.92200  0.36500  0.50730  Biso   1.000  O
  O48      1.0000 0.42200  0.86500  0.50730  Biso   1.000  O
  N1       1.0000 0.13410  0.11540  0.45790  Biso   1.000  N
  N2       1.0000 0.63410  0.61540  0.45790  Biso   1.000  N
  N3       1.0000 0.86590  0.11540  0.04210  Biso   1.000  N
  N4       1.0000 0.36590  0.61540  0.04210  Biso   1.000  N
  N5       1.0000 0.86590  0.88460  0.54210  Biso   1.000  N
  N6       1.0000 0.36590  0.38460  0.54210  Biso   1.000  N
  N7       1.0000 0.13410  0.88460  0.95790  Biso   1.000  N
  N8       1.0000 0.63410  0.38460  0.95790  Biso   1.000  N
  N9       1.0000 0.20380  0.08220  0.30440  Biso   1.000  N
  N10      1.0000 0.70380  0.58220  0.30440  Biso   1.000  N
  N11      1.0000 0.79620  0.08220  0.19560  Biso   1.000  N
  N12      1.0000 0.29620  0.58220  0.19560  Biso   1.000  N
  N13      1.0000 0.79620  0.91780  0.69560  Biso   1.000  N
  N14      1.0000 0.29620  0.41780  0.69560  Biso   1.000  N
  N15      1.0000 0.20380  0.91780  0.80440  Biso   1.000  N
  N16      1.0000 0.70380  0.41780  0.80440  Biso   1.000  N
  N17      1.0000 0.95490  0.54510  0.06170  Biso   1.000  N
  N18      1.0000 0.45490  0.04510  0.06170  Biso   1.000  N
  N19      1.0000 0.04510  0.54510  0.43830  Biso   1.000  N
  N20      1.0000 0.54510  0.04510  0.43830  Biso   1.000  N
  N21      1.0000 0.04510  0.45490  0.93830  Biso   1.000  N
  N22      1.0000 0.54510  0.95490  0.93830  Biso   1.000  N
  N23      1.0000 0.95490  0.45490  0.56170  Biso   1.000  N
  N24      1.0000 0.45490  0.95490  0.56170  Biso   1.000  N
  C1       1.0000 0.11420  0.87100  0.30970  Biso   1.000  C
  C2       1.0000 0.61420  0.37100  0.30970  Biso   1.000  C
  C3       1.0000 0.88580  0.87100  0.19030  Biso   1.000  C
  C4       1.0000 0.38580  0.37100  0.19030  Biso   1.000  C
  C5       1.0000 0.88580  0.12900  0.69030  Biso   1.000  C
  C6       1.0000 0.38580  0.62900  0.69030  Biso   1.000  C
  C7       1.0000 0.11420  0.12900  0.80970  Biso   1.000  C
  C8       1.0000 0.61420  0.62900  0.80970  Biso   1.000  C
  C9       1.0000 0.09610  0.72840  0.28450  Biso   1.000  C
  C10      1.0000 0.59610  0.22840  0.28450  Biso   1.000  C
  C11      1.0000 0.90390  0.72840  0.21550  Biso   1.000  C
  C12      1.0000 0.40390  0.22840  0.21550  Biso   1.000  C
  C13      1.0000 0.90390  0.27160  0.71550  Biso   1.000  C
  C14      1.0000 0.40390  0.77160  0.71550  Biso   1.000  C
  C15      1.0000 0.09610  0.27160  0.78450  Biso   1.000  C
  C16      1.0000 0.59610  0.77160  0.78450  Biso   1.000  C
  C17      1.0000 0.13690  0.62650  0.34600  Biso   1.000  C
  C18      1.0000 0.63690  0.12650  0.34600  Biso   1.000  C
  C19      1.0000 0.86310  0.62650  0.15400  Biso   1.000  C
  C20      1.0000 0.36310  0.12650  0.15400  Biso   1.000  C
  C21      1.0000 0.86310  0.37350  0.65400  Biso   1.000  C
  C22      1.0000 0.36310  0.87350  0.65400  Biso   1.000  C
  C23      1.0000 0.13690  0.37350  0.84600  Biso   1.000  C
  C24      1.0000 0.63690  0.87350  0.84600  Biso   1.000  C
  H1       1.0000 0.17740  0.64440  0.40910  Biso   1.000  H
  H2       1.0000 0.67740  0.14440  0.40910  Biso   1.000  H
  H3       1.0000 0.82260  0.64440  0.09090  Biso   1.000  H
  H4       1.0000 0.32260  0.14440  0.09090  Biso   1.000  H
  H5       1.0000 0.82260  0.35560  0.59090  Biso   1.000  H
  H6       1.0000 0.32260  0.85560  0.59090  Biso   1.000  H
  H7       1.0000 0.17740  0.35560  0.90910  Biso   1.000  H
  H8       1.0000 0.67740  0.85560  0.90910  Biso   1.000  H
  C25      1.0000 0.11850  0.49760  0.31540  Biso   1.000  C
  C26      1.0000 0.61850  0.99760  0.31540  Biso   1.000  C
  C27      1.0000 0.88150  0.49760  0.18460  Biso   1.000  C
  C28      1.0000 0.38150  0.99760  0.18460  Biso   1.000  C
  C29      1.0000 0.88150  0.50240  0.68460  Biso   1.000  C
  C30      1.0000 0.38150  0.00240  0.68460  Biso   1.000  C
  C31      1.0000 0.11850  0.50240  0.81540  Biso   1.000  C
  C32      1.0000 0.61850  0.00240  0.81540  Biso   1.000  C
  C33      1.0000 0.16510  0.38610  0.38120  Biso   1.000  C
  C34      1.0000 0.66510  0.88610  0.38120  Biso   1.000  C
  C35      1.0000 0.83490  0.38610  0.11880  Biso   1.000  C
  C36      1.0000 0.33490  0.88610  0.11880  Biso   1.000  C
  C37      1.0000 0.83490  0.61390  0.61880  Biso   1.000  C
  C38      1.0000 0.33490  0.11390  0.61880  Biso   1.000  C
  C39      1.0000 0.16510  0.61390  0.88120  Biso   1.000  C
  C40      1.0000 0.66510  0.11390  0.88120  Biso   1.000  C
  C41      1.0000 0.05880  0.47050  0.22250  Biso   1.000  C
  C42      1.0000 0.55880  0.97050  0.22250  Biso   1.000  C
  C43      1.0000 0.94120  0.47050  0.27750  Biso   1.000  C
  C44      1.0000 0.44120  0.97050  0.27750  Biso   1.000  C
  C45      1.0000 0.94120  0.52950  0.77750  Biso   1.000  C
  C46      1.0000 0.44120  0.02950  0.77750  Biso   1.000  C
  C47      1.0000 0.05880  0.52950  0.72250  Biso   1.000  C
  C48      1.0000 0.55880  0.02950  0.72250  Biso   1.000  C
  H9       1.0000 0.04590  0.38490  0.20080  Biso   1.000  H
  H10      1.0000 0.54590  0.88490  0.20080  Biso   1.000  H
  H11      1.0000 0.95410  0.38490  0.29920  Biso   1.000  H
  H12      1.0000 0.45410  0.88490  0.29920  Biso   1.000  H
  H13      1.0000 0.95410  0.61510  0.79920  Biso   1.000  H
  H14      1.0000 0.45410  0.11510  0.79920  Biso   1.000  H
  H15      1.0000 0.04590  0.61510  0.70080  Biso   1.000  H
  H16      1.0000 0.54590  0.11510  0.70080  Biso   1.000  H
  C49      1.0000 0.01870  0.57170  0.16260  Biso   1.000  C
  C50      1.0000 0.51870  0.07170  0.16260  Biso   1.000  C
  C51      1.0000 0.98130  0.57170  0.33740  Biso   1.000  C
  C52      1.0000 0.48130  0.07170  0.33740  Biso   1.000  C
  C53      1.0000 0.98130  0.42830  0.83740  Biso   1.000  C
  C54      1.0000 0.48130  0.92830  0.83740  Biso   1.000  C
  C55      1.0000 0.01870  0.42830  0.66260  Biso   1.000  C
  C56      1.0000 0.51870  0.92830  0.66260  Biso   1.000  C
  C57      1.0000 0.03520  0.70050  0.19100  Biso   1.000  C
  C58      1.0000 0.53520  0.20050  0.19100  Biso   1.000  C
  C59      1.0000 0.96480  0.70050  0.30900  Biso   1.000  C
  C60      1.0000 0.46480  0.20050  0.30900  Biso   1.000  C
  C61      1.0000 0.96480  0.29950  0.80900  Biso   1.000  C
  C62      1.0000 0.46480  0.79950  0.80900  Biso   1.000  C
  C63      1.0000 0.03520  0.29950  0.69100  Biso   1.000  C
  C64      1.0000 0.53520  0.79950  0.69100  Biso   1.000  C
  H17      1.0000 0.00640  0.76700  0.14850  Biso   1.000  H
  H18      1.0000 0.50640  0.26700  0.14850  Biso   1.000  H
  H19      1.0000 0.99360  0.76700  0.35150  Biso   1.000  H
  H20      1.0000 0.49360  0.26700  0.35150  Biso   1.000  H
  H21      1.0000 0.99360  0.23300  0.85150  Biso   1.000  H
  H22      1.0000 0.49360  0.73300  0.85150  Biso   1.000  H
  H23      1.0000 0.00640  0.23300  0.64850  Biso   1.000  H
  H24      1.0000 0.50640  0.73300  0.64850  Biso   1.000  H
  C65      1.0000 0.07150  0.07680  0.41260  Biso   1.000  C
  C66      1.0000 0.57150  0.57680  0.41260  Biso   1.000  C
  C67      1.0000 0.92850  0.07680  0.08740  Biso   1.000  C
  C68      1.0000 0.42850  0.57680  0.08740  Biso   1.000  C
  C69      1.0000 0.92850  0.92320  0.58740  Biso   1.000  C
  C70      1.0000 0.42850  0.42320  0.58740  Biso   1.000  C
  C71      1.0000 0.07150  0.92320  0.91260  Biso   1.000  C
  C72      1.0000 0.57150  0.42320  0.91260  Biso   1.000  C
  H25      1.0000 0.04720  0.03860  0.34910  Biso   1.000  H
  H26      1.0000 0.54720  0.53860  0.34910  Biso   1.000  H
  H27      1.0000 0.95280  0.03860  0.15090  Biso   1.000  H
  H28      1.0000 0.45280  0.53860  0.15090  Biso   1.000  H
  H29      1.0000 0.95280  0.96140  0.65090  Biso   1.000  H
  H30      1.0000 0.45280  0.46140  0.65090  Biso   1.000  H
  H31      1.0000 0.04720  0.96140  0.84910  Biso   1.000  H
  H32      1.0000 0.54720  0.46140  0.84910  Biso   1.000  H
  C73      1.0000 0.04200  0.09090  0.45500  Biso   1.000  C
  C74      1.0000 0.54200  0.59090  0.45500  Biso   1.000  C
  C75      1.0000 0.95800  0.09090  0.04500  Biso   1.000  C
  C76      1.0000 0.45800  0.59090  0.04500  Biso   1.000  C
  C77      1.0000 0.95800  0.90910  0.54500  Biso   1.000  C
  C78      1.0000 0.45800  0.40910  0.54500  Biso   1.000  C
  C79      1.0000 0.04200  0.90910  0.95500  Biso   1.000  C
  C80      1.0000 0.54200  0.40910  0.95500  Biso   1.000  C
  H33      1.0000 0.99840  0.06240  0.42020  Biso   1.000  H
  H34      1.0000 0.49840  0.56240  0.42020  Biso   1.000  H
  H35      1.0000 0.00160  0.06240  0.07980  Biso   1.000  H
  H36      1.0000 0.50160  0.56240  0.07980  Biso   1.000  H
  H37      1.0000 0.00160  0.93760  0.57980  Biso   1.000  H
  H38      1.0000 0.50160  0.43760  0.57980  Biso   1.000  H
  H39      1.0000 0.99840  0.93760  0.92020  Biso   1.000  H
  H40      1.0000 0.49840  0.43760  0.92020  Biso   1.000  H
  C81      1.0000 0.07500  0.14600  0.54770  Biso   1.000  C
  C82      1.0000 0.57500  0.64600  0.54770  Biso   1.000  C
  C83      1.0000 0.92500  0.14600  0.95230  Biso   1.000  C
  C84      1.0000 0.42500  0.64600  0.95230  Biso   1.000  C
  C85      1.0000 0.92500  0.85400  0.45230  Biso   1.000  C
  C86      1.0000 0.42500  0.35400  0.45230  Biso   1.000  C
  C87      1.0000 0.07500  0.85400  0.04770  Biso   1.000  C
  C88      1.0000 0.57500  0.35400  0.04770  Biso   1.000  C
  H41      1.0000 0.05560  0.15440  0.57830  Biso   1.000  H
  H42      1.0000 0.55560  0.65440  0.57830  Biso   1.000  H
  H43      1.0000 0.94440  0.15440  0.92170  Biso   1.000  H
  H44      1.0000 0.44440  0.65440  0.92170  Biso   1.000  H
  H45      1.0000 0.94440  0.84560  0.42170  Biso   1.000  H
  H46      1.0000 0.44440  0.34560  0.42170  Biso   1.000  H
  H47      1.0000 0.05560  0.84560  0.07830  Biso   1.000  H
  H48      1.0000 0.55560  0.34560  0.07830  Biso   1.000  H
  C89      1.0000 0.13890  0.18880  0.59380  Biso   1.000  C
  C90      1.0000 0.63890  0.68880  0.59380  Biso   1.000  C
  C91      1.0000 0.86110  0.18880  0.90620  Biso   1.000  C
  C92      1.0000 0.36110  0.68880  0.90620  Biso   1.000  C
  C93      1.0000 0.86110  0.81120  0.40620  Biso   1.000  C
  C94      1.0000 0.36110  0.31120  0.40620  Biso   1.000  C
  C95      1.0000 0.13890  0.81120  0.09380  Biso   1.000  C
  C96      1.0000 0.63890  0.31120  0.09380  Biso   1.000  C
  H49      1.0000 0.16370  0.22870  0.65680  Biso   1.000  H
  H50      1.0000 0.66370  0.72870  0.65680  Biso   1.000  H
  H51      1.0000 0.83630  0.22870  0.84320  Biso   1.000  H
  H52      1.0000 0.33630  0.72870  0.84320  Biso   1.000  H
  H53      1.0000 0.83630  0.77130  0.34320  Biso   1.000  H
  H54      1.0000 0.33630  0.27130  0.34320  Biso   1.000  H
  H55      1.0000 0.16370  0.77130  0.15680  Biso   1.000  H
  H56      1.0000 0.66370  0.27130  0.15680  Biso   1.000  H
  C97      1.0000 0.16550  0.17260  0.54720  Biso   1.000  C
  C98      1.0000 0.66550  0.67260  0.54720  Biso   1.000  C
  C99      1.0000 0.83450  0.17260  0.95280  Biso   1.000  C
  C100     1.0000 0.33450  0.67260  0.95280  Biso   1.000  C
  C101     1.0000 0.83450  0.82740  0.45280  Biso   1.000  C
  C102     1.0000 0.33450  0.32740  0.45280  Biso   1.000  C
  C103     1.0000 0.16550  0.82740  0.04720  Biso   1.000  C
  C104     1.0000 0.66550  0.32740  0.04720  Biso   1.000  C
  H57      1.0000 0.20850  0.20340  0.57970  Biso   1.000  H
  H58      1.0000 0.70850  0.70340  0.57970  Biso   1.000  H
  H59      1.0000 0.79150  0.20340  0.92030  Biso   1.000  H
  H60      1.0000 0.29150  0.70340  0.92030  Biso   1.000  H
  H61      1.0000 0.79150  0.79660  0.42030  Biso   1.000  H
  H62      1.0000 0.29150  0.29660  0.42030  Biso   1.000  H
  H63      1.0000 0.20850  0.79660  0.07970  Biso   1.000  H
  H64      1.0000 0.70850  0.29660  0.07970  Biso   1.000  H
  C105     1.0000 0.16820  0.14330  0.21460  Biso   1.000  C
  C106     1.0000 0.66820  0.64330  0.21460  Biso   1.000  C
  C107     1.0000 0.83180  0.14330  0.28540  Biso   1.000  C
  C108     1.0000 0.33180  0.64330  0.28540  Biso   1.000  C
  C109     1.0000 0.83180  0.85670  0.78540  Biso   1.000  C
  C110     1.0000 0.33180  0.35670  0.78540  Biso   1.000  C
  C111     1.0000 0.16820  0.85670  0.71460  Biso   1.000  C
  C112     1.0000 0.66820  0.35670  0.71460  Biso   1.000  C
  H65      1.0000 0.13000  0.18890  0.19250  Biso   1.000  H
  H66      1.0000 0.63000  0.68890  0.19250  Biso   1.000  H
  H67      1.0000 0.87000  0.18890  0.30750  Biso   1.000  H
  H68      1.0000 0.37000  0.68890  0.30750  Biso   1.000  H
  H69      1.0000 0.87000  0.81110  0.80750  Biso   1.000  H
  H70      1.0000 0.37000  0.31110  0.80750  Biso   1.000  H
  H71      1.0000 0.13000  0.81110  0.69250  Biso   1.000  H
  H72      1.0000 0.63000  0.31110  0.69250  Biso   1.000  H
  C113     1.0000 0.18610  0.14060  0.15470  Biso   1.000  C
  C114     1.0000 0.68610  0.64060  0.15470  Biso   1.000  C
  C115     1.0000 0.81390  0.14060  0.34530  Biso   1.000  C
  C116     1.0000 0.31390  0.64060  0.34530  Biso   1.000  C
  C117     1.0000 0.81390  0.85940  0.84530  Biso   1.000  C
  C118     1.0000 0.31390  0.35940  0.84530  Biso   1.000  C
  C119     1.0000 0.18610  0.85940  0.65470  Biso   1.000  C
  C120     1.0000 0.68610  0.35940  0.65470  Biso   1.000  C
  H73      1.0000 0.16030  0.18280  0.09250  Biso   1.000  H
  H74      1.0000 0.66030  0.68280  0.09250  Biso   1.000  H
  H75      1.0000 0.83970  0.18280  0.40750  Biso   1.000  H
  H76      1.0000 0.33970  0.68280  0.40750  Biso   1.000  H
  H77      1.0000 0.83970  0.81720  0.90750  Biso   1.000  H
  H78      1.0000 0.33970  0.31720  0.90750  Biso   1.000  H
  H79      1.0000 0.16030  0.81720  0.59250  Biso   1.000  H
  H80      1.0000 0.66030  0.31720  0.59250  Biso   1.000  H
  C121     1.0000 0.24360  0.07380  0.18790  Biso   1.000  C
  C122     1.0000 0.74360  0.57380  0.18790  Biso   1.000  C
  C123     1.0000 0.75640  0.07380  0.31210  Biso   1.000  C
  C124     1.0000 0.25640  0.57380  0.31210  Biso   1.000  C
  C125     1.0000 0.75640  0.92620  0.81210  Biso   1.000  C
  C126     1.0000 0.25640  0.42620  0.81210  Biso   1.000  C
  C127     1.0000 0.24360  0.92620  0.68790  Biso   1.000  C
  C128     1.0000 0.74360  0.42620  0.68790  Biso   1.000  C
  H81      1.0000 0.25720  0.07160  0.14890  Biso   1.000  H
  H82      1.0000 0.75720  0.57160  0.14890  Biso   1.000  H
  H83      1.0000 0.74280  0.07160  0.35110  Biso   1.000  H
  H84      1.0000 0.24280  0.57160  0.35110  Biso   1.000  H
  H85      1.0000 0.74280  0.92840  0.85110  Biso   1.000  H
  H86      1.0000 0.24280  0.42840  0.85110  Biso   1.000  H
  H87      1.0000 0.25720  0.92840  0.64890  Biso   1.000  H
  H88      1.0000 0.75720  0.42840  0.64890  Biso   1.000  H
  C129     1.0000 0.27970  0.01150  0.27920  Biso   1.000  C
  C130     1.0000 0.77970  0.51150  0.27920  Biso   1.000  C
  C131     1.0000 0.72030  0.01150  0.22080  Biso   1.000  C
  C132     1.0000 0.22030  0.51150  0.22080  Biso   1.000  C
  C133     1.0000 0.72030  0.98850  0.72080  Biso   1.000  C
  C134     1.0000 0.22030  0.48850  0.72080  Biso   1.000  C
  C135     1.0000 0.27970  0.98850  0.77920  Biso   1.000  C
  C136     1.0000 0.77970  0.48850  0.77920  Biso   1.000  C
  H89      1.0000 0.31830  0.96620  0.30320  Biso   1.000  H
  H90      1.0000 0.81830  0.46620  0.30320  Biso   1.000  H
  H91      1.0000 0.68170  0.96620  0.19680  Biso   1.000  H
  H92      1.0000 0.18170  0.46620  0.19680  Biso   1.000  H
  H93      1.0000 0.68170  0.03380  0.69680  Biso   1.000  H
  H94      1.0000 0.18170  0.53380  0.69680  Biso   1.000  H
  H95      1.0000 0.31830  0.03380  0.80320  Biso   1.000  H
  H96      1.0000 0.81830  0.53380  0.80320  Biso   1.000  H
  C137     1.0000 0.25820  0.01650  0.33600  Biso   1.000  C
  C138     1.0000 0.75820  0.51650  0.33600  Biso   1.000  C
  C139     1.0000 0.74180  0.01650  0.16400  Biso   1.000  C
  C140     1.0000 0.24180  0.51650  0.16400  Biso   1.000  C
  C141     1.0000 0.74180  0.98350  0.66400  Biso   1.000  C
  C142     1.0000 0.24180  0.48350  0.66400  Biso   1.000  C
  C143     1.0000 0.25820  0.98350  0.83600  Biso   1.000  C
  C144     1.0000 0.75820  0.48350  0.83600  Biso   1.000  C
  H97      1.0000 0.28250  0.97280  0.39750  Biso   1.000  H
  H98      1.0000 0.78250  0.47280  0.39750  Biso   1.000  H
  H99      1.0000 0.71750  0.97280  0.10250  Biso   1.000  H
  H100     1.0000 0.21750  0.47280  0.10250  Biso   1.000  H
  H101     1.0000 0.71750  0.02720  0.60250  Biso   1.000  H
  H102     1.0000 0.21750  0.52720  0.60250  Biso   1.000  H
  H103     1.0000 0.28250  0.02720  0.89750  Biso   1.000  H
  H104     1.0000 0.78250  0.52720  0.89750  Biso   1.000  H
