data_image0
_cell_length_a       7.0161
_cell_length_b       7.8647
_cell_length_c       15.6706
_cell_angle_alpha    79.524
_cell_angle_beta     78.134
_cell_angle_gamma    67.639

_symmetry_space_group_name_H-M    "P 1"
_symmetry_int_tables_number       1

loop_
  _symmetry_equiv_pos_as_xyz
  'x, y, z'

loop_
  _atom_site_label
  _atom_site_occupancy
  _atom_site_fract_x
  _atom_site_fract_y
  _atom_site_fract_z
  _atom_site_thermal_displace_type
  _atom_site_B_iso_or_equiv
  _atom_site_type_symbol
  C1       1.0000 0.66380  0.42820  0.31782  Biso   1.000  C
  C2       1.0000 0.33620  0.57180  0.68218  Biso   1.000  C
  H1       1.0000 0.52960  0.42390  0.31940  Biso   1.000  H
  H2       1.0000 0.47040  0.57610  0.68060  Biso   1.000  H
  C3       1.0000 0.80470  0.39480  0.24139  Biso   1.000  C
  C4       1.0000 0.19530  0.60520  0.75861  Biso   1.000  C
  H3       1.0000 0.76700  0.36950  0.19150  Biso   1.000  H
  H4       1.0000 0.23300  0.63050  0.80850  Biso   1.000  H
  C5       1.0000 0.00330  0.39880  0.23858  Biso   1.000  C
  C6       1.0000 0.99670  0.60120  0.76142  Biso   1.000  C
  C7       1.0000 0.04740  0.44250  0.31280  Biso   1.000  C
  C8       1.0000 0.95260  0.55750  0.68720  Biso   1.000  C
  H5       1.0000 0.17940  0.45010  0.31280  Biso   1.000  H
  H6       1.0000 0.82060  0.54990  0.68720  Biso   1.000  H
  C9       1.0000 0.89680  0.47460  0.38647  Biso   1.000  C
  C10      1.0000 0.10320  0.52540  0.61353  Biso   1.000  C
  H7       1.0000 0.92870  0.50370  0.43680  Biso   1.000  H
  H8       1.0000 0.07130  0.49630  0.56320  Biso   1.000  H
  C11      1.0000 0.35920  0.24428  0.16524  Biso   1.000  C
  C12      1.0000 0.64080  0.75572  0.83476  Biso   1.000  C
  C13      1.0000 0.42130  0.12400  0.24033  Biso   1.000  C
  C14      1.0000 0.57870  0.87600  0.75967  Biso   1.000  C
  H9       1.0000 0.32270  0.12100  0.29170  Biso   1.000  H
  H10      1.0000 0.67730  0.87900  0.70830  Biso   1.000  H
  C15      1.0000 0.62780  0.00980  0.23878  Biso   1.000  C
  C16      1.0000 0.37220  0.99020  0.76122  Biso   1.000  C
  H11      1.0000 0.66670  0.93000  0.29050  Biso   1.000  H
  H12      1.0000 0.33330  0.07000  0.70950  Biso   1.000  H
  C17      1.0000 0.71540  0.11900  0.09751  Biso   1.000  C
  C18      1.0000 0.28460  0.88100  0.90249  Biso   1.000  C
  H13      1.0000 0.81730  0.11640  0.04690  Biso   1.000  H
  H14      1.0000 0.18270  0.88360  0.95310  Biso   1.000  H
  C19      1.0000 0.51360  0.24110  0.09226  Biso   1.000  C
  C20      1.0000 0.48640  0.75890  0.90774  Biso   1.000  C
  H15      1.0000 0.48050  0.32150  0.04000  Biso   1.000  H
  H16      1.0000 0.51950  0.67850  0.96000  Biso   1.000  H
  C21      1.0000 0.07710  0.42950  0.07904  Biso   1.000  C
  C22      1.0000 0.92290  0.57050  0.92096  Biso   1.000  C
  C23      1.0000 0.11490  0.31140  0.01637  Biso   1.000  C
  C24      1.0000 0.88510  0.68860  0.98363  Biso   1.000  C
  H17      1.0000 0.19290  0.18310  0.02750  Biso   1.000  H
  H18      1.0000 0.80710  0.81690  0.97250  Biso   1.000  H
  C25      1.0000 0.96220  0.61780  0.06267  Biso   1.000  C
  C26      1.0000 0.03780  0.38220  0.93733  Biso   1.000  C
  H19      1.0000 0.93660  0.69790  0.10570  Biso   1.000  H
  H20      1.0000 0.06340  0.30210  0.89430  Biso   1.000  H
  C27      1.0000 0.78290  0.17310  0.58197  Biso   1.000  C
  C28      1.0000 0.21710  0.82690  0.41803  Biso   1.000  C
  C29      1.0000 0.97670  0.07720  0.62472  Biso   1.000  C
  C30      1.0000 0.02330  0.92280  0.37528  Biso   1.000  C
  H21      1.0000 0.04800  0.95230  0.60700  Biso   1.000  H
  H22      1.0000 0.95200  0.04770  0.39300  Biso   1.000  H
  H23      1.0000 0.93810  0.06910  0.68870  Biso   1.000  H
  H24      1.0000 0.06190  0.93090  0.31130  Biso   1.000  H
  H25      1.0000 0.07000  0.14780  0.60630  Biso   1.000  H
  H26      1.0000 0.93000  0.85220  0.39370  Biso   1.000  H
  Cu1      1.0000 0.50000  0.50000  0.50000  Biso   1.000  Cu
  H27      1.0000 0.47000  0.17200  0.49650  Biso   1.000  H
  H28      1.0000 0.53000  0.82800  0.50350  Biso   1.000  H
  H29      1.0000 0.33300  0.16300  0.45400  Biso   1.000  H
  H30      1.0000 0.66700  0.83700  0.54600  Biso   1.000  H
  N1       1.0000 0.70780  0.46644  0.39001  Biso   1.000  N
  N2       1.0000 0.29220  0.53356  0.60999  Biso   1.000  N
  N3       1.0000 0.15156  0.36072  0.16184  Biso   1.000  N
  N4       1.0000 0.84844  0.63928  0.83816  Biso   1.000  N
  N5       1.0000 0.77700  0.00392  0.16930  Biso   1.000  N
  N6       1.0000 0.22300  0.99608  0.83070  Biso   1.000  N
  O1       1.0000 0.72558  0.34841  0.56747  Biso   1.000  O
  O2       1.0000 0.27442  0.65159  0.43253  Biso   1.000  O
  O3       1.0000 0.69210  0.07930  0.56401  Biso   1.000  O
  O4       1.0000 0.30790  0.92070  0.43599  Biso   1.000  O
  O5       1.0000 0.37480  0.23910  0.46753  Biso   1.000  O
  O6       1.0000 0.62520  0.76090  0.53247  Biso   1.000  O
  C31      1.0000 0.35760  0.74550  0.16083  Biso   1.000  C
  C32      1.0000 0.64240  0.25450  0.83917  Biso   1.000  C
  H31      1.0000 0.49890  0.73960  0.13440  Biso   1.000  H
  H32      1.0000 0.50110  0.26040  0.86560  Biso   1.000  H
  H33      1.0000 0.33550  0.63610  0.14990  Biso   1.000  H
  H34      1.0000 0.66450  0.36390  0.85010  Biso   1.000  H
  H35      1.0000 0.34010  0.74900  0.22420  Biso   1.000  H
  H36      1.0000 0.65990  0.25100  0.77580  Biso   1.000  H
  H37      1.0000 0.09460  0.91000  0.15170  Biso   1.000  H
  H38      1.0000 0.90540  0.09000  0.84830  Biso   1.000  H
  O7       1.0000 0.21207  0.90555  0.12362  Biso   1.000  O
  O8       1.0000 0.78793  0.09445  0.87638  Biso   1.000  O
