data_image0
_cell_length_a       7.434
_cell_length_b       12.047
_cell_length_c       17.404
_cell_angle_alpha    90
_cell_angle_beta     90
_cell_angle_gamma    90

_symmetry_space_group_name_H-M    "P 1"
_symmetry_int_tables_number       1

loop_
  _symmetry_equiv_pos_as_xyz
  'x, y, z'

loop_
  _atom_site_label
  _atom_site_occupancy
  _atom_site_fract_x
  _atom_site_fract_y
  _atom_site_fract_z
  _atom_site_thermal_displace_type
  _atom_site_B_iso_or_equiv
  _atom_site_type_symbol
  Cl1      1.0000 0.55690  0.87905  0.15870  Biso   1.000  Cl
  Cl2      1.0000 0.94310  0.12095  0.65870  Biso   1.000  Cl
  Cl3      1.0000 0.44310  0.37905  0.34130  Biso   1.000  Cl
  Cl4      1.0000 0.05690  0.62095  0.84130  Biso   1.000  Cl
  O1       1.0000 0.73000  0.89610  0.12670  Biso   1.000  O
  O2       1.0000 0.77000  0.10390  0.62670  Biso   1.000  O
  O3       1.0000 0.27000  0.39610  0.37330  Biso   1.000  O
  O4       1.0000 0.23000  0.60390  0.87330  Biso   1.000  O
  O5       1.0000 0.56480  0.79480  0.21560  Biso   1.000  O
  O6       1.0000 0.93520  0.20520  0.71560  Biso   1.000  O
  O7       1.0000 0.43520  0.29480  0.28440  Biso   1.000  O
  O8       1.0000 0.06480  0.70520  0.78440  Biso   1.000  O
  O9       1.0000 0.43180  0.84790  0.10030  Biso   1.000  O
  O10      1.0000 0.06820  0.15210  0.60030  Biso   1.000  O
  O11      1.0000 0.56820  0.34790  0.39970  Biso   1.000  O
  O12      1.0000 0.93180  0.65210  0.89970  Biso   1.000  O
  O13      1.0000 0.49500  0.98020  0.19210  Biso   1.000  O
  O14      1.0000 0.00500  0.01980  0.69210  Biso   1.000  O
  O15      1.0000 0.50500  0.48020  0.30790  Biso   1.000  O
  O16      1.0000 0.99500  0.51980  0.80790  Biso   1.000  O
  Cu1      1.0000 0.78170  0.07271  0.01441  Biso   1.000  Cu
  Cu2      1.0000 0.71830  0.92729  0.51441  Biso   1.000  Cu
  Cu3      1.0000 0.21830  0.57271  0.48559  Biso   1.000  Cu
  Cu4      1.0000 0.28170  0.42729  0.98559  Biso   1.000  Cu
  N1       1.0000 0.52600  0.10700  0.00910  Biso   1.000  N
  N2       1.0000 0.97400  0.89300  0.50910  Biso   1.000  N
  N3       1.0000 0.47400  0.60700  0.49090  Biso   1.000  N
  N4       1.0000 0.02600  0.39300  0.99090  Biso   1.000  N
  N5       1.0000 0.45570  0.18950  0.03000  Biso   1.000  N
  N6       1.0000 0.04430  0.81050  0.53000  Biso   1.000  N
  N7       1.0000 0.54430  0.68950  0.47000  Biso   1.000  N
  N8       1.0000 0.95570  0.31050  0.97000  Biso   1.000  N
  N9       1.0000 0.37780  0.26690  0.05110  Biso   1.000  N
  N10      1.0000 0.12220  0.73310  0.55110  Biso   1.000  N
  N11      1.0000 0.62220  0.76690  0.44890  Biso   1.000  N
  N12      1.0000 0.87780  0.23310  0.94890  Biso   1.000  N
  N13      1.0000 0.85760  0.14480  0.11610  Biso   1.000  N
  N14      1.0000 0.64240  0.85520  0.61610  Biso   1.000  N
  N15      1.0000 0.14240  0.64480  0.38390  Biso   1.000  N
  N16      1.0000 0.35760  0.35520  0.88390  Biso   1.000  N
  C1       1.0000 0.77290  0.21500  0.16130  Biso   1.000  C
  C2       1.0000 0.72710  0.78500  0.66130  Biso   1.000  C
  C3       1.0000 0.22710  0.71500  0.33870  Biso   1.000  C
  C4       1.0000 0.27290  0.28500  0.83870  Biso   1.000  C
  H1       1.0000 0.65560  0.23530  0.14920  Biso   1.000  H
  H2       1.0000 0.84440  0.76470  0.64920  Biso   1.000  H
  H3       1.0000 0.34440  0.73530  0.35080  Biso   1.000  H
  H4       1.0000 0.15560  0.26470  0.85080  Biso   1.000  H
  C5       1.0000 0.85290  0.26000  0.22690  Biso   1.000  C
  C6       1.0000 0.64710  0.74000  0.72690  Biso   1.000  C
  C7       1.0000 0.14710  0.76000  0.27310  Biso   1.000  C
  C8       1.0000 0.35290  0.24000  0.77310  Biso   1.000  C
  H5       1.0000 0.78830  0.30850  0.25800  Biso   1.000  H
  H6       1.0000 0.71170  0.69150  0.75800  Biso   1.000  H
  H7       1.0000 0.21170  0.80850  0.24200  Biso   1.000  H
  H8       1.0000 0.28830  0.19150  0.74200  Biso   1.000  H
  C9       1.0000 0.02120  0.23350  0.24490  Biso   1.000  C
  C10      1.0000 0.47880  0.76650  0.74490  Biso   1.000  C
  C11      1.0000 0.97880  0.73350  0.25510  Biso   1.000  C
  C12      1.0000 0.52120  0.26650  0.75510  Biso   1.000  C
  H9       1.0000 0.07680  0.26510  0.28750  Biso   1.000  H
  H10      1.0000 0.42320  0.73490  0.78750  Biso   1.000  H
  H11      1.0000 0.92320  0.76510  0.21250  Biso   1.000  H
  H12      1.0000 0.57680  0.23490  0.71250  Biso   1.000  H
  C13      1.0000 0.11220  0.15840  0.19930  Biso   1.000  C
  C14      1.0000 0.38780  0.84160  0.69930  Biso   1.000  C
  C15      1.0000 0.88780  0.65840  0.30070  Biso   1.000  C
  C16      1.0000 0.61220  0.34160  0.80070  Biso   1.000  C
  H13      1.0000 0.22880  0.13690  0.21170  Biso   1.000  H
  H14      1.0000 0.27120  0.86310  0.71170  Biso   1.000  H
  H15      1.0000 0.77120  0.63690  0.28830  Biso   1.000  H
  H16      1.0000 0.72880  0.36310  0.78830  Biso   1.000  H
  C17      1.0000 0.02890  0.11580  0.13550  Biso   1.000  C
  C18      1.0000 0.47110  0.88420  0.63550  Biso   1.000  C
  C19      1.0000 0.97110  0.61580  0.36450  Biso   1.000  C
  C20      1.0000 0.52890  0.38420  0.86450  Biso   1.000  C
  C21      1.0000 0.11330  0.03830  0.08240  Biso   1.000  C
  C22      1.0000 0.38670  0.96170  0.58240  Biso   1.000  C
  C23      1.0000 0.88670  0.53830  0.41760  Biso   1.000  C
  C24      1.0000 0.61330  0.46170  0.91760  Biso   1.000  C
  H17      1.0000 0.22980  0.01260  0.09010  Biso   1.000  H
  H18      1.0000 0.27020  0.98740  0.59010  Biso   1.000  H
  H19      1.0000 0.77020  0.51260  0.40990  Biso   1.000  H
  H20      1.0000 0.72980  0.48740  0.90990  Biso   1.000  H
  N17      1.0000 0.02100  0.00780  0.02570  Biso   1.000  N
  N18      1.0000 0.47900  0.99220  0.52570  Biso   1.000  N
  N19      1.0000 0.97900  0.50780  0.47430  Biso   1.000  N
  N20      1.0000 0.52100  0.49220  0.97430  Biso   1.000  N
  C25      1.0000 0.07640  0.93060  0.96540  Biso   1.000  C
  C26      1.0000 0.42360  0.06940  0.46540  Biso   1.000  C
  C27      1.0000 0.92360  0.43060  0.53460  Biso   1.000  C
  C28      1.0000 0.57640  0.56940  0.03460  Biso   1.000  C
  H21      1.0000 0.05330  0.85470  0.98110  Biso   1.000  H
  H22      1.0000 0.44670  0.14530  0.48110  Biso   1.000  H
  H23      1.0000 0.94670  0.35470  0.51890  Biso   1.000  H
  H24      1.0000 0.55330  0.64530  0.01890  Biso   1.000  H
  H25      1.0000 0.20390  0.93850  0.95490  Biso   1.000  H
  H26      1.0000 0.29610  0.06150  0.45490  Biso   1.000  H
  H27      1.0000 0.79610  0.43850  0.54510  Biso   1.000  H
  H28      1.0000 0.70390  0.56150  0.04510  Biso   1.000  H
  C29      1.0000 0.96860  0.95870  0.89530  Biso   1.000  C
  C30      1.0000 0.53140  0.04130  0.39530  Biso   1.000  C
  C31      1.0000 0.03140  0.45870  0.60470  Biso   1.000  C
  C32      1.0000 0.46860  0.54130  0.10470  Biso   1.000  C
  H29      1.0000 0.01720  0.02500  0.87140  Biso   1.000  H
  H30      1.0000 0.48280  0.97500  0.37140  Biso   1.000  H
  H31      1.0000 0.98280  0.52500  0.62860  Biso   1.000  H
  H32      1.0000 0.51720  0.47500  0.12860  Biso   1.000  H
  H33      1.0000 0.97660  0.89840  0.85850  Biso   1.000  H
  H34      1.0000 0.52340  0.10160  0.35850  Biso   1.000  H
  H35      1.0000 0.02340  0.39840  0.64150  Biso   1.000  H
  H36      1.0000 0.47660  0.60160  0.14150  Biso   1.000  H
  N21      1.0000 0.77660  0.97770  0.91620  Biso   1.000  N
  N22      1.0000 0.72340  0.02230  0.41620  Biso   1.000  N
  N23      1.0000 0.22340  0.47770  0.58380  Biso   1.000  N
  N24      1.0000 0.27660  0.52230  0.08380  Biso   1.000  N
  C33      1.0000 0.68360  0.87150  0.93450  Biso   1.000  C
  C34      1.0000 0.81640  0.12850  0.43450  Biso   1.000  C
  C35      1.0000 0.31640  0.37150  0.56550  Biso   1.000  C
  C36      1.0000 0.18360  0.62850  0.06550  Biso   1.000  C
  H37      1.0000 0.74680  0.83420  0.97510  Biso   1.000  H
  H38      1.0000 0.75320  0.16580  0.47510  Biso   1.000  H
  H39      1.0000 0.25320  0.33420  0.52490  Biso   1.000  H
  H40      1.0000 0.24680  0.66580  0.02490  Biso   1.000  H
  H41      1.0000 0.68150  0.82520  0.88960  Biso   1.000  H
  H42      1.0000 0.81850  0.17480  0.38960  Biso   1.000  H
  H43      1.0000 0.31850  0.32520  0.61040  Biso   1.000  H
  H44      1.0000 0.18150  0.67480  0.11040  Biso   1.000  H
  H45      1.0000 0.56260  0.88680  0.95060  Biso   1.000  H
  H46      1.0000 0.93740  0.11320  0.45060  Biso   1.000  H
  H47      1.0000 0.43740  0.38680  0.54940  Biso   1.000  H
  H48      1.0000 0.06260  0.61320  0.04940  Biso   1.000  H
  C37      1.0000 0.68160  0.03170  0.85160  Biso   1.000  C
  C38      1.0000 0.81840  0.96830  0.35160  Biso   1.000  C
  C39      1.0000 0.31840  0.53170  0.64840  Biso   1.000  C
  C40      1.0000 0.18160  0.46830  0.14840  Biso   1.000  C
  H49      1.0000 0.68330  0.98360  0.80770  Biso   1.000  H
  H50      1.0000 0.81670  0.01640  0.30770  Biso   1.000  H
  H51      1.0000 0.31670  0.48360  0.69230  Biso   1.000  H
  H52      1.0000 0.18330  0.51640  0.19230  Biso   1.000  H
  H53      1.0000 0.74050  0.10030  0.83920  Biso   1.000  H
  H54      1.0000 0.75950  0.89970  0.33920  Biso   1.000  H
  H55      1.0000 0.25950  0.60030  0.66080  Biso   1.000  H
  H56      1.0000 0.24050  0.39970  0.16080  Biso   1.000  H
  H57      1.0000 0.55930  0.04640  0.86610  Biso   1.000  H
  H58      1.0000 0.94070  0.95360  0.36610  Biso   1.000  H
  H59      1.0000 0.44070  0.54640  0.63390  Biso   1.000  H
  H60      1.0000 0.05930  0.45360  0.13390  Biso   1.000  H
