data_image0
_cell_length_a       14.723
_cell_length_b       13.829
_cell_length_c       8.002
_cell_angle_alpha    90
_cell_angle_beta     90
_cell_angle_gamma    90

_symmetry_space_group_name_H-M    "P 1"
_symmetry_int_tables_number       1

loop_
  _symmetry_equiv_pos_as_xyz
  'x, y, z'

loop_
  _atom_site_label
  _atom_site_occupancy
  _atom_site_fract_x
  _atom_site_fract_y
  _atom_site_fract_z
  _atom_site_thermal_displace_type
  _atom_site_B_iso_or_equiv
  _atom_site_type_symbol
  Cu1      1.0000 0.53829  0.13730  0.12367  Biso   1.000  Cu
  Cu2      1.0000 0.46171  0.86270  0.62367  Biso   1.000  Cu
  Cu3      1.0000 0.96171  0.63730  0.62367  Biso   1.000  Cu
  Cu4      1.0000 0.03829  0.36270  0.12367  Biso   1.000  Cu
  N1       1.0000 0.47270  0.98910  0.18040  Biso   1.000  N
  N2       1.0000 0.52730  0.01090  0.68040  Biso   1.000  N
  N3       1.0000 0.02730  0.48910  0.68040  Biso   1.000  N
  N4       1.0000 0.97270  0.51090  0.18040  Biso   1.000  N
  N5       1.0000 0.44590  0.94550  0.29430  Biso   1.000  N
  N6       1.0000 0.55410  0.05450  0.79430  Biso   1.000  N
  N7       1.0000 0.05410  0.44550  0.79430  Biso   1.000  N
  N8       1.0000 0.94590  0.55450  0.29430  Biso   1.000  N
  N9       1.0000 0.41470  0.89730  0.40180  Biso   1.000  N
  N10      1.0000 0.58530  0.10270  0.90180  Biso   1.000  N
  N11      1.0000 0.08530  0.39730  0.90180  Biso   1.000  N
  N12      1.0000 0.91470  0.60270  0.40180  Biso   1.000  N
  C1       1.0000 0.72620  0.05160  0.18290  Biso   1.000  C
  C2       1.0000 0.27380  0.94840  0.68290  Biso   1.000  C
  C3       1.0000 0.77380  0.55160  0.68290  Biso   1.000  C
  C4       1.0000 0.22620  0.44840  0.18290  Biso   1.000  C
  H1       1.0000 0.72650  0.03470  0.07040  Biso   1.000  H
  H2       1.0000 0.27350  0.96530  0.57040  Biso   1.000  H
  H3       1.0000 0.77350  0.53470  0.57040  Biso   1.000  H
  H4       1.0000 0.22650  0.46530  0.07040  Biso   1.000  H
  C5       1.0000 0.79940  0.02570  0.28250  Biso   1.000  C
  C6       1.0000 0.20060  0.97430  0.78250  Biso   1.000  C
  C7       1.0000 0.70060  0.52570  0.78250  Biso   1.000  C
  C8       1.0000 0.29940  0.47430  0.28250  Biso   1.000  C
  H5       1.0000 0.84830  0.99220  0.23700  Biso   1.000  H
  H6       1.0000 0.15170  0.00780  0.73700  Biso   1.000  H
  H7       1.0000 0.65170  0.49220  0.73700  Biso   1.000  H
  H8       1.0000 0.34830  0.50780  0.23700  Biso   1.000  H
  C9       1.0000 0.79900  0.05000  0.45030  Biso   1.000  C
  C10      1.0000 0.20100  0.95000  0.95030  Biso   1.000  C
  C11      1.0000 0.70100  0.55000  0.95030  Biso   1.000  C
  C12      1.0000 0.29900  0.45000  0.45030  Biso   1.000  C
  H9       1.0000 0.84720  0.03270  0.51920  Biso   1.000  H
  H10      1.0000 0.15280  0.96730  0.01920  Biso   1.000  H
  H11      1.0000 0.65280  0.53270  0.01920  Biso   1.000  H
  H12      1.0000 0.34720  0.46730  0.51920  Biso   1.000  H
  C13      1.0000 0.72530  0.10090  0.51420  Biso   1.000  C
  C14      1.0000 0.27470  0.89910  0.01420  Biso   1.000  C
  C15      1.0000 0.77470  0.60090  0.01420  Biso   1.000  C
  C16      1.0000 0.22530  0.39910  0.51420  Biso   1.000  C
  H13      1.0000 0.72320  0.11840  0.62630  Biso   1.000  H
  H14      1.0000 0.27680  0.88160  0.12630  Biso   1.000  H
  H15      1.0000 0.77680  0.61840  0.12630  Biso   1.000  H
  H16      1.0000 0.22320  0.38160  0.62630  Biso   1.000  H
  C17      1.0000 0.65490  0.12490  0.40690  Biso   1.000  C
  C18      1.0000 0.34510  0.87510  0.90690  Biso   1.000  C
  C19      1.0000 0.84510  0.62490  0.90690  Biso   1.000  C
  C20      1.0000 0.15490  0.37510  0.40690  Biso   1.000  C
  C21      1.0000 0.57150  0.17560  0.45930  Biso   1.000  C
  C22      1.0000 0.42850  0.82440  0.95930  Biso   1.000  C
  C23      1.0000 0.92850  0.67560  0.95930  Biso   1.000  C
  C24      1.0000 0.07150  0.32440  0.45930  Biso   1.000  C
  H17      1.0000 0.56430  0.19980  0.56690  Biso   1.000  H
  H18      1.0000 0.43570  0.80020  0.06690  Biso   1.000  H
  H19      1.0000 0.93570  0.69980  0.06690  Biso   1.000  H
  H20      1.0000 0.06430  0.30020  0.56690  Biso   1.000  H
  N13      1.0000 0.65510  0.10010  0.24440  Biso   1.000  N
  N14      1.0000 0.34490  0.89990  0.74440  Biso   1.000  N
  N15      1.0000 0.84490  0.60010  0.74440  Biso   1.000  N
  N16      1.0000 0.15510  0.39990  0.24440  Biso   1.000  N
  C25      1.0000 0.42190  0.23040  0.37220  Biso   1.000  C
  C26      1.0000 0.57810  0.76960  0.87220  Biso   1.000  C
  C27      1.0000 0.07810  0.73040  0.87220  Biso   1.000  C
  C28      1.0000 0.92190  0.26960  0.37220  Biso   1.000  C
  H21      1.0000 0.42880  0.29990  0.38180  Biso   1.000  H
  H22      1.0000 0.57120  0.70010  0.88180  Biso   1.000  H
  H23      1.0000 0.07120  0.79990  0.88180  Biso   1.000  H
  H24      1.0000 0.92880  0.20010  0.38180  Biso   1.000  H
  H25      1.0000 0.39280  0.20640  0.47270  Biso   1.000  H
  H26      1.0000 0.60720  0.79360  0.97270  Biso   1.000  H
  H27      1.0000 0.10720  0.70640  0.97270  Biso   1.000  H
  H28      1.0000 0.89280  0.29360  0.47270  Biso   1.000  H
  N17      1.0000 0.51023  0.18425  0.34910  Biso   1.000  N
  N18      1.0000 0.48977  0.81575  0.84910  Biso   1.000  N
  N19      1.0000 0.98977  0.68425  0.84910  Biso   1.000  N
  N20      1.0000 0.01023  0.31575  0.34910  Biso   1.000  N
  C29      1.0000 0.36570  0.20500  0.21840  Biso   1.000  C
  C30      1.0000 0.63430  0.79500  0.71840  Biso   1.000  C
  C31      1.0000 0.13430  0.70500  0.71840  Biso   1.000  C
  C32      1.0000 0.86570  0.29500  0.21840  Biso   1.000  C
  H29      1.0000 0.34250  0.13960  0.22930  Biso   1.000  H
  H30      1.0000 0.65750  0.86040  0.72930  Biso   1.000  H
  H31      1.0000 0.15750  0.63960  0.72930  Biso   1.000  H
  H32      1.0000 0.84250  0.36040  0.22930  Biso   1.000  H
  H33      1.0000 0.31420  0.24850  0.21070  Biso   1.000  H
  H34      1.0000 0.68580  0.75150  0.71070  Biso   1.000  H
  H35      1.0000 0.18580  0.74850  0.71070  Biso   1.000  H
  H36      1.0000 0.81420  0.25150  0.21070  Biso   1.000  H
  N21      1.0000 0.42160  0.21260  0.06240  Biso   1.000  N
  N22      1.0000 0.57840  0.78740  0.56240  Biso   1.000  N
  N23      1.0000 0.07840  0.71260  0.56240  Biso   1.000  N
  N24      1.0000 0.92160  0.28740  0.06240  Biso   1.000  N
  C33      1.0000 0.37110  0.16710  0.92010  Biso   1.000  C
  C34      1.0000 0.62890  0.83290  0.42010  Biso   1.000  C
  C35      1.0000 0.12890  0.66710  0.42010  Biso   1.000  C
  C36      1.0000 0.87110  0.33290  0.92010  Biso   1.000  C
  H37      1.0000 0.35900  0.10010  0.94830  Biso   1.000  H
  H38      1.0000 0.64100  0.89990  0.44830  Biso   1.000  H
  H39      1.0000 0.14100  0.60010  0.44830  Biso   1.000  H
  H40      1.0000 0.85900  0.39990  0.94830  Biso   1.000  H
  H41      1.0000 0.41020  0.16730  0.82260  Biso   1.000  H
  H42      1.0000 0.58980  0.83270  0.32260  Biso   1.000  H
  H43      1.0000 0.08980  0.66730  0.32260  Biso   1.000  H
  H44      1.0000 0.91020  0.33270  0.82260  Biso   1.000  H
  C37      1.0000 0.28170  0.21510  0.87340  Biso   1.000  C
  C38      1.0000 0.71830  0.78490  0.37340  Biso   1.000  C
  C39      1.0000 0.21830  0.71510  0.37340  Biso   1.000  C
  C40      1.0000 0.78170  0.28490  0.87340  Biso   1.000  C
  H45      1.0000 0.24010  0.21020  0.96540  Biso   1.000  H
  H46      1.0000 0.75990  0.78980  0.46540  Biso   1.000  H
  H47      1.0000 0.25990  0.71020  0.46540  Biso   1.000  H
  H48      1.0000 0.74010  0.28980  0.96540  Biso   1.000  H
  H49      1.0000 0.25640  0.18340  0.77740  Biso   1.000  H
  H50      1.0000 0.74360  0.81660  0.27740  Biso   1.000  H
  H51      1.0000 0.24360  0.68340  0.27740  Biso   1.000  H
  H52      1.0000 0.75640  0.31660  0.77740  Biso   1.000  H
  H53      1.0000 0.29230  0.28200  0.84800  Biso   1.000  H
  H54      1.0000 0.70770  0.71800  0.34800  Biso   1.000  H
  H55      1.0000 0.20770  0.78200  0.34800  Biso   1.000  H
  H56      1.0000 0.79230  0.21800  0.84800  Biso   1.000  H
  C41      1.0000 0.44360  0.31650  0.02780  Biso   1.000  C
  C42      1.0000 0.55640  0.68350  0.52780  Biso   1.000  C
  C43      1.0000 0.05640  0.81650  0.52780  Biso   1.000  C
  C44      1.0000 0.94360  0.18350  0.02780  Biso   1.000  C
  H57      1.0000 0.47650  0.34240  0.12290  Biso   1.000  H
  H58      1.0000 0.52350  0.65760  0.62290  Biso   1.000  H
  H59      1.0000 0.02350  0.84240  0.62290  Biso   1.000  H
  H60      1.0000 0.97650  0.15760  0.12290  Biso   1.000  H
  H61      1.0000 0.38720  0.35220  0.01820  Biso   1.000  H
  H62      1.0000 0.61280  0.64780  0.51820  Biso   1.000  H
  H63      1.0000 0.11280  0.85220  0.51820  Biso   1.000  H
  H64      1.0000 0.88720  0.14780  0.01820  Biso   1.000  H
  C45      1.0000 0.49930  0.33390  0.87190  Biso   1.000  C
  C46      1.0000 0.50070  0.66610  0.37190  Biso   1.000  C
  C47      1.0000 0.00070  0.83390  0.37190  Biso   1.000  C
  C48      1.0000 0.99930  0.16610  0.87190  Biso   1.000  C
  H65      1.0000 0.55240  0.29370  0.87410  Biso   1.000  H
  H66      1.0000 0.44760  0.70630  0.37410  Biso   1.000  H
  H67      1.0000 0.94760  0.79370  0.37410  Biso   1.000  H
  H68      1.0000 0.05240  0.20630  0.87410  Biso   1.000  H
  H69      1.0000 0.51730  0.40060  0.86740  Biso   1.000  H
  H70      1.0000 0.48270  0.59940  0.36740  Biso   1.000  H
  H71      1.0000 0.98270  0.90060  0.36740  Biso   1.000  H
  H72      1.0000 0.01730  0.09940  0.86740  Biso   1.000  H
  H73      1.0000 0.46360  0.31860  0.77510  Biso   1.000  H
  H74      1.0000 0.53640  0.68140  0.27510  Biso   1.000  H
  H75      1.0000 0.03640  0.81860  0.27510  Biso   1.000  H
  H76      1.0000 0.96360  0.18140  0.77510  Biso   1.000  H
  Cl1      1.0000 0.64424  0.40612  0.36338  Biso   1.000  Cl
  Cl2      1.0000 0.35576  0.59388  0.86338  Biso   1.000  Cl
  Cl3      1.0000 0.85576  0.90612  0.86338  Biso   1.000  Cl
  Cl4      1.0000 0.14424  0.09388  0.36338  Biso   1.000  Cl
  O1       1.0000 0.63845  0.35380  0.20770  Biso   1.000  O
  O2       1.0000 0.36155  0.64620  0.70770  Biso   1.000  O
  O3       1.0000 0.86155  0.85380  0.70770  Biso   1.000  O
  O4       1.0000 0.13845  0.14620  0.20770  Biso   1.000  O
  O5       1.0000 0.70150  0.35330  0.47740  Biso   1.000  O
  O6       1.0000 0.29850  0.64670  0.97740  Biso   1.000  O
  O7       1.0000 0.79850  0.85330  0.97740  Biso   1.000  O
  O8       1.0000 0.20150  0.14670  0.47740  Biso   1.000  O
  O9       1.0000 0.68270  0.50010  0.33400  Biso   1.000  O
  O10      1.0000 0.31730  0.49990  0.83400  Biso   1.000  O
  O11      1.0000 0.81730  0.00010  0.83400  Biso   1.000  O
  O12      1.0000 0.18270  0.99990  0.33400  Biso   1.000  O
  O13      1.0000 0.55550  0.41750  0.43520  Biso   1.000  O
  O14      1.0000 0.44450  0.58250  0.93520  Biso   1.000  O
  O15      1.0000 0.94450  0.91750  0.93520  Biso   1.000  O
  O16      1.0000 0.05550  0.08250  0.43520  Biso   1.000  O
