data_image0
_cell_length_a       14.69
_cell_length_b       14.12
_cell_length_c       8.041
_cell_angle_alpha    90
_cell_angle_beta     90
_cell_angle_gamma    90

_symmetry_space_group_name_H-M    "P 1"
_symmetry_int_tables_number       1

loop_
  _symmetry_equiv_pos_as_xyz
  'x, y, z'

loop_
  _atom_site_label
  _atom_site_occupancy
  _atom_site_fract_x
  _atom_site_fract_y
  _atom_site_fract_z
  _atom_site_thermal_displace_type
  _atom_site_B_iso_or_equiv
  _atom_site_type_symbol
  Cu1      1.0000 0.96131  0.63513  0.60164  Biso   1.000  Cu
  Cu2      1.0000 0.03869  0.36487  0.10164  Biso   1.000  Cu
  Cu3      1.0000 0.46131  0.86487  0.60164  Biso   1.000  Cu
  Cu4      1.0000 0.53869  0.13513  0.10164  Biso   1.000  Cu
  Cl1      1.0000 0.85924  0.90757  0.36040  Biso   1.000  Cl
  Cl2      1.0000 0.14076  0.09243  0.86040  Biso   1.000  Cl
  Cl3      1.0000 0.35924  0.59243  0.36040  Biso   1.000  Cl
  Cl4      1.0000 0.64076  0.40757  0.86040  Biso   1.000  Cl
  O1       1.0000 0.80480  0.85630  0.24580  Biso   1.000  O
  O2       1.0000 0.19520  0.14370  0.74580  Biso   1.000  O
  O3       1.0000 0.30480  0.64370  0.24580  Biso   1.000  O
  O4       1.0000 0.69520  0.35630  0.74580  Biso   1.000  O
  O5       1.0000 0.86240  0.85500  0.51120  Biso   1.000  O
  O6       1.0000 0.13760  0.14500  0.01120  Biso   1.000  O
  O7       1.0000 0.36240  0.64500  0.51120  Biso   1.000  O
  O8       1.0000 0.63760  0.35500  0.01120  Biso   1.000  O
  O9       1.0000 0.94760  0.92040  0.29640  Biso   1.000  O
  O10      1.0000 0.05240  0.07960  0.79640  Biso   1.000  O
  O11      1.0000 0.44760  0.57960  0.29640  Biso   1.000  O
  O12      1.0000 0.55240  0.42040  0.79640  Biso   1.000  O
  O13      1.0000 0.81900  0.99780  0.38900  Biso   1.000  O
  O14      1.0000 0.18100  0.00220  0.88900  Biso   1.000  O
  O15      1.0000 0.31900  0.50220  0.38900  Biso   1.000  O
  O16      1.0000 0.68100  0.49780  0.88900  Biso   1.000  O
  N1       1.0000 0.84340  0.60050  0.48100  Biso   1.000  N
  N2       1.0000 0.15660  0.39950  0.98100  Biso   1.000  N
  N3       1.0000 0.34340  0.89950  0.48100  Biso   1.000  N
  N4       1.0000 0.65660  0.10050  0.98100  Biso   1.000  N
  N5       1.0000 0.98922  0.68210  0.37800  Biso   1.000  N
  N6       1.0000 0.01078  0.31790  0.87800  Biso   1.000  N
  N7       1.0000 0.48922  0.81790  0.37800  Biso   1.000  N
  N8       1.0000 0.51078  0.18210  0.87800  Biso   1.000  N
  N9       1.0000 0.07860  0.70850  0.66370  Biso   1.000  N
  N10      1.0000 0.92140  0.29150  0.16370  Biso   1.000  N
  N11      1.0000 0.57860  0.79150  0.66370  Biso   1.000  N
  N12      1.0000 0.42140  0.20850  0.16370  Biso   1.000  N
  N13      1.0000 0.91400  0.59990  0.82080  Biso   1.000  N
  N14      1.0000 0.08600  0.40010  0.32080  Biso   1.000  N
  N15      1.0000 0.41400  0.90010  0.82080  Biso   1.000  N
  N16      1.0000 0.58600  0.09990  0.32080  Biso   1.000  N
  N17      1.0000 0.94540  0.55240  0.92770  Biso   1.000  N
  N18      1.0000 0.05460  0.44760  0.42770  Biso   1.000  N
  N19      1.0000 0.44540  0.94760  0.92770  Biso   1.000  N
  N20      1.0000 0.55460  0.05240  0.42770  Biso   1.000  N
  N21      1.0000 0.97180  0.51020  0.04200  Biso   1.000  N
  N22      1.0000 0.02820  0.48980  0.54200  Biso   1.000  N
  N23      1.0000 0.47180  0.98980  0.04200  Biso   1.000  N
  N24      1.0000 0.52820  0.01020  0.54200  Biso   1.000  N
  C1       1.0000 0.84470  0.62510  0.31810  Biso   1.000  C
  C2       1.0000 0.15530  0.37490  0.81810  Biso   1.000  C
  C3       1.0000 0.34470  0.87490  0.31810  Biso   1.000  C
  C4       1.0000 0.65530  0.12510  0.81810  Biso   1.000  C
  C5       1.0000 0.77410  0.60320  0.21130  Biso   1.000  C
  C6       1.0000 0.22590  0.39680  0.71130  Biso   1.000  C
  C7       1.0000 0.27410  0.89680  0.21130  Biso   1.000  C
  C8       1.0000 0.72590  0.10320  0.71130  Biso   1.000  C
  H1       1.0000 0.77680  0.62030  0.09970  Biso   1.000  H
  H2       1.0000 0.22320  0.37970  0.59970  Biso   1.000  H
  H3       1.0000 0.27680  0.87970  0.09970  Biso   1.000  H
  H4       1.0000 0.72320  0.12030  0.59970  Biso   1.000  H
  C9       1.0000 0.69920  0.55530  0.27360  Biso   1.000  C
  C10      1.0000 0.30080  0.44470  0.77360  Biso   1.000  C
  C11      1.0000 0.19920  0.94470  0.27360  Biso   1.000  C
  C12      1.0000 0.80080  0.05530  0.77360  Biso   1.000  C
  H5       1.0000 0.65020  0.54060  0.20510  Biso   1.000  H
  H6       1.0000 0.34980  0.45940  0.70510  Biso   1.000  H
  H7       1.0000 0.15020  0.95940  0.20510  Biso   1.000  H
  H8       1.0000 0.84980  0.04060  0.70510  Biso   1.000  H
  C13      1.0000 0.69870  0.52970  0.43940  Biso   1.000  C
  C14      1.0000 0.30130  0.47030  0.93940  Biso   1.000  C
  C15      1.0000 0.19870  0.97030  0.43940  Biso   1.000  C
  C16      1.0000 0.80130  0.02970  0.93940  Biso   1.000  C
  H9       1.0000 0.64970  0.49630  0.48310  Biso   1.000  H
  H10      1.0000 0.35030  0.50370  0.98310  Biso   1.000  H
  H11      1.0000 0.14970  0.00370  0.48310  Biso   1.000  H
  H12      1.0000 0.85030  0.99630  0.98310  Biso   1.000  H
  C17      1.0000 0.77100  0.55410  0.53950  Biso   1.000  C
  C18      1.0000 0.22900  0.44590  0.03950  Biso   1.000  C
  C19      1.0000 0.27100  0.94590  0.53950  Biso   1.000  C
  C20      1.0000 0.72900  0.05410  0.03950  Biso   1.000  C
  H13      1.0000 0.76940  0.53780  0.65150  Biso   1.000  H
  H14      1.0000 0.23060  0.46220  0.15150  Biso   1.000  H
  H15      1.0000 0.26940  0.96220  0.65150  Biso   1.000  H
  H16      1.0000 0.73060  0.03780  0.15150  Biso   1.000  H
  C21      1.0000 0.92850  0.67380  0.26800  Biso   1.000  C
  C22      1.0000 0.07150  0.32620  0.76800  Biso   1.000  C
  C23      1.0000 0.42850  0.82620  0.26800  Biso   1.000  C
  C24      1.0000 0.57150  0.17380  0.76800  Biso   1.000  C
  H17      1.0000 0.93640  0.69720  0.16090  Biso   1.000  H
  H18      1.0000 0.06360  0.30280  0.66090  Biso   1.000  H
  H19      1.0000 0.43640  0.80280  0.16090  Biso   1.000  H
  H20      1.0000 0.56360  0.19720  0.66090  Biso   1.000  H
  C25      1.0000 0.07790  0.72850  0.35560  Biso   1.000  C
  C26      1.0000 0.92210  0.27150  0.85560  Biso   1.000  C
  C27      1.0000 0.57790  0.77150  0.35560  Biso   1.000  C
  C28      1.0000 0.42210  0.22850  0.85560  Biso   1.000  C
  H21      1.0000 0.07060  0.79660  0.34850  Biso   1.000  H
  H22      1.0000 0.92940  0.20340  0.84850  Biso   1.000  H
  H23      1.0000 0.57060  0.70340  0.34850  Biso   1.000  H
  H24      1.0000 0.42940  0.29660  0.84850  Biso   1.000  H
  H25      1.0000 0.10720  0.70620  0.25470  Biso   1.000  H
  H26      1.0000 0.89280  0.29380  0.75470  Biso   1.000  H
  H27      1.0000 0.60720  0.79380  0.25470  Biso   1.000  H
  H28      1.0000 0.39280  0.20620  0.75470  Biso   1.000  H
  C29      1.0000 0.13450  0.70180  0.50840  Biso   1.000  C
  C30      1.0000 0.86550  0.29820  0.00840  Biso   1.000  C
  C31      1.0000 0.63450  0.79820  0.50840  Biso   1.000  C
  C32      1.0000 0.36550  0.20180  0.00840  Biso   1.000  C
  H29      1.0000 0.15720  0.63770  0.49590  Biso   1.000  H
  H30      1.0000 0.84280  0.36230  0.99590  Biso   1.000  H
  H31      1.0000 0.65720  0.86230  0.49590  Biso   1.000  H
  H32      1.0000 0.34280  0.13770  0.99590  Biso   1.000  H
  H33      1.0000 0.18640  0.74400  0.51700  Biso   1.000  H
  H34      1.0000 0.81360  0.25600  0.01700  Biso   1.000  H
  H35      1.0000 0.68640  0.75600  0.51700  Biso   1.000  H
  H36      1.0000 0.31360  0.24400  0.01700  Biso   1.000  H
  C33      1.0000 0.05620  0.81020  0.70070  Biso   1.000  C
  C34      1.0000 0.94380  0.18980  0.20070  Biso   1.000  C
  C35      1.0000 0.55620  0.68980  0.70070  Biso   1.000  C
  C36      1.0000 0.44380  0.31020  0.20070  Biso   1.000  C
  H37      1.0000 0.02380  0.83640  0.60610  Biso   1.000  H
  H38      1.0000 0.97620  0.16360  0.10610  Biso   1.000  H
  H39      1.0000 0.52380  0.66360  0.60610  Biso   1.000  H
  H40      1.0000 0.47620  0.33640  0.10610  Biso   1.000  H
  H41      1.0000 0.11270  0.84510  0.71210  Biso   1.000  H
  H42      1.0000 0.88730  0.15490  0.21210  Biso   1.000  H
  H43      1.0000 0.61270  0.65490  0.71210  Biso   1.000  H
  H44      1.0000 0.38730  0.34510  0.21210  Biso   1.000  H
  C37      1.0000 0.99960  0.82660  0.85480  Biso   1.000  C
  C38      1.0000 0.00040  0.17340  0.35480  Biso   1.000  C
  C39      1.0000 0.49960  0.67340  0.85480  Biso   1.000  C
  C40      1.0000 0.50040  0.32660  0.35480  Biso   1.000  C
  H45      1.0000 0.94710  0.78610  0.85230  Biso   1.000  H
  H46      1.0000 0.05290  0.21390  0.35230  Biso   1.000  H
  H47      1.0000 0.44710  0.71390  0.85230  Biso   1.000  H
  H48      1.0000 0.55290  0.28610  0.35230  Biso   1.000  H
  H49      1.0000 0.98030  0.89160  0.85840  Biso   1.000  H
  H50      1.0000 0.01970  0.10840  0.35840  Biso   1.000  H
  H51      1.0000 0.48030  0.60840  0.85840  Biso   1.000  H
  H52      1.0000 0.51970  0.39160  0.35840  Biso   1.000  H
  H53      1.0000 0.03530  0.81260  0.95170  Biso   1.000  H
  H54      1.0000 0.96470  0.18740  0.45170  Biso   1.000  H
  H55      1.0000 0.53530  0.68740  0.95170  Biso   1.000  H
  H56      1.0000 0.46470  0.31260  0.45170  Biso   1.000  H
  C41      1.0000 0.12940  0.66410  0.80430  Biso   1.000  C
  C42      1.0000 0.87060  0.33590  0.30430  Biso   1.000  C
  C43      1.0000 0.62940  0.83590  0.80430  Biso   1.000  C
  C44      1.0000 0.37060  0.16410  0.30430  Biso   1.000  C
  H57      1.0000 0.14100  0.59840  0.77650  Biso   1.000  H
  H58      1.0000 0.85900  0.40160  0.27650  Biso   1.000  H
  H59      1.0000 0.64100  0.90160  0.77650  Biso   1.000  H
  H60      1.0000 0.35900  0.09840  0.27650  Biso   1.000  H
  H61      1.0000 0.09060  0.66480  0.90190  Biso   1.000  H
  H62      1.0000 0.90940  0.33520  0.40190  Biso   1.000  H
  H63      1.0000 0.59060  0.83520  0.90190  Biso   1.000  H
  H64      1.0000 0.40940  0.16480  0.40190  Biso   1.000  H
  C45      1.0000 0.21920  0.71010  0.84960  Biso   1.000  C
  C46      1.0000 0.78080  0.28990  0.34960  Biso   1.000  C
  C47      1.0000 0.71920  0.78990  0.84960  Biso   1.000  C
  C48      1.0000 0.28080  0.21010  0.34960  Biso   1.000  C
  H65      1.0000 0.25970  0.70720  0.75600  Biso   1.000  H
  H66      1.0000 0.74030  0.29280  0.25600  Biso   1.000  H
  H67      1.0000 0.75970  0.79280  0.75600  Biso   1.000  H
  H68      1.0000 0.24030  0.20720  0.25600  Biso   1.000  H
  H69      1.0000 0.24590  0.67720  0.94200  Biso   1.000  H
  H70      1.0000 0.75410  0.32280  0.44200  Biso   1.000  H
  H71      1.0000 0.74590  0.82280  0.94200  Biso   1.000  H
  H72      1.0000 0.25410  0.17720  0.44200  Biso   1.000  H
  H73      1.0000 0.20900  0.77510  0.87940  Biso   1.000  H
  H74      1.0000 0.79100  0.22490  0.37940  Biso   1.000  H
  H75      1.0000 0.70900  0.72490  0.87940  Biso   1.000  H
  H76      1.0000 0.29100  0.27510  0.37940  Biso   1.000  H
