data_image0
_cell_length_a       13.8375
_cell_length_b       14.804
_cell_length_c       8.05
_cell_angle_alpha    90
_cell_angle_beta     90
_cell_angle_gamma    90

_symmetry_space_group_name_H-M    "P 1"
_symmetry_int_tables_number       1

loop_
  _symmetry_equiv_pos_as_xyz
  'x, y, z'

loop_
  _atom_site_label
  _atom_site_occupancy
  _atom_site_fract_x
  _atom_site_fract_y
  _atom_site_fract_z
  _atom_site_thermal_displace_type
  _atom_site_B_iso_or_equiv
  _atom_site_type_symbol
  Cu1      1.0000 0.95608  0.12184  0.33033  Biso   1.000  Cu
  Cu2      1.0000 0.04392  0.87816  0.83033  Biso   1.000  Cu
  Cu3      1.0000 0.45608  0.37816  0.33033  Biso   1.000  Cu
  Cu4      1.0000 0.54392  0.62184  0.83033  Biso   1.000  Cu
  N1       1.0000 0.03770  0.99250  0.27330  Biso   1.000  N
  N2       1.0000 0.96230  0.00750  0.77330  Biso   1.000  N
  N3       1.0000 0.53770  0.50750  0.27330  Biso   1.000  N
  N4       1.0000 0.46230  0.49250  0.77330  Biso   1.000  N
  N5       1.0000 0.06470  0.95290  0.16030  Biso   1.000  N
  N6       1.0000 0.93530  0.04710  0.66030  Biso   1.000  N
  N7       1.0000 0.56470  0.54710  0.16030  Biso   1.000  N
  N8       1.0000 0.43530  0.45290  0.66030  Biso   1.000  N
  N9       1.0000 0.09570  0.90840  0.04890  Biso   1.000  N
  N10      1.0000 0.90430  0.09160  0.54890  Biso   1.000  N
  N11      1.0000 0.59570  0.59160  0.04890  Biso   1.000  N
  N12      1.0000 0.40430  0.40840  0.54890  Biso   1.000  N
  N13      1.0000 0.83350  0.08510  0.20950  Biso   1.000  N
  N14      1.0000 0.16650  0.91490  0.70950  Biso   1.000  N
  N15      1.0000 0.33350  0.41490  0.20950  Biso   1.000  N
  N16      1.0000 0.66650  0.58510  0.70950  Biso   1.000  N
  N17      1.0000 0.07000  0.20270  0.40300  Biso   1.000  N
  N18      1.0000 0.93000  0.79730  0.90300  Biso   1.000  N
  N19      1.0000 0.57000  0.29730  0.40300  Biso   1.000  N
  N20      1.0000 0.43000  0.70270  0.90300  Biso   1.000  N
  N21      1.0000 0.98440  0.17030  0.11190  Biso   1.000  N
  N22      1.0000 0.01560  0.82970  0.61190  Biso   1.000  N
  N23      1.0000 0.48440  0.32970  0.11190  Biso   1.000  N
  N24      1.0000 0.51560  0.67030  0.61190  Biso   1.000  N
  C1       1.0000 0.75870  0.03720  0.26940  Biso   1.000  C
  C2       1.0000 0.24130  0.96280  0.76940  Biso   1.000  C
  C3       1.0000 0.25870  0.46280  0.26940  Biso   1.000  C
  C4       1.0000 0.74130  0.53720  0.76940  Biso   1.000  C
  H1       1.0000 0.75920  0.01750  0.37910  Biso   1.000  H
  H2       1.0000 0.24080  0.98250  0.87910  Biso   1.000  H
  H3       1.0000 0.25920  0.48250  0.37910  Biso   1.000  H
  H4       1.0000 0.74080  0.51750  0.87910  Biso   1.000  H
  C5       1.0000 0.67950  0.01710  0.16580  Biso   1.000  C
  C6       1.0000 0.32050  0.98290  0.66580  Biso   1.000  C
  C7       1.0000 0.17950  0.48290  0.16580  Biso   1.000  C
  C8       1.0000 0.82050  0.51710  0.66580  Biso   1.000  C
  H5       1.0000 0.62790  0.98370  0.20740  Biso   1.000  H
  H6       1.0000 0.37210  0.01630  0.70740  Biso   1.000  H
  H7       1.0000 0.12790  0.51630  0.20740  Biso   1.000  H
  H8       1.0000 0.87210  0.48370  0.70740  Biso   1.000  H
  C9       1.0000 0.67790  0.04620  0.00470  Biso   1.000  C
  C10      1.0000 0.32210  0.95380  0.50470  Biso   1.000  C
  C11      1.0000 0.17790  0.45380  0.00470  Biso   1.000  C
  C12      1.0000 0.82210  0.54620  0.50470  Biso   1.000  C
  H9       1.0000 0.62520  0.03410  0.93660  Biso   1.000  H
  H10      1.0000 0.37480  0.96590  0.43660  Biso   1.000  H
  H11      1.0000 0.12520  0.46590  0.93660  Biso   1.000  H
  H12      1.0000 0.87480  0.53410  0.43660  Biso   1.000  H
  C13      1.0000 0.75710  0.09440  0.94500  Biso   1.000  C
  C14      1.0000 0.24290  0.90560  0.44500  Biso   1.000  C
  C15      1.0000 0.25710  0.40560  0.94500  Biso   1.000  C
  C16      1.0000 0.74290  0.59440  0.44500  Biso   1.000  C
  H13      1.0000 0.75860  0.11400  0.83530  Biso   1.000  H
  H14      1.0000 0.24140  0.88600  0.33530  Biso   1.000  H
  H15      1.0000 0.25860  0.38600  0.83530  Biso   1.000  H
  H16      1.0000 0.74140  0.61400  0.33530  Biso   1.000  H
  C17      1.0000 0.83230  0.11240  0.04870  Biso   1.000  C
  C18      1.0000 0.16770  0.88760  0.54870  Biso   1.000  C
  C19      1.0000 0.33230  0.38760  0.04870  Biso   1.000  C
  C20      1.0000 0.66770  0.61240  0.54870  Biso   1.000  C
  C21      1.0000 0.92130  0.16290  0.00090  Biso   1.000  C
  C22      1.0000 0.07870  0.83710  0.50090  Biso   1.000  C
  C23      1.0000 0.42130  0.33710  0.00090  Biso   1.000  C
  C24      1.0000 0.57870  0.66290  0.50090  Biso   1.000  C
  H17      1.0000 0.92950  0.18730  0.89540  Biso   1.000  H
  H18      1.0000 0.07050  0.81270  0.39540  Biso   1.000  H
  H19      1.0000 0.42950  0.31270  0.89540  Biso   1.000  H
  H20      1.0000 0.57050  0.68730  0.39540  Biso   1.000  H
  C25      1.0000 0.02650  0.27310  0.52240  Biso   1.000  C
  C26      1.0000 0.97350  0.72690  0.02240  Biso   1.000  C
  C27      1.0000 0.52650  0.22690  0.52240  Biso   1.000  C
  C28      1.0000 0.47350  0.77310  0.02240  Biso   1.000  C
  H21      1.0000 0.98610  0.31410  0.45890  Biso   1.000  H
  H22      1.0000 0.01390  0.68590  0.95890  Biso   1.000  H
  H23      1.0000 0.48610  0.18590  0.45890  Biso   1.000  H
  H24      1.0000 0.51390  0.81410  0.95890  Biso   1.000  H
  H25      1.0000 0.98520  0.24210  0.60140  Biso   1.000  H
  H26      1.0000 0.01480  0.75790  0.10140  Biso   1.000  H
  H27      1.0000 0.48520  0.25790  0.60140  Biso   1.000  H
  H28      1.0000 0.51480  0.74210  0.10140  Biso   1.000  H
  C29      1.0000 0.09620  0.32530  0.61300  Biso   1.000  C
  C30      1.0000 0.90380  0.67470  0.11300  Biso   1.000  C
  C31      1.0000 0.59620  0.17470  0.61300  Biso   1.000  C
  C32      1.0000 0.40380  0.82530  0.11300  Biso   1.000  C
  H29      1.0000 0.13220  0.36280  0.53570  Biso   1.000  H
  H30      1.0000 0.86780  0.63720  0.03570  Biso   1.000  H
  H31      1.0000 0.63220  0.13720  0.53570  Biso   1.000  H
  H32      1.0000 0.36780  0.86280  0.03570  Biso   1.000  H
  H33      1.0000 0.06290  0.36490  0.68990  Biso   1.000  H
  H34      1.0000 0.93710  0.63510  0.18990  Biso   1.000  H
  H35      1.0000 0.56290  0.13510  0.68990  Biso   1.000  H
  H36      1.0000 0.43710  0.86490  0.18990  Biso   1.000  H
  O1       1.0000 0.15930  0.27140  0.69890  Biso   1.000  O
  O2       1.0000 0.84070  0.72860  0.19890  Biso   1.000  O
  O3       1.0000 0.65930  0.22860  0.69890  Biso   1.000  O
  O4       1.0000 0.34070  0.77140  0.19890  Biso   1.000  O
  C33      1.0000 0.21200  0.21100  0.58800  Biso   1.000  C
  C34      1.0000 0.78800  0.78900  0.08800  Biso   1.000  C
  C35      1.0000 0.71200  0.28900  0.58800  Biso   1.000  C
  C36      1.0000 0.28800  0.71100  0.08800  Biso   1.000  C
  H37      1.0000 0.25080  0.24630  0.51150  Biso   1.000  H
  H38      1.0000 0.74920  0.75370  0.01150  Biso   1.000  H
  H39      1.0000 0.75080  0.25370  0.51150  Biso   1.000  H
  H40      1.0000 0.24920  0.74630  0.01150  Biso   1.000  H
  H41      1.0000 0.25510  0.17300  0.65250  Biso   1.000  H
  H42      1.0000 0.74490  0.82700  0.15250  Biso   1.000  H
  H43      1.0000 0.75510  0.32700  0.65250  Biso   1.000  H
  H44      1.0000 0.24490  0.67300  0.15250  Biso   1.000  H
  C37      1.0000 0.14520  0.15470  0.49520  Biso   1.000  C
  C38      1.0000 0.85480  0.84530  0.99520  Biso   1.000  C
  C39      1.0000 0.64520  0.34530  0.49520  Biso   1.000  C
  C40      1.0000 0.35480  0.65470  0.99520  Biso   1.000  C
  H45      1.0000 0.11410  0.11340  0.57210  Biso   1.000  H
  H46      1.0000 0.88590  0.88660  0.07210  Biso   1.000  H
  H47      1.0000 0.61410  0.38660  0.57210  Biso   1.000  H
  H48      1.0000 0.38590  0.61340  0.07210  Biso   1.000  H
  H49      1.0000 0.18210  0.11860  0.41720  Biso   1.000  H
  H50      1.0000 0.81790  0.88140  0.91720  Biso   1.000  H
  H51      1.0000 0.68210  0.38140  0.41720  Biso   1.000  H
  H52      1.0000 0.31790  0.61860  0.91720  Biso   1.000  H
  C41      1.0000 0.07890  0.21350  0.09880  Biso   1.000  C
  C42      1.0000 0.92110  0.78650  0.59880  Biso   1.000  C
  C43      1.0000 0.57890  0.28650  0.09880  Biso   1.000  C
  C44      1.0000 0.42110  0.71350  0.59880  Biso   1.000  C
  H53      1.0000 0.12550  0.17070  0.05530  Biso   1.000  H
  H54      1.0000 0.87450  0.82930  0.55530  Biso   1.000  H
  H55      1.0000 0.62550  0.32930  0.05530  Biso   1.000  H
  H56      1.0000 0.37450  0.67070  0.55530  Biso   1.000  H
  H57      1.0000 0.07510  0.26410  0.02250  Biso   1.000  H
  H58      1.0000 0.92490  0.73590  0.52250  Biso   1.000  H
  H59      1.0000 0.57510  0.23590  0.02250  Biso   1.000  H
  H60      1.0000 0.42490  0.76410  0.52250  Biso   1.000  H
  C45      1.0000 0.10780  0.24270  0.24900  Biso   1.000  C
  C46      1.0000 0.89220  0.75730  0.74900  Biso   1.000  C
  C47      1.0000 0.60780  0.25730  0.24900  Biso   1.000  C
  C48      1.0000 0.39220  0.74270  0.74900  Biso   1.000  C
  H61      1.0000 0.09390  0.30690  0.25370  Biso   1.000  H
  H62      1.0000 0.90610  0.69310  0.75370  Biso   1.000  H
  H63      1.0000 0.59390  0.19310  0.25370  Biso   1.000  H
  H64      1.0000 0.40610  0.80690  0.75370  Biso   1.000  H
  H65      1.0000 0.17750  0.23660  0.25250  Biso   1.000  H
  H66      1.0000 0.82250  0.76340  0.75250  Biso   1.000  H
  H67      1.0000 0.67750  0.26340  0.25250  Biso   1.000  H
  H68      1.0000 0.32250  0.73660  0.75250  Biso   1.000  H
  Cl1      1.0000 0.36014  0.10609  0.11890  Biso   1.000  Cl
  Cl2      1.0000 0.63986  0.89391  0.61890  Biso   1.000  Cl
  Cl3      1.0000 0.86014  0.39391  0.11890  Biso   1.000  Cl
  Cl4      1.0000 0.13986  0.60609  0.61890  Biso   1.000  Cl
  O5       1.0000 0.44700  0.06070  0.15700  Biso   1.000  O
  O6       1.0000 0.55300  0.93930  0.65700  Biso   1.000  O
  O7       1.0000 0.94700  0.43930  0.15700  Biso   1.000  O
  O8       1.0000 0.05300  0.56070  0.65700  Biso   1.000  O
  O9       1.0000 0.28290  0.04100  0.13900  Biso   1.000  O
  O10      1.0000 0.71710  0.95900  0.63900  Biso   1.000  O
  O11      1.0000 0.78290  0.45900  0.13900  Biso   1.000  O
  O12      1.0000 0.21710  0.54100  0.63900  Biso   1.000  O
  O13      1.0000 0.35240  0.14510  0.96360  Biso   1.000  O
  O14      1.0000 0.64760  0.85490  0.46360  Biso   1.000  O
  O15      1.0000 0.85240  0.35490  0.96360  Biso   1.000  O
  O16      1.0000 0.14760  0.64510  0.46360  Biso   1.000  O
  O17      1.0000 0.35280  0.17560  0.24120  Biso   1.000  O
  O18      1.0000 0.64720  0.82440  0.74120  Biso   1.000  O
  O19      1.0000 0.85280  0.32440  0.24120  Biso   1.000  O
  O20      1.0000 0.14720  0.67560  0.74120  Biso   1.000  O
