data_image0
_cell_length_a       27.019
_cell_length_b       13.506
_cell_length_c       8.921
_cell_angle_alpha    90
_cell_angle_beta     94.792
_cell_angle_gamma    90

_symmetry_space_group_name_H-M    "P 1"
_symmetry_int_tables_number       1

loop_
  _symmetry_equiv_pos_as_xyz
  'x, y, z'

loop_
  _atom_site_label
  _atom_site_occupancy
  _atom_site_fract_x
  _atom_site_fract_y
  _atom_site_fract_z
  _atom_site_thermal_displace_type
  _atom_site_B_iso_or_equiv
  _atom_site_type_symbol
  Cu1      1.0000 0.21014  0.79611  0.03595  Biso   1.000  Cu
  Cu2      1.0000 0.78986  0.79611  0.46405  Biso   1.000  Cu
  Cu3      1.0000 0.71014  0.29611  0.03595  Biso   1.000  Cu
  Cu4      1.0000 0.28986  0.29611  0.46405  Biso   1.000  Cu
  Cu5      1.0000 0.78986  0.20389  0.96405  Biso   1.000  Cu
  Cu6      1.0000 0.21014  0.20389  0.53595  Biso   1.000  Cu
  Cu7      1.0000 0.28986  0.70389  0.96405  Biso   1.000  Cu
  Cu8      1.0000 0.71014  0.70389  0.53595  Biso   1.000  Cu
  C1       1.0000 0.11140  0.82460  0.17760  Biso   1.000  C
  C2       1.0000 0.88860  0.82460  0.32240  Biso   1.000  C
  C3       1.0000 0.61140  0.32460  0.17760  Biso   1.000  C
  C4       1.0000 0.38860  0.32460  0.32240  Biso   1.000  C
  C5       1.0000 0.88860  0.17540  0.82240  Biso   1.000  C
  C6       1.0000 0.11140  0.17540  0.67760  Biso   1.000  C
  C7       1.0000 0.38860  0.67540  0.82240  Biso   1.000  C
  C8       1.0000 0.61140  0.67540  0.67760  Biso   1.000  C
  H1       1.0000 0.10700  0.75870  0.14950  Biso   1.000  H
  H2       1.0000 0.89300  0.75870  0.35050  Biso   1.000  H
  H3       1.0000 0.60700  0.25870  0.14950  Biso   1.000  H
  H4       1.0000 0.39300  0.25870  0.35050  Biso   1.000  H
  H5       1.0000 0.89300  0.24130  0.85050  Biso   1.000  H
  H6       1.0000 0.10700  0.24130  0.64950  Biso   1.000  H
  H7       1.0000 0.39300  0.74130  0.85050  Biso   1.000  H
  H8       1.0000 0.60700  0.74130  0.64950  Biso   1.000  H
  C9       1.0000 0.28630  0.91210  0.92060  Biso   1.000  C
  C10      1.0000 0.71370  0.91210  0.57940  Biso   1.000  C
  C11      1.0000 0.78630  0.41210  0.92060  Biso   1.000  C
  C12      1.0000 0.21370  0.41210  0.57940  Biso   1.000  C
  C13      1.0000 0.71370  0.08790  0.07940  Biso   1.000  C
  C14      1.0000 0.28630  0.08790  0.42060  Biso   1.000  C
  C15      1.0000 0.21370  0.58790  0.07940  Biso   1.000  C
  C16      1.0000 0.78630  0.58790  0.42060  Biso   1.000  C
  C17      1.0000 0.07740  0.86720  0.26420  Biso   1.000  C
  C18      1.0000 0.92260  0.86720  0.23580  Biso   1.000  C
  C19      1.0000 0.57740  0.36720  0.26420  Biso   1.000  C
  C20      1.0000 0.42260  0.36720  0.23580  Biso   1.000  C
  C21      1.0000 0.92260  0.13280  0.73580  Biso   1.000  C
  C22      1.0000 0.07740  0.13280  0.76420  Biso   1.000  C
  C23      1.0000 0.42260  0.63280  0.73580  Biso   1.000  C
  C24      1.0000 0.57740  0.63280  0.76420  Biso   1.000  C
  H9       1.0000 0.05080  0.83060  0.29390  Biso   1.000  H
  H10      1.0000 0.94920  0.83060  0.20610  Biso   1.000  H
  H11      1.0000 0.55080  0.33060  0.29390  Biso   1.000  H
  H12      1.0000 0.44920  0.33060  0.20610  Biso   1.000  H
  H13      1.0000 0.94920  0.16940  0.70610  Biso   1.000  H
  H14      1.0000 0.05080  0.16940  0.79390  Biso   1.000  H
  H15      1.0000 0.44920  0.66940  0.70610  Biso   1.000  H
  H16      1.0000 0.55080  0.66940  0.79390  Biso   1.000  H
  C25      1.0000 0.30780  0.00950  0.86730  Biso   1.000  C
  C26      1.0000 0.69220  0.00950  0.63270  Biso   1.000  C
  C27      1.0000 0.80780  0.50950  0.86730  Biso   1.000  C
  C28      1.0000 0.19220  0.50950  0.63270  Biso   1.000  C
  C29      1.0000 0.69220  0.99050  0.13270  Biso   1.000  C
  C30      1.0000 0.30780  0.99050  0.36730  Biso   1.000  C
  C31      1.0000 0.19220  0.49050  0.13270  Biso   1.000  C
  C32      1.0000 0.80780  0.49050  0.36730  Biso   1.000  C
  H17      1.0000 0.29290  0.02430  0.76720  Biso   1.000  H
  H18      1.0000 0.70710  0.02430  0.73280  Biso   1.000  H
  H19      1.0000 0.79290  0.52430  0.76720  Biso   1.000  H
  H20      1.0000 0.20710  0.52430  0.73280  Biso   1.000  H
  H21      1.0000 0.70710  0.97570  0.23280  Biso   1.000  H
  H22      1.0000 0.29290  0.97570  0.26720  Biso   1.000  H
  H23      1.0000 0.20710  0.47570  0.23280  Biso   1.000  H
  H24      1.0000 0.79290  0.47570  0.26720  Biso   1.000  H
  H25      1.0000 0.34320  0.00150  0.86090  Biso   1.000  H
  H26      1.0000 0.65680  0.00150  0.63910  Biso   1.000  H
  H27      1.0000 0.84320  0.50150  0.86090  Biso   1.000  H
  H28      1.0000 0.15680  0.50150  0.63910  Biso   1.000  H
  H29      1.0000 0.65680  0.99850  0.13910  Biso   1.000  H
  H30      1.0000 0.34320  0.99850  0.36090  Biso   1.000  H
  H31      1.0000 0.15680  0.49850  0.13910  Biso   1.000  H
  H32      1.0000 0.84320  0.49850  0.36090  Biso   1.000  H
  C33      1.0000 0.08348  0.96540  0.30650  Biso   1.000  C
  C34      1.0000 0.91652  0.96540  0.19350  Biso   1.000  C
  C35      1.0000 0.58348  0.46540  0.30650  Biso   1.000  C
  C36      1.0000 0.41652  0.46540  0.19350  Biso   1.000  C
  C37      1.0000 0.91652  0.03460  0.69350  Biso   1.000  C
  C38      1.0000 0.08348  0.03460  0.80650  Biso   1.000  C
  C39      1.0000 0.41652  0.53460  0.69350  Biso   1.000  C
  C40      1.0000 0.58348  0.53460  0.80650  Biso   1.000  C
  C41      1.0000 0.29910  0.09720  0.97100  Biso   1.000  C
  C42      1.0000 0.70090  0.09720  0.52900  Biso   1.000  C
  C43      1.0000 0.79910  0.59720  0.97100  Biso   1.000  C
  C44      1.0000 0.20090  0.59720  0.52900  Biso   1.000  C
  C45      1.0000 0.70090  0.90280  0.02900  Biso   1.000  C
  C46      1.0000 0.29910  0.90280  0.47100  Biso   1.000  C
  C47      1.0000 0.20090  0.40280  0.02900  Biso   1.000  C
  C48      1.0000 0.79910  0.40280  0.47100  Biso   1.000  C
  H33      1.0000 0.26370  0.10400  0.98070  Biso   1.000  H
  H34      1.0000 0.73630  0.10400  0.51930  Biso   1.000  H
  H35      1.0000 0.76370  0.60400  0.98070  Biso   1.000  H
  H36      1.0000 0.23630  0.60400  0.51930  Biso   1.000  H
  H37      1.0000 0.73630  0.89600  0.01930  Biso   1.000  H
  H38      1.0000 0.26370  0.89600  0.48070  Biso   1.000  H
  H39      1.0000 0.23630  0.39600  0.01930  Biso   1.000  H
  H40      1.0000 0.76370  0.39600  0.48070  Biso   1.000  H
  H41      1.0000 0.31520  0.08410  0.07020  Biso   1.000  H
  H42      1.0000 0.68480  0.08410  0.42980  Biso   1.000  H
  H43      1.0000 0.81520  0.58410  0.07020  Biso   1.000  H
  H44      1.0000 0.18480  0.58410  0.42980  Biso   1.000  H
  H45      1.0000 0.68480  0.91590  0.92980  Biso   1.000  H
  H46      1.0000 0.31520  0.91590  0.57020  Biso   1.000  H
  H47      1.0000 0.18480  0.41590  0.92980  Biso   1.000  H
  H48      1.0000 0.81520  0.41590  0.57020  Biso   1.000  H
  C49      1.0000 0.12346  0.01640  0.25850  Biso   1.000  C
  C50      1.0000 0.87654  0.01640  0.24150  Biso   1.000  C
  C51      1.0000 0.62346  0.51640  0.25850  Biso   1.000  C
  C52      1.0000 0.37654  0.51640  0.24150  Biso   1.000  C
  C53      1.0000 0.87654  0.98360  0.74150  Biso   1.000  C
  C54      1.0000 0.12346  0.98360  0.75850  Biso   1.000  C
  C55      1.0000 0.37654  0.48360  0.74150  Biso   1.000  C
  C56      1.0000 0.62346  0.48360  0.75850  Biso   1.000  C
  H49      1.0000 0.12840  0.08270  0.28390  Biso   1.000  H
  H50      1.0000 0.87160  0.08270  0.21610  Biso   1.000  H
  H51      1.0000 0.62840  0.58270  0.28390  Biso   1.000  H
  H52      1.0000 0.37160  0.58270  0.21610  Biso   1.000  H
  H53      1.0000 0.87160  0.91730  0.71610  Biso   1.000  H
  H54      1.0000 0.12840  0.91730  0.78390  Biso   1.000  H
  H55      1.0000 0.37160  0.41730  0.71610  Biso   1.000  H
  H56      1.0000 0.62840  0.41730  0.78390  Biso   1.000  H
  C57      1.0000 0.31890  0.19350  0.91170  Biso   1.000  C
  C58      1.0000 0.68110  0.19350  0.58830  Biso   1.000  C
  C59      1.0000 0.81890  0.69350  0.91170  Biso   1.000  C
  C60      1.0000 0.18110  0.69350  0.58830  Biso   1.000  C
  C61      1.0000 0.68110  0.80650  0.08830  Biso   1.000  C
  C62      1.0000 0.31890  0.80650  0.41170  Biso   1.000  C
  C63      1.0000 0.18110  0.30650  0.08830  Biso   1.000  C
  C64      1.0000 0.81890  0.30650  0.41170  Biso   1.000  C
  C65      1.0000 0.32900  0.26590  0.00100  Biso   1.000  C
  C66      1.0000 0.67100  0.26590  0.49900  Biso   1.000  C
  C67      1.0000 0.82900  0.76590  0.00100  Biso   1.000  C
  C68      1.0000 0.17100  0.76590  0.49900  Biso   1.000  C
  C69      1.0000 0.67100  0.73410  0.99900  Biso   1.000  C
  C70      1.0000 0.32900  0.73410  0.50100  Biso   1.000  C
  C71      1.0000 0.17100  0.23410  0.99900  Biso   1.000  C
  C72      1.0000 0.82900  0.23410  0.50100  Biso   1.000  C
  H57      1.0000 0.34170  0.32010  0.94630  Biso   1.000  H
  H58      1.0000 0.65830  0.32010  0.55370  Biso   1.000  H
  H59      1.0000 0.84170  0.82010  0.94630  Biso   1.000  H
  H60      1.0000 0.15830  0.82010  0.55370  Biso   1.000  H
  H61      1.0000 0.65830  0.67990  0.05370  Biso   1.000  H
  H62      1.0000 0.34170  0.67990  0.44630  Biso   1.000  H
  H63      1.0000 0.15830  0.17990  0.05370  Biso   1.000  H
  H64      1.0000 0.84170  0.17990  0.44630  Biso   1.000  H
  H65      1.0000 0.35340  0.24560  0.07930  Biso   1.000  H
  H66      1.0000 0.64660  0.24560  0.42070  Biso   1.000  H
  H67      1.0000 0.85340  0.74560  0.07930  Biso   1.000  H
  H68      1.0000 0.14660  0.74560  0.42070  Biso   1.000  H
  H69      1.0000 0.64660  0.75440  0.92070  Biso   1.000  H
  H70      1.0000 0.35340  0.75440  0.57930  Biso   1.000  H
  H71      1.0000 0.14660  0.25440  0.92070  Biso   1.000  H
  H72      1.0000 0.85340  0.25440  0.57930  Biso   1.000  H
  H73      1.0000 0.29940  0.28640  0.04480  Biso   1.000  H
  H74      1.0000 0.70060  0.28640  0.45520  Biso   1.000  H
  H75      1.0000 0.79940  0.78640  0.04480  Biso   1.000  H
  H76      1.0000 0.20060  0.78640  0.45520  Biso   1.000  H
  H77      1.0000 0.70060  0.71360  0.95520  Biso   1.000  H
  H78      1.0000 0.29940  0.71360  0.54480  Biso   1.000  H
  H79      1.0000 0.20060  0.21360  0.95520  Biso   1.000  H
  H80      1.0000 0.79940  0.21360  0.54480  Biso   1.000  H
  C73      1.0000 0.15581  0.96860  0.17330  Biso   1.000  C
  C74      1.0000 0.84419  0.96860  0.32670  Biso   1.000  C
  C75      1.0000 0.65581  0.46860  0.17330  Biso   1.000  C
  C76      1.0000 0.34419  0.46860  0.32670  Biso   1.000  C
  C77      1.0000 0.84419  0.03140  0.82670  Biso   1.000  C
  C78      1.0000 0.15581  0.03140  0.67330  Biso   1.000  C
  C79      1.0000 0.34419  0.53140  0.82670  Biso   1.000  C
  C80      1.0000 0.65581  0.53140  0.67330  Biso   1.000  C
  H81      1.0000 0.18280  0.00360  0.14260  Biso   1.000  H
  H82      1.0000 0.81720  0.00360  0.35740  Biso   1.000  H
  H83      1.0000 0.68280  0.50360  0.14260  Biso   1.000  H
  H84      1.0000 0.31720  0.50360  0.35740  Biso   1.000  H
  H85      1.0000 0.81720  0.99640  0.85740  Biso   1.000  H
  H86      1.0000 0.18280  0.99640  0.64260  Biso   1.000  H
  H87      1.0000 0.31720  0.49640  0.85740  Biso   1.000  H
  H88      1.0000 0.68280  0.49640  0.64260  Biso   1.000  H
  C81      1.0000 0.29370  0.22100  0.75820  Biso   1.000  C
  C82      1.0000 0.70630  0.22100  0.74180  Biso   1.000  C
  C83      1.0000 0.79370  0.72100  0.75820  Biso   1.000  C
  C84      1.0000 0.20630  0.72100  0.74180  Biso   1.000  C
  C85      1.0000 0.70630  0.77900  0.24180  Biso   1.000  C
  C86      1.0000 0.29370  0.77900  0.25820  Biso   1.000  C
  C87      1.0000 0.20630  0.27900  0.24180  Biso   1.000  C
  C88      1.0000 0.79370  0.27900  0.25820  Biso   1.000  C
  C89      1.0000 0.04800  0.01620  0.39760  Biso   1.000  C
  C90      1.0000 0.95200  0.01620  0.10240  Biso   1.000  C
  C91      1.0000 0.54800  0.51620  0.39760  Biso   1.000  C
  C92      1.0000 0.45200  0.51620  0.10240  Biso   1.000  C
  C93      1.0000 0.95200  0.98380  0.60240  Biso   1.000  C
  C94      1.0000 0.04800  0.98380  0.89760  Biso   1.000  C
  C95      1.0000 0.45200  0.48380  0.60240  Biso   1.000  C
  C96      1.0000 0.54800  0.48380  0.89760  Biso   1.000  C
  H89      1.0000 0.04980  0.08460  0.40910  Biso   1.000  H
  H90      1.0000 0.95020  0.08460  0.09090  Biso   1.000  H
  H91      1.0000 0.54980  0.58460  0.40910  Biso   1.000  H
  H92      1.0000 0.45020  0.58460  0.09090  Biso   1.000  H
  H93      1.0000 0.95020  0.91540  0.59090  Biso   1.000  H
  H94      1.0000 0.04980  0.91540  0.90910  Biso   1.000  H
  H95      1.0000 0.45020  0.41540  0.59090  Biso   1.000  H
  H96      1.0000 0.54980  0.41540  0.90910  Biso   1.000  H
  N1       1.0000 0.15023  0.87320  0.13190  Biso   1.000  N
  N2       1.0000 0.84977  0.87320  0.36810  Biso   1.000  N
  N3       1.0000 0.65023  0.37320  0.13190  Biso   1.000  N
  N4       1.0000 0.34977  0.37320  0.36810  Biso   1.000  N
  N5       1.0000 0.84977  0.12680  0.86810  Biso   1.000  N
  N6       1.0000 0.15023  0.12680  0.63190  Biso   1.000  N
  N7       1.0000 0.34977  0.62680  0.86810  Biso   1.000  N
  N8       1.0000 0.65023  0.62680  0.63190  Biso   1.000  N
  N9       1.0000 0.01519  0.96840  0.46020  Biso   1.000  N
  N10      1.0000 0.98481  0.96840  0.03980  Biso   1.000  N
  N11      1.0000 0.51519  0.46840  0.46020  Biso   1.000  N
  N12      1.0000 0.48481  0.46840  0.03980  Biso   1.000  N
  N13      1.0000 0.98481  0.03160  0.53980  Biso   1.000  N
  N14      1.0000 0.01519  0.03160  0.96020  Biso   1.000  N
  N15      1.0000 0.48481  0.53160  0.53980  Biso   1.000  N
  N16      1.0000 0.51519  0.53160  0.96020  Biso   1.000  N
  O1       1.0000 0.24404  0.91500  0.96770  Biso   1.000  O
  O2       1.0000 0.75596  0.91500  0.53230  Biso   1.000  O
  O3       1.0000 0.74404  0.41500  0.96770  Biso   1.000  O
  O4       1.0000 0.25596  0.41500  0.53230  Biso   1.000  O
  O5       1.0000 0.75596  0.08500  0.03230  Biso   1.000  O
  O6       1.0000 0.24404  0.08500  0.46770  Biso   1.000  O
  O7       1.0000 0.25596  0.58500  0.03230  Biso   1.000  O
  O8       1.0000 0.74404  0.58500  0.46770  Biso   1.000  O
  O9       1.0000 0.31191  0.83710  0.91030  Biso   1.000  O
  O10      1.0000 0.68809  0.83710  0.58970  Biso   1.000  O
  O11      1.0000 0.81191  0.33710  0.91030  Biso   1.000  O
  O12      1.0000 0.18809  0.33710  0.58970  Biso   1.000  O
  O13      1.0000 0.68809  0.16290  0.08970  Biso   1.000  O
  O14      1.0000 0.31191  0.16290  0.41030  Biso   1.000  O
  O15      1.0000 0.18809  0.66290  0.08970  Biso   1.000  O
  O16      1.0000 0.81191  0.66290  0.41030  Biso   1.000  O
  O17      1.0000 0.25005  0.19470  0.73060  Biso   1.000  O
  O18      1.0000 0.74995  0.19470  0.76940  Biso   1.000  O
  O19      1.0000 0.75005  0.69470  0.73060  Biso   1.000  O
  O20      1.0000 0.24995  0.69470  0.76940  Biso   1.000  O
  O21      1.0000 0.74995  0.80530  0.26940  Biso   1.000  O
  O22      1.0000 0.25005  0.80530  0.23060  Biso   1.000  O
  O23      1.0000 0.24995  0.30530  0.26940  Biso   1.000  O
  O24      1.0000 0.75005  0.30530  0.23060  Biso   1.000  O
  O25      1.0000 0.31891  0.26870  0.67000  Biso   1.000  O
  O26      1.0000 0.68109  0.26870  0.83000  Biso   1.000  O
  O27      1.0000 0.81891  0.76870  0.67000  Biso   1.000  O
  O28      1.0000 0.18109  0.76870  0.83000  Biso   1.000  O
  O29      1.0000 0.68109  0.73130  0.33000  Biso   1.000  O
  O30      1.0000 0.31891  0.73130  0.17000  Biso   1.000  O
  O31      1.0000 0.18109  0.23130  0.33000  Biso   1.000  O
  O32      1.0000 0.81891  0.23130  0.17000  Biso   1.000  O
  O33      1.0000 0.07150  0.27530  0.33100  Biso   1.000  O
  O34      1.0000 0.92850  0.27530  0.16900  Biso   1.000  O
  O35      1.0000 0.57150  0.77530  0.33100  Biso   1.000  O
  O36      1.0000 0.42850  0.77530  0.16900  Biso   1.000  O
  O37      1.0000 0.92850  0.72470  0.66900  Biso   1.000  O
  O38      1.0000 0.07150  0.72470  0.83100  Biso   1.000  O
  O39      1.0000 0.42850  0.22470  0.66900  Biso   1.000  O
  O40      1.0000 0.57150  0.22470  0.83100  Biso   1.000  O
  H97      1.0000 0.10190  0.24340  0.31780  Biso   1.000  H
  H98      1.0000 0.89810  0.24340  0.18220  Biso   1.000  H
  H99      1.0000 0.60190  0.74340  0.31780  Biso   1.000  H
  H100     1.0000 0.39810  0.74340  0.18220  Biso   1.000  H
  H101     1.0000 0.89810  0.75660  0.68220  Biso   1.000  H
  H102     1.0000 0.10190  0.75660  0.81780  Biso   1.000  H
  H103     1.0000 0.39810  0.25660  0.68220  Biso   1.000  H
  H104     1.0000 0.60190  0.25660  0.81780  Biso   1.000  H
  H105     1.0000 0.05480  0.25180  0.25340  Biso   1.000  H
  H106     1.0000 0.94520  0.25180  0.24660  Biso   1.000  H
  H107     1.0000 0.55480  0.75180  0.25340  Biso   1.000  H
  H108     1.0000 0.44520  0.75180  0.24660  Biso   1.000  H
  H109     1.0000 0.94520  0.74820  0.74660  Biso   1.000  H
  H110     1.0000 0.05480  0.74820  0.75340  Biso   1.000  H
  H111     1.0000 0.44520  0.24820  0.74660  Biso   1.000  H
  H112     1.0000 0.55480  0.24820  0.75340  Biso   1.000  H
  O41      1.0000 0.02000  0.74540  0.56100  Biso   1.000  O
  O42      1.0000 0.98000  0.74540  0.93900  Biso   1.000  O
  O43      1.0000 0.52000  0.24540  0.56100  Biso   1.000  O
  O44      1.0000 0.48000  0.24540  0.93900  Biso   1.000  O
  O45      1.0000 0.98000  0.25460  0.43900  Biso   1.000  O
  O46      1.0000 0.02000  0.25460  0.06100  Biso   1.000  O
  O47      1.0000 0.48000  0.75460  0.43900  Biso   1.000  O
  O48      1.0000 0.52000  0.75460  0.06100  Biso   1.000  O
  H113     1.0000 0.98610  0.73190  0.53260  Biso   1.000  H
  H114     1.0000 0.01390  0.73190  0.96740  Biso   1.000  H
  H115     1.0000 0.48610  0.23190  0.53260  Biso   1.000  H
  H116     1.0000 0.51390  0.23190  0.96740  Biso   1.000  H
  H117     1.0000 0.01390  0.26810  0.46740  Biso   1.000  H
  H118     1.0000 0.98610  0.26810  0.03260  Biso   1.000  H
  H119     1.0000 0.51390  0.76810  0.46740  Biso   1.000  H
  H120     1.0000 0.48610  0.76810  0.03260  Biso   1.000  H
  H121     1.0000 0.02170  0.79830  0.60890  Biso   1.000  H
  H122     1.0000 0.97830  0.79830  0.89110  Biso   1.000  H
  H123     1.0000 0.52170  0.29830  0.60890  Biso   1.000  H
  H124     1.0000 0.47830  0.29830  0.89110  Biso   1.000  H
  H125     1.0000 0.97830  0.20170  0.39110  Biso   1.000  H
  H126     1.0000 0.02170  0.20170  0.10890  Biso   1.000  H
  H127     1.0000 0.47830  0.70170  0.39110  Biso   1.000  H
  H128     1.0000 0.52170  0.70170  0.10890  Biso   1.000  H
  O49      1.0000 0.01360  0.61100  0.32700  Biso   1.000  O
  O50      1.0000 0.98640  0.61100  0.17300  Biso   1.000  O
  O51      1.0000 0.51360  0.11100  0.32700  Biso   1.000  O
  O52      1.0000 0.48640  0.11100  0.17300  Biso   1.000  O
  O53      1.0000 0.98640  0.38900  0.67300  Biso   1.000  O
  O54      1.0000 0.01360  0.38900  0.82700  Biso   1.000  O
  O55      1.0000 0.48640  0.88900  0.67300  Biso   1.000  O
  O56      1.0000 0.51360  0.88900  0.82700  Biso   1.000  O
  C97      1.0000 0.36820  0.20280  0.92300  Biso   1.000  C
  C98      1.0000 0.63180  0.20280  0.57700  Biso   1.000  C
  C99      1.0000 0.86820  0.70280  0.92300  Biso   1.000  C
  C100     1.0000 0.13180  0.70280  0.57700  Biso   1.000  C
  C101     1.0000 0.63180  0.79720  0.07700  Biso   1.000  C
  C102     1.0000 0.36820  0.79720  0.42300  Biso   1.000  C
  C103     1.0000 0.13180  0.29720  0.07700  Biso   1.000  C
  C104     1.0000 0.86820  0.29720  0.42300  Biso   1.000  C
  H129     1.0000 0.38210  0.15700  0.85560  Biso   1.000  H
  H130     1.0000 0.61790  0.15700  0.64440  Biso   1.000  H
  H131     1.0000 0.88210  0.65700  0.85560  Biso   1.000  H
  H132     1.0000 0.11790  0.65700  0.64440  Biso   1.000  H
  H133     1.0000 0.61790  0.84300  0.14440  Biso   1.000  H
  H134     1.0000 0.38210  0.84300  0.35560  Biso   1.000  H
  H135     1.0000 0.11790  0.34300  0.14440  Biso   1.000  H
  H136     1.0000 0.88210  0.34300  0.35560  Biso   1.000  H
  H137     1.0000 0.38110  0.18890  0.02430  Biso   1.000  H
  H138     1.0000 0.61890  0.18890  0.47570  Biso   1.000  H
  H139     1.0000 0.88110  0.68890  0.02430  Biso   1.000  H
  H140     1.0000 0.11890  0.68890  0.47570  Biso   1.000  H
  H141     1.0000 0.61890  0.81110  0.97570  Biso   1.000  H
  H142     1.0000 0.38110  0.81110  0.52430  Biso   1.000  H
  H143     1.0000 0.11890  0.31110  0.97570  Biso   1.000  H
  H144     1.0000 0.88110  0.31110  0.52430  Biso   1.000  H
  H145     1.0000 0.37690  0.26910  0.89690  Biso   1.000  H
  H146     1.0000 0.62310  0.26910  0.60310  Biso   1.000  H
  H147     1.0000 0.87690  0.76910  0.89690  Biso   1.000  H
  H148     1.0000 0.12310  0.76910  0.60310  Biso   1.000  H
  H149     1.0000 0.62310  0.73090  0.10310  Biso   1.000  H
  H150     1.0000 0.37690  0.73090  0.39690  Biso   1.000  H
  H151     1.0000 0.12310  0.23090  0.10310  Biso   1.000  H
  H152     1.0000 0.87690  0.23090  0.39690  Biso   1.000  H
