data_image0
_cell_length_a       27.253
_cell_length_b       13.608
_cell_length_c       9.146
_cell_angle_alpha    90
_cell_angle_beta     92.81
_cell_angle_gamma    90

_symmetry_space_group_name_H-M    "P 1"
_symmetry_int_tables_number       1

loop_
  _symmetry_equiv_pos_as_xyz
  'x, y, z'

loop_
  _atom_site_label
  _atom_site_occupancy
  _atom_site_fract_x
  _atom_site_fract_y
  _atom_site_fract_z
  _atom_site_thermal_displace_type
  _atom_site_B_iso_or_equiv
  _atom_site_type_symbol
  Cu1      1.0000 0.71242  0.20010  0.04187  Biso   1.000  Cu
  Cu2      1.0000 0.28758  0.20010  0.45813  Biso   1.000  Cu
  Cu3      1.0000 0.21242  0.70010  0.04187  Biso   1.000  Cu
  Cu4      1.0000 0.78758  0.70010  0.45813  Biso   1.000  Cu
  Cu5      1.0000 0.28758  0.79990  0.95813  Biso   1.000  Cu
  Cu6      1.0000 0.71242  0.79990  0.54187  Biso   1.000  Cu
  Cu7      1.0000 0.78758  0.29990  0.95813  Biso   1.000  Cu
  Cu8      1.0000 0.21242  0.29990  0.54187  Biso   1.000  Cu
  C1       1.0000 0.65990  0.03060  0.18910  Biso   1.000  C
  C2       1.0000 0.34010  0.03060  0.31090  Biso   1.000  C
  C3       1.0000 0.15990  0.53060  0.18910  Biso   1.000  C
  C4       1.0000 0.84010  0.53060  0.31090  Biso   1.000  C
  C5       1.0000 0.34010  0.96940  0.81090  Biso   1.000  C
  C6       1.0000 0.65990  0.96940  0.68910  Biso   1.000  C
  C7       1.0000 0.84010  0.46940  0.81090  Biso   1.000  C
  C8       1.0000 0.15990  0.46940  0.68910  Biso   1.000  C
  H1       1.0000 0.68820  0.99730  0.16470  Biso   1.000  H
  H2       1.0000 0.31180  0.99730  0.33530  Biso   1.000  H
  H3       1.0000 0.18820  0.49730  0.16470  Biso   1.000  H
  H4       1.0000 0.81180  0.49730  0.33530  Biso   1.000  H
  H5       1.0000 0.31180  0.00270  0.83530  Biso   1.000  H
  H6       1.0000 0.68820  0.00270  0.66470  Biso   1.000  H
  H7       1.0000 0.81180  0.50270  0.83530  Biso   1.000  H
  H8       1.0000 0.18820  0.50270  0.66470  Biso   1.000  H
  C9       1.0000 0.62693  0.98300  0.27340  Biso   1.000  C
  C10      1.0000 0.37307  0.98300  0.22660  Biso   1.000  C
  C11      1.0000 0.12693  0.48300  0.27340  Biso   1.000  C
  C12      1.0000 0.87307  0.48300  0.22660  Biso   1.000  C
  C13      1.0000 0.37307  0.01700  0.72660  Biso   1.000  C
  C14      1.0000 0.62693  0.01700  0.77340  Biso   1.000  C
  C15      1.0000 0.87307  0.51700  0.72660  Biso   1.000  C
  C16      1.0000 0.12693  0.51700  0.77340  Biso   1.000  C
  H9       1.0000 0.63270  0.91860  0.30340  Biso   1.000  H
  H10      1.0000 0.36730  0.91860  0.19660  Biso   1.000  H
  H11      1.0000 0.13270  0.41860  0.30340  Biso   1.000  H
  H12      1.0000 0.86730  0.41860  0.19660  Biso   1.000  H
  H13      1.0000 0.36730  0.08140  0.69660  Biso   1.000  H
  H14      1.0000 0.63270  0.08140  0.80340  Biso   1.000  H
  H15      1.0000 0.86730  0.58140  0.69660  Biso   1.000  H
  H16      1.0000 0.13270  0.58140  0.80340  Biso   1.000  H
  C17      1.0000 0.79904  0.21290  0.23630  Biso   1.000  C
  C18      1.0000 0.20096  0.21290  0.26370  Biso   1.000  C
  C19      1.0000 0.29904  0.71290  0.23630  Biso   1.000  C
  C20      1.0000 0.70096  0.71290  0.26370  Biso   1.000  C
  C21      1.0000 0.20096  0.78710  0.76370  Biso   1.000  C
  C22      1.0000 0.79904  0.78710  0.73630  Biso   1.000  C
  C23      1.0000 0.70096  0.28710  0.76370  Biso   1.000  C
  C24      1.0000 0.29904  0.28710  0.73630  Biso   1.000  C
  C25      1.0000 0.58510  0.03200  0.31320  Biso   1.000  C
  C26      1.0000 0.41490  0.03200  0.18680  Biso   1.000  C
  C27      1.0000 0.08510  0.53200  0.31320  Biso   1.000  C
  C28      1.0000 0.91490  0.53200  0.18680  Biso   1.000  C
  C29      1.0000 0.41490  0.96800  0.68680  Biso   1.000  C
  C30      1.0000 0.58510  0.96800  0.81320  Biso   1.000  C
  C31      1.0000 0.91490  0.46800  0.68680  Biso   1.000  C
  C32      1.0000 0.08510  0.46800  0.81320  Biso   1.000  C
  C33      1.0000 0.82810  0.18140  0.37420  Biso   1.000  C
  C34      1.0000 0.17190  0.18140  0.12580  Biso   1.000  C
  C35      1.0000 0.32810  0.68140  0.37420  Biso   1.000  C
  C36      1.0000 0.67190  0.68140  0.12580  Biso   1.000  C
  C37      1.0000 0.17190  0.81860  0.62580  Biso   1.000  C
  C38      1.0000 0.82810  0.81860  0.87420  Biso   1.000  C
  C39      1.0000 0.67190  0.31860  0.62580  Biso   1.000  C
  C40      1.0000 0.32810  0.31860  0.87420  Biso   1.000  C
  C41      1.0000 0.57808  0.12720  0.26280  Biso   1.000  C
  C42      1.0000 0.42192  0.12720  0.23720  Biso   1.000  C
  C43      1.0000 0.07808  0.62720  0.26280  Biso   1.000  C
  C44      1.0000 0.92192  0.62720  0.23720  Biso   1.000  C
  C45      1.0000 0.42192  0.87280  0.73720  Biso   1.000  C
  C46      1.0000 0.57808  0.87280  0.76280  Biso   1.000  C
  C47      1.0000 0.92192  0.37280  0.73720  Biso   1.000  C
  C48      1.0000 0.07808  0.37280  0.76280  Biso   1.000  C
  H17      1.0000 0.55040  0.16260  0.28660  Biso   1.000  H
  H18      1.0000 0.44960  0.16260  0.21340  Biso   1.000  H
  H19      1.0000 0.05040  0.66260  0.28660  Biso   1.000  H
  H20      1.0000 0.94960  0.66260  0.21340  Biso   1.000  H
  H21      1.0000 0.44960  0.83740  0.71340  Biso   1.000  H
  H22      1.0000 0.55040  0.83740  0.78660  Biso   1.000  H
  H23      1.0000 0.94960  0.33740  0.71340  Biso   1.000  H
  H24      1.0000 0.05040  0.33740  0.78660  Biso   1.000  H
  C49      1.0000 0.80700  0.08570  0.43620  Biso   1.000  C
  C50      1.0000 0.19300  0.08570  0.06380  Biso   1.000  C
  C51      1.0000 0.30700  0.58570  0.43620  Biso   1.000  C
  C52      1.0000 0.69300  0.58570  0.06380  Biso   1.000  C
  C53      1.0000 0.19300  0.91430  0.56380  Biso   1.000  C
  C54      1.0000 0.80700  0.91430  0.93620  Biso   1.000  C
  C55      1.0000 0.69300  0.41430  0.56380  Biso   1.000  C
  C56      1.0000 0.30700  0.41430  0.93620  Biso   1.000  C
  H25      1.0000 0.82570  0.06910  0.52580  Biso   1.000  H
  H26      1.0000 0.17430  0.06910  0.97420  Biso   1.000  H
  H27      1.0000 0.32570  0.56910  0.52580  Biso   1.000  H
  H28      1.0000 0.67430  0.56910  0.97420  Biso   1.000  H
  H29      1.0000 0.17430  0.93090  0.47420  Biso   1.000  H
  H30      1.0000 0.82570  0.93090  0.02580  Biso   1.000  H
  H31      1.0000 0.67430  0.43090  0.47420  Biso   1.000  H
  H32      1.0000 0.32570  0.43090  0.02580  Biso   1.000  H
  H33      1.0000 0.77340  0.09780  0.46140  Biso   1.000  H
  H34      1.0000 0.22660  0.09780  0.03860  Biso   1.000  H
  H35      1.0000 0.27340  0.59780  0.46140  Biso   1.000  H
  H36      1.0000 0.72660  0.59780  0.03860  Biso   1.000  H
  H37      1.0000 0.22660  0.90220  0.53860  Biso   1.000  H
  H38      1.0000 0.77340  0.90220  0.96140  Biso   1.000  H
  H39      1.0000 0.72660  0.40220  0.53860  Biso   1.000  H
  H40      1.0000 0.27340  0.40220  0.96140  Biso   1.000  H
  C57      1.0000 0.61239  0.16840  0.17790  Biso   1.000  C
  C58      1.0000 0.38761  0.16840  0.32210  Biso   1.000  C
  C59      1.0000 0.11239  0.66840  0.17790  Biso   1.000  C
  C60      1.0000 0.88761  0.66840  0.32210  Biso   1.000  C
  C61      1.0000 0.38761  0.83160  0.82210  Biso   1.000  C
  C62      1.0000 0.61239  0.83160  0.67790  Biso   1.000  C
  C63      1.0000 0.88761  0.33160  0.82210  Biso   1.000  C
  C64      1.0000 0.11239  0.33160  0.67790  Biso   1.000  C
  H41      1.0000 0.60710  0.23210  0.14380  Biso   1.000  H
  H42      1.0000 0.39290  0.23210  0.35620  Biso   1.000  H
  H43      1.0000 0.10710  0.73210  0.14380  Biso   1.000  H
  H44      1.0000 0.89290  0.73210  0.35620  Biso   1.000  H
  H45      1.0000 0.39290  0.76790  0.85620  Biso   1.000  H
  H46      1.0000 0.60710  0.76790  0.64380  Biso   1.000  H
  H47      1.0000 0.89290  0.26790  0.85620  Biso   1.000  H
  H48      1.0000 0.10710  0.26790  0.64380  Biso   1.000  H
  C65      1.0000 0.80744  0.99780  0.33410  Biso   1.000  C
  C66      1.0000 0.19256  0.99780  0.16590  Biso   1.000  C
  C67      1.0000 0.30744  0.49780  0.33410  Biso   1.000  C
  C68      1.0000 0.69256  0.49780  0.16590  Biso   1.000  C
  C69      1.0000 0.19256  0.00220  0.66590  Biso   1.000  C
  C70      1.0000 0.80744  0.00220  0.83410  Biso   1.000  C
  C71      1.0000 0.69256  0.50220  0.66590  Biso   1.000  C
  C72      1.0000 0.30744  0.50220  0.83410  Biso   1.000  C
  H49      1.0000 0.78910  0.01410  0.24380  Biso   1.000  H
  H50      1.0000 0.21090  0.01410  0.25620  Biso   1.000  H
  H51      1.0000 0.28910  0.51410  0.24380  Biso   1.000  H
  H52      1.0000 0.71090  0.51410  0.25620  Biso   1.000  H
  H53      1.0000 0.21090  0.98590  0.75620  Biso   1.000  H
  H54      1.0000 0.78910  0.98590  0.74380  Biso   1.000  H
  H55      1.0000 0.71090  0.48590  0.75620  Biso   1.000  H
  H56      1.0000 0.28910  0.48590  0.74380  Biso   1.000  H
  H57      1.0000 0.84110  0.98430  0.31020  Biso   1.000  H
  H58      1.0000 0.15890  0.98430  0.18980  Biso   1.000  H
  H59      1.0000 0.34110  0.48430  0.31020  Biso   1.000  H
  H60      1.0000 0.65890  0.48430  0.18980  Biso   1.000  H
  H61      1.0000 0.15890  0.01570  0.68980  Biso   1.000  H
  H62      1.0000 0.84110  0.01570  0.81020  Biso   1.000  H
  H63      1.0000 0.65890  0.51570  0.68980  Biso   1.000  H
  H64      1.0000 0.34110  0.51570  0.81020  Biso   1.000  H
  C73      1.0000 0.54989  0.98400  0.40410  Biso   1.000  C
  C74      1.0000 0.45011  0.98400  0.09590  Biso   1.000  C
  C75      1.0000 0.04989  0.48400  0.40410  Biso   1.000  C
  C76      1.0000 0.95011  0.48400  0.09590  Biso   1.000  C
  C77      1.0000 0.45011  0.01600  0.59590  Biso   1.000  C
  C78      1.0000 0.54989  0.01600  0.90410  Biso   1.000  C
  C79      1.0000 0.95011  0.51600  0.59590  Biso   1.000  C
  C80      1.0000 0.04989  0.51600  0.90410  Biso   1.000  C
  H65      1.0000 0.55320  0.91720  0.42380  Biso   1.000  H
  H66      1.0000 0.44680  0.91720  0.07620  Biso   1.000  H
  H67      1.0000 0.05320  0.41720  0.42380  Biso   1.000  H
  H68      1.0000 0.94680  0.41720  0.07620  Biso   1.000  H
  H69      1.0000 0.44680  0.08280  0.57620  Biso   1.000  H
  H70      1.0000 0.55320  0.08280  0.92380  Biso   1.000  H
  H71      1.0000 0.94680  0.58280  0.57620  Biso   1.000  H
  H72      1.0000 0.05320  0.58280  0.92380  Biso   1.000  H
  C81      1.0000 0.78561  0.90630  0.39900  Biso   1.000  C
  C82      1.0000 0.21439  0.90630  0.10100  Biso   1.000  C
  C83      1.0000 0.28561  0.40630  0.39900  Biso   1.000  C
  C84      1.0000 0.71439  0.40630  0.10100  Biso   1.000  C
  C85      1.0000 0.21439  0.09370  0.60100  Biso   1.000  C
  C86      1.0000 0.78561  0.09370  0.89900  Biso   1.000  C
  C87      1.0000 0.71439  0.59370  0.60100  Biso   1.000  C
  C88      1.0000 0.28561  0.59370  0.89900  Biso   1.000  C
  O1       1.0000 0.80938  0.82860  0.38750  Biso   1.000  O
  O2       1.0000 0.19062  0.82860  0.11250  Biso   1.000  O
  O3       1.0000 0.30938  0.32860  0.38750  Biso   1.000  O
  O4       1.0000 0.69062  0.32860  0.11250  Biso   1.000  O
  O5       1.0000 0.19062  0.17140  0.61250  Biso   1.000  O
  O6       1.0000 0.80938  0.17140  0.88750  Biso   1.000  O
  O7       1.0000 0.69062  0.67140  0.61250  Biso   1.000  O
  O8       1.0000 0.30938  0.67140  0.88750  Biso   1.000  O
  O9       1.0000 0.74467  0.91410  0.45650  Biso   1.000  O
  O10      1.0000 0.25533  0.91410  0.04350  Biso   1.000  O
  O11      1.0000 0.24467  0.41410  0.45650  Biso   1.000  O
  O12      1.0000 0.75533  0.41410  0.04350  Biso   1.000  O
  O13      1.0000 0.25533  0.08590  0.54350  Biso   1.000  O
  O14      1.0000 0.74467  0.08590  0.95650  Biso   1.000  O
  O15      1.0000 0.75533  0.58590  0.54350  Biso   1.000  O
  O16      1.0000 0.24467  0.58590  0.95650  Biso   1.000  O
  C89      1.0000 0.82320  0.26240  0.48720  Biso   1.000  C
  C90      1.0000 0.17680  0.26240  0.01280  Biso   1.000  C
  C91      1.0000 0.32320  0.76240  0.48720  Biso   1.000  C
  C92      1.0000 0.67680  0.76240  0.01280  Biso   1.000  C
  C93      1.0000 0.17680  0.73760  0.51280  Biso   1.000  C
  C94      1.0000 0.82320  0.73760  0.98720  Biso   1.000  C
  C95      1.0000 0.67680  0.23760  0.51280  Biso   1.000  C
  C96      1.0000 0.32320  0.23760  0.98720  Biso   1.000  C
  H73      1.0000 0.83980  0.32040  0.45560  Biso   1.000  H
  H74      1.0000 0.16020  0.32040  0.04440  Biso   1.000  H
  H75      1.0000 0.33980  0.82040  0.45560  Biso   1.000  H
  H76      1.0000 0.66020  0.82040  0.04440  Biso   1.000  H
  H77      1.0000 0.16020  0.67960  0.54440  Biso   1.000  H
  H78      1.0000 0.83980  0.67960  0.95560  Biso   1.000  H
  H79      1.0000 0.66020  0.17960  0.54440  Biso   1.000  H
  H80      1.0000 0.33980  0.17960  0.95560  Biso   1.000  H
  H81      1.0000 0.83780  0.24110  0.57950  Biso   1.000  H
  H82      1.0000 0.16220  0.24110  0.92050  Biso   1.000  H
  H83      1.0000 0.33780  0.74110  0.57950  Biso   1.000  H
  H84      1.0000 0.66220  0.74110  0.92050  Biso   1.000  H
  H85      1.0000 0.16220  0.75890  0.42050  Biso   1.000  H
  H86      1.0000 0.83780  0.75890  0.07950  Biso   1.000  H
  H87      1.0000 0.66220  0.25890  0.42050  Biso   1.000  H
  H88      1.0000 0.33780  0.25890  0.07950  Biso   1.000  H
  H89      1.0000 0.78910  0.27680  0.49770  Biso   1.000  H
  H90      1.0000 0.21090  0.27680  0.00230  Biso   1.000  H
  H91      1.0000 0.28910  0.77680  0.49770  Biso   1.000  H
  H92      1.0000 0.71090  0.77680  0.00230  Biso   1.000  H
  H93      1.0000 0.21090  0.72320  0.50230  Biso   1.000  H
  H94      1.0000 0.78910  0.72320  0.99770  Biso   1.000  H
  H95      1.0000 0.71090  0.22320  0.50230  Biso   1.000  H
  H96      1.0000 0.28910  0.22320  0.99770  Biso   1.000  H
  C97      1.0000 0.88230  0.16780  0.34070  Biso   1.000  C
  C98      1.0000 0.11770  0.16780  0.15930  Biso   1.000  C
  C99      1.0000 0.38230  0.66780  0.34070  Biso   1.000  C
  C100     1.0000 0.61770  0.66780  0.15930  Biso   1.000  C
  C101     1.0000 0.11770  0.83220  0.65930  Biso   1.000  C
  C102     1.0000 0.88230  0.83220  0.84070  Biso   1.000  C
  C103     1.0000 0.61770  0.33220  0.65930  Biso   1.000  C
  C104     1.0000 0.38230  0.33220  0.84070  Biso   1.000  C
  H97      1.0000 0.88480  0.12130  0.26240  Biso   1.000  H
  H98      1.0000 0.11520  0.12130  0.23760  Biso   1.000  H
  H99      1.0000 0.38480  0.62130  0.26240  Biso   1.000  H
  H100     1.0000 0.61520  0.62130  0.23760  Biso   1.000  H
  H101     1.0000 0.11520  0.87870  0.73760  Biso   1.000  H
  H102     1.0000 0.88480  0.87870  0.76240  Biso   1.000  H
  H103     1.0000 0.61520  0.37870  0.73760  Biso   1.000  H
  H104     1.0000 0.38480  0.37870  0.76240  Biso   1.000  H
  H105     1.0000 0.90020  0.14390  0.42640  Biso   1.000  H
  H106     1.0000 0.09980  0.14390  0.07360  Biso   1.000  H
  H107     1.0000 0.40020  0.64390  0.42640  Biso   1.000  H
  H108     1.0000 0.59980  0.64390  0.07360  Biso   1.000  H
  H109     1.0000 0.09980  0.85610  0.57360  Biso   1.000  H
  H110     1.0000 0.90020  0.85610  0.92640  Biso   1.000  H
  H111     1.0000 0.59980  0.35610  0.57360  Biso   1.000  H
  H112     1.0000 0.40020  0.35610  0.92640  Biso   1.000  H
  H113     1.0000 0.89580  0.22970  0.31210  Biso   1.000  H
  H114     1.0000 0.10420  0.22970  0.18790  Biso   1.000  H
  H115     1.0000 0.39580  0.72970  0.31210  Biso   1.000  H
  H116     1.0000 0.60420  0.72970  0.18790  Biso   1.000  H
  H117     1.0000 0.10420  0.77030  0.68790  Biso   1.000  H
  H118     1.0000 0.89580  0.77030  0.81210  Biso   1.000  H
  H119     1.0000 0.60420  0.27030  0.68790  Biso   1.000  H
  H120     1.0000 0.39580  0.27030  0.81210  Biso   1.000  H
  N1       1.0000 0.65332  0.12150  0.14120  Biso   1.000  N
  N2       1.0000 0.34668  0.12150  0.35880  Biso   1.000  N
  N3       1.0000 0.15332  0.62150  0.14120  Biso   1.000  N
  N4       1.0000 0.84668  0.62150  0.35880  Biso   1.000  N
  N5       1.0000 0.34668  0.87850  0.85880  Biso   1.000  N
  N6       1.0000 0.65332  0.87850  0.64120  Biso   1.000  N
  N7       1.0000 0.84668  0.37850  0.85880  Biso   1.000  N
  N8       1.0000 0.15332  0.37850  0.64120  Biso   1.000  N
  N9       1.0000 0.51474  0.03120  0.45740  Biso   1.000  N
  N10      1.0000 0.48526  0.03120  0.04260  Biso   1.000  N
  N11      1.0000 0.01474  0.53120  0.45740  Biso   1.000  N
  N12      1.0000 0.98526  0.53120  0.04260  Biso   1.000  N
  N13      1.0000 0.48526  0.96880  0.54260  Biso   1.000  N
  N14      1.0000 0.51474  0.96880  0.95740  Biso   1.000  N
  N15      1.0000 0.98526  0.46880  0.54260  Biso   1.000  N
  N16      1.0000 0.01474  0.46880  0.95740  Biso   1.000  N
  O17      1.0000 0.75537  0.18370  0.21790  Biso   1.000  O
  O18      1.0000 0.24463  0.18370  0.28210  Biso   1.000  O
  O19      1.0000 0.25537  0.68370  0.21790  Biso   1.000  O
  O20      1.0000 0.74463  0.68370  0.28210  Biso   1.000  O
  O21      1.0000 0.24463  0.81630  0.78210  Biso   1.000  O
  O22      1.0000 0.75537  0.81630  0.71790  Biso   1.000  O
  O23      1.0000 0.74463  0.31630  0.78210  Biso   1.000  O
  O24      1.0000 0.25537  0.31630  0.71790  Biso   1.000  O
  O25      1.0000 0.82032  0.26730  0.14900  Biso   1.000  O
  O26      1.0000 0.17968  0.26730  0.35100  Biso   1.000  O
  O27      1.0000 0.32032  0.76730  0.14900  Biso   1.000  O
  O28      1.0000 0.67968  0.76730  0.35100  Biso   1.000  O
  O29      1.0000 0.17968  0.73270  0.85100  Biso   1.000  O
  O30      1.0000 0.82032  0.73270  0.64900  Biso   1.000  O
  O31      1.0000 0.67968  0.23270  0.85100  Biso   1.000  O
  O32      1.0000 0.32032  0.23270  0.64900  Biso   1.000  O
