data_image0
_cell_length_a       24.153
_cell_length_b       13.12
_cell_length_c       8.6
_cell_angle_alpha    90
_cell_angle_beta     92.537
_cell_angle_gamma    90

_symmetry_space_group_name_H-M    "P 1"
_symmetry_int_tables_number       1

loop_
  _symmetry_equiv_pos_as_xyz
  'x, y, z'

loop_
  _atom_site_label
  _atom_site_occupancy
  _atom_site_fract_x
  _atom_site_fract_y
  _atom_site_fract_z
  _atom_site_thermal_displace_type
  _atom_site_B_iso_or_equiv
  _atom_site_type_symbol
  Cu1      1.0000 0.29478  0.29677  0.05598  Biso   1.000  Cu
  Cu2      1.0000 0.70522  0.29677  0.44402  Biso   1.000  Cu
  Cu3      1.0000 0.79478  0.79677  0.05598  Biso   1.000  Cu
  Cu4      1.0000 0.20522  0.79677  0.44402  Biso   1.000  Cu
  Cu5      1.0000 0.70522  0.70323  0.94402  Biso   1.000  Cu
  Cu6      1.0000 0.29478  0.70323  0.55598  Biso   1.000  Cu
  Cu7      1.0000 0.20522  0.20323  0.94402  Biso   1.000  Cu
  Cu8      1.0000 0.79478  0.20323  0.55598  Biso   1.000  Cu
  N1       1.0000 0.36282  0.37267  0.18430  Biso   1.000  N
  N2       1.0000 0.63718  0.37267  0.31570  Biso   1.000  N
  N3       1.0000 0.86282  0.87267  0.18430  Biso   1.000  N
  N4       1.0000 0.13718  0.87267  0.31570  Biso   1.000  N
  N5       1.0000 0.63718  0.62733  0.81570  Biso   1.000  N
  N6       1.0000 0.36282  0.62733  0.68430  Biso   1.000  N
  N7       1.0000 0.13718  0.12733  0.81570  Biso   1.000  N
  N8       1.0000 0.86282  0.12733  0.68430  Biso   1.000  N
  C1       1.0000 0.40250  0.31930  0.25750  Biso   1.000  C
  C2       1.0000 0.59750  0.31930  0.24250  Biso   1.000  C
  C3       1.0000 0.90250  0.81930  0.25750  Biso   1.000  C
  C4       1.0000 0.09750  0.81930  0.24250  Biso   1.000  C
  C5       1.0000 0.59750  0.68070  0.74250  Biso   1.000  C
  C6       1.0000 0.40250  0.68070  0.75750  Biso   1.000  C
  C7       1.0000 0.09750  0.18070  0.74250  Biso   1.000  C
  C8       1.0000 0.90250  0.18070  0.75750  Biso   1.000  C
  H1       1.0000 0.40330  0.24920  0.24180  Biso   1.000  H
  H2       1.0000 0.59670  0.24920  0.25820  Biso   1.000  H
  H3       1.0000 0.90330  0.74920  0.24180  Biso   1.000  H
  H4       1.0000 0.09670  0.74920  0.25820  Biso   1.000  H
  H5       1.0000 0.59670  0.75080  0.75820  Biso   1.000  H
  H6       1.0000 0.40330  0.75080  0.74180  Biso   1.000  H
  H7       1.0000 0.09670  0.25080  0.75820  Biso   1.000  H
  H8       1.0000 0.90330  0.25080  0.74180  Biso   1.000  H
  C9       1.0000 0.44307  0.36260  0.35660  Biso   1.000  C
  C10      1.0000 0.55693  0.36260  0.14340  Biso   1.000  C
  C11      1.0000 0.94307  0.86260  0.35660  Biso   1.000  C
  C12      1.0000 0.05693  0.86260  0.14340  Biso   1.000  C
  C13      1.0000 0.55693  0.63740  0.64340  Biso   1.000  C
  C14      1.0000 0.44307  0.63740  0.85660  Biso   1.000  C
  C15      1.0000 0.05693  0.13740  0.64340  Biso   1.000  C
  C16      1.0000 0.94307  0.13740  0.85660  Biso   1.000  C
  H9       1.0000 0.47010  0.32280  0.40750  Biso   1.000  H
  H10      1.0000 0.52990  0.32280  0.09250  Biso   1.000  H
  H11      1.0000 0.97010  0.82280  0.40750  Biso   1.000  H
  H12      1.0000 0.02990  0.82280  0.09250  Biso   1.000  H
  H13      1.0000 0.52990  0.67720  0.59250  Biso   1.000  H
  H14      1.0000 0.47010  0.67720  0.90750  Biso   1.000  H
  H15      1.0000 0.02990  0.17720  0.59250  Biso   1.000  H
  H16      1.0000 0.97010  0.17720  0.90750  Biso   1.000  H
  C17      1.0000 0.44175  0.46670  0.37640  Biso   1.000  C
  C18      1.0000 0.55825  0.46670  0.12360  Biso   1.000  C
  C19      1.0000 0.94175  0.96670  0.37640  Biso   1.000  C
  C20      1.0000 0.05825  0.96670  0.12360  Biso   1.000  C
  C21      1.0000 0.55825  0.53330  0.62360  Biso   1.000  C
  C22      1.0000 0.44175  0.53330  0.87640  Biso   1.000  C
  C23      1.0000 0.05825  0.03330  0.62360  Biso   1.000  C
  C24      1.0000 0.94175  0.03330  0.87640  Biso   1.000  C
  C25      1.0000 0.40093  0.52290  0.30360  Biso   1.000  C
  C26      1.0000 0.59907  0.52290  0.19640  Biso   1.000  C
  C27      1.0000 0.90093  0.02290  0.30360  Biso   1.000  C
  C28      1.0000 0.09907  0.02290  0.19640  Biso   1.000  C
  C29      1.0000 0.59907  0.47710  0.69640  Biso   1.000  C
  C30      1.0000 0.40093  0.47710  0.80360  Biso   1.000  C
  C31      1.0000 0.09907  0.97710  0.69640  Biso   1.000  C
  C32      1.0000 0.90093  0.97710  0.80360  Biso   1.000  C
  H17      1.0000 0.39940  0.59320  0.31680  Biso   1.000  H
  H18      1.0000 0.60060  0.59320  0.18320  Biso   1.000  H
  H19      1.0000 0.89940  0.09320  0.31680  Biso   1.000  H
  H20      1.0000 0.10060  0.09320  0.18320  Biso   1.000  H
  H21      1.0000 0.60060  0.40680  0.68320  Biso   1.000  H
  H22      1.0000 0.39940  0.40680  0.81680  Biso   1.000  H
  H23      1.0000 0.10060  0.90680  0.68320  Biso   1.000  H
  H24      1.0000 0.89940  0.90680  0.81680  Biso   1.000  H
  C33      1.0000 0.36205  0.47300  0.20990  Biso   1.000  C
  C34      1.0000 0.63795  0.47300  0.29010  Biso   1.000  C
  C35      1.0000 0.86205  0.97300  0.20990  Biso   1.000  C
  C36      1.0000 0.13795  0.97300  0.29010  Biso   1.000  C
  C37      1.0000 0.63795  0.52700  0.79010  Biso   1.000  C
  C38      1.0000 0.36205  0.52700  0.70990  Biso   1.000  C
  C39      1.0000 0.13795  0.02700  0.79010  Biso   1.000  C
  C40      1.0000 0.86205  0.02700  0.70990  Biso   1.000  C
  H25      1.0000 0.33370  0.51120  0.16190  Biso   1.000  H
  H26      1.0000 0.66630  0.51120  0.33810  Biso   1.000  H
  H27      1.0000 0.83370  0.01120  0.16190  Biso   1.000  H
  H28      1.0000 0.16630  0.01120  0.33810  Biso   1.000  H
  H29      1.0000 0.66630  0.48880  0.83810  Biso   1.000  H
  H30      1.0000 0.33370  0.48880  0.66190  Biso   1.000  H
  H31      1.0000 0.16630  0.98880  0.83810  Biso   1.000  H
  H32      1.0000 0.83370  0.98880  0.66190  Biso   1.000  H
  N9       1.0000 0.48285  0.52640  0.47050  Biso   1.000  N
  N10      1.0000 0.51715  0.52640  0.02950  Biso   1.000  N
  N11      1.0000 0.98285  0.02640  0.47050  Biso   1.000  N
  N12      1.0000 0.01715  0.02640  0.02950  Biso   1.000  N
  N13      1.0000 0.51715  0.47360  0.52950  Biso   1.000  N
  N14      1.0000 0.48285  0.47360  0.97050  Biso   1.000  N
  N15      1.0000 0.01715  0.97360  0.52950  Biso   1.000  N
  N16      1.0000 0.98285  0.97360  0.97050  Biso   1.000  N
  O1       1.0000 0.32161  0.15738  0.10160  Biso   1.000  O
  O2       1.0000 0.67839  0.15738  0.39840  Biso   1.000  O
  O3       1.0000 0.82161  0.65738  0.10160  Biso   1.000  O
  O4       1.0000 0.17839  0.65738  0.39840  Biso   1.000  O
  O5       1.0000 0.67839  0.84262  0.89840  Biso   1.000  O
  O6       1.0000 0.32161  0.84262  0.60160  Biso   1.000  O
  O7       1.0000 0.17839  0.34262  0.89840  Biso   1.000  O
  O8       1.0000 0.82161  0.34262  0.60160  Biso   1.000  O
  O9       1.0000 0.24532  0.07834  0.01020  Biso   1.000  O
  O10      1.0000 0.75468  0.07834  0.48980  Biso   1.000  O
  O11      1.0000 0.74532  0.57834  0.01020  Biso   1.000  O
  O12      1.0000 0.25468  0.57834  0.48980  Biso   1.000  O
  O13      1.0000 0.75468  0.92166  0.98980  Biso   1.000  O
  O14      1.0000 0.24532  0.92166  0.51020  Biso   1.000  O
  O15      1.0000 0.25468  0.42166  0.98980  Biso   1.000  O
  O16      1.0000 0.74532  0.42166  0.51020  Biso   1.000  O
  C41      1.0000 0.29340  0.07987  0.07280  Biso   1.000  C
  C42      1.0000 0.70660  0.07987  0.42720  Biso   1.000  C
  C43      1.0000 0.79340  0.57987  0.07280  Biso   1.000  C
  C44      1.0000 0.20660  0.57987  0.42720  Biso   1.000  C
  C45      1.0000 0.70660  0.92013  0.92720  Biso   1.000  C
  C46      1.0000 0.29340  0.92013  0.57280  Biso   1.000  C
  C47      1.0000 0.20660  0.42013  0.92720  Biso   1.000  C
  C48      1.0000 0.79340  0.42013  0.57280  Biso   1.000  C
  C49      1.0000 0.31814  0.97817  0.12620  Biso   1.000  C
  C50      1.0000 0.68186  0.97817  0.37380  Biso   1.000  C
  C51      1.0000 0.81814  0.47817  0.12620  Biso   1.000  C
  C52      1.0000 0.18186  0.47817  0.37380  Biso   1.000  C
  C53      1.0000 0.68186  0.02183  0.87380  Biso   1.000  C
  C54      1.0000 0.31814  0.02183  0.62620  Biso   1.000  C
  C55      1.0000 0.18186  0.52183  0.87380  Biso   1.000  C
  C56      1.0000 0.81814  0.52183  0.62620  Biso   1.000  C
  H33      1.0000 0.35800  0.98590  0.13820  Biso   1.000  H
  H34      1.0000 0.64200  0.98590  0.36180  Biso   1.000  H
  H35      1.0000 0.85800  0.48590  0.13820  Biso   1.000  H
  H36      1.0000 0.14200  0.48590  0.36180  Biso   1.000  H
  H37      1.0000 0.64200  0.01410  0.86180  Biso   1.000  H
  H38      1.0000 0.35800  0.01410  0.63820  Biso   1.000  H
  H39      1.0000 0.14200  0.51410  0.86180  Biso   1.000  H
  H40      1.0000 0.85800  0.51410  0.63820  Biso   1.000  H
  H41      1.0000 0.30460  0.96230  0.22780  Biso   1.000  H
  H42      1.0000 0.69540  0.96230  0.27220  Biso   1.000  H
  H43      1.0000 0.80460  0.46230  0.22780  Biso   1.000  H
  H44      1.0000 0.19540  0.46230  0.27220  Biso   1.000  H
  H45      1.0000 0.69540  0.03770  0.77220  Biso   1.000  H
  H46      1.0000 0.30460  0.03770  0.72780  Biso   1.000  H
  H47      1.0000 0.19540  0.53770  0.77220  Biso   1.000  H
  H48      1.0000 0.80460  0.53770  0.72780  Biso   1.000  H
  C57      1.0000 0.30563  0.88834  0.01870  Biso   1.000  C
  C58      1.0000 0.69437  0.88834  0.48130  Biso   1.000  C
  C59      1.0000 0.80563  0.38834  0.01870  Biso   1.000  C
  C60      1.0000 0.19437  0.38834  0.48130  Biso   1.000  C
  C61      1.0000 0.69437  0.11166  0.98130  Biso   1.000  C
  C62      1.0000 0.30563  0.11166  0.51870  Biso   1.000  C
  C63      1.0000 0.19437  0.61166  0.98130  Biso   1.000  C
  C64      1.0000 0.80563  0.61166  0.51870  Biso   1.000  C
  H49      1.0000 0.32420  0.89830  0.92220  Biso   1.000  H
  H50      1.0000 0.67580  0.89830  0.57780  Biso   1.000  H
  H51      1.0000 0.82420  0.39830  0.92220  Biso   1.000  H
  H52      1.0000 0.17580  0.39830  0.57780  Biso   1.000  H
  H53      1.0000 0.67580  0.10170  0.07780  Biso   1.000  H
  H54      1.0000 0.32420  0.10170  0.42220  Biso   1.000  H
  H55      1.0000 0.17580  0.60170  0.07780  Biso   1.000  H
  H56      1.0000 0.82420  0.60170  0.42220  Biso   1.000  H
  H57      1.0000 0.26610  0.88560  0.99410  Biso   1.000  H
  H58      1.0000 0.73390  0.88560  0.50590  Biso   1.000  H
  H59      1.0000 0.76610  0.38560  0.99410  Biso   1.000  H
  H60      1.0000 0.23390  0.38560  0.50590  Biso   1.000  H
  H61      1.0000 0.73390  0.11440  0.00590  Biso   1.000  H
  H62      1.0000 0.26610  0.11440  0.49410  Biso   1.000  H
  H63      1.0000 0.23390  0.61440  0.00590  Biso   1.000  H
  H64      1.0000 0.76610  0.61440  0.49410  Biso   1.000  H
  C65      1.0000 0.32436  0.78745  0.09170  Biso   1.000  C
  C66      1.0000 0.67564  0.78745  0.40830  Biso   1.000  C
  C67      1.0000 0.82436  0.28745  0.09170  Biso   1.000  C
  C68      1.0000 0.17564  0.28745  0.40830  Biso   1.000  C
  C69      1.0000 0.67564  0.21255  0.90830  Biso   1.000  C
  C70      1.0000 0.32436  0.21255  0.59170  Biso   1.000  C
  C71      1.0000 0.17564  0.71255  0.90830  Biso   1.000  C
  C72      1.0000 0.82436  0.71255  0.59170  Biso   1.000  C
  H65      1.0000 0.31610  0.73280  0.01830  Biso   1.000  H
  H66      1.0000 0.68390  0.73280  0.48170  Biso   1.000  H
  H67      1.0000 0.81610  0.23280  0.01830  Biso   1.000  H
  H68      1.0000 0.18390  0.23280  0.48170  Biso   1.000  H
  H69      1.0000 0.68390  0.26720  0.98170  Biso   1.000  H
  H70      1.0000 0.31610  0.26720  0.51830  Biso   1.000  H
  H71      1.0000 0.18390  0.76720  0.98170  Biso   1.000  H
  H72      1.0000 0.81610  0.76720  0.51830  Biso   1.000  H
  H73      1.0000 0.36420  0.78920  0.11160  Biso   1.000  H
  H74      1.0000 0.63580  0.78920  0.38840  Biso   1.000  H
  H75      1.0000 0.86420  0.28920  0.11160  Biso   1.000  H
  H76      1.0000 0.13580  0.28920  0.38840  Biso   1.000  H
  H77      1.0000 0.63580  0.21080  0.88840  Biso   1.000  H
  H78      1.0000 0.36420  0.21080  0.61160  Biso   1.000  H
  H79      1.0000 0.13580  0.71080  0.88840  Biso   1.000  H
  H80      1.0000 0.86420  0.71080  0.61160  Biso   1.000  H
  C73      1.0000 0.29674  0.76485  0.24200  Biso   1.000  C
  C74      1.0000 0.70326  0.76485  0.25800  Biso   1.000  C
  C75      1.0000 0.79674  0.26485  0.24200  Biso   1.000  C
  C76      1.0000 0.20326  0.26485  0.25800  Biso   1.000  C
  C77      1.0000 0.70326  0.23515  0.75800  Biso   1.000  C
  C78      1.0000 0.29674  0.23515  0.74200  Biso   1.000  C
  C79      1.0000 0.20326  0.73515  0.75800  Biso   1.000  C
  C80      1.0000 0.79674  0.73515  0.74200  Biso   1.000  C
  O17      1.0000 0.24765  0.79427  0.25327  Biso   1.000  O
  O18      1.0000 0.75235  0.79427  0.24673  Biso   1.000  O
  O19      1.0000 0.74765  0.29427  0.25327  Biso   1.000  O
  O20      1.0000 0.25235  0.29427  0.24673  Biso   1.000  O
  O21      1.0000 0.75235  0.20573  0.74673  Biso   1.000  O
  O22      1.0000 0.24765  0.20573  0.75327  Biso   1.000  O
  O23      1.0000 0.25235  0.70573  0.74673  Biso   1.000  O
  O24      1.0000 0.74765  0.70573  0.75327  Biso   1.000  O
  O25      1.0000 0.32467  0.71854  0.34794  Biso   1.000  O
  O26      1.0000 0.67533  0.71854  0.15206  Biso   1.000  O
  O27      1.0000 0.82467  0.21854  0.34794  Biso   1.000  O
  O28      1.0000 0.17533  0.21854  0.15206  Biso   1.000  O
  O29      1.0000 0.67533  0.28146  0.65206  Biso   1.000  O
  O30      1.0000 0.32467  0.28146  0.84794  Biso   1.000  O
  O31      1.0000 0.17533  0.78146  0.65206  Biso   1.000  O
  O32      1.0000 0.82467  0.78146  0.84794  Biso   1.000  O
