data_image0
_cell_length_a       26.9173
_cell_length_b       12.987
_cell_length_c       8.574
_cell_angle_alpha    90
_cell_angle_beta     104.82
_cell_angle_gamma    90

_symmetry_space_group_name_H-M    "P 1"
_symmetry_int_tables_number       1

loop_
  _symmetry_equiv_pos_as_xyz
  'x, y, z'

loop_
  _atom_site_label
  _atom_site_occupancy
  _atom_site_fract_x
  _atom_site_fract_y
  _atom_site_fract_z
  _atom_site_thermal_displace_type
  _atom_site_B_iso_or_equiv
  _atom_site_type_symbol
  Cu1      1.0000 0.79112  0.20256  0.58488  Biso   1.000  Cu
  Cu2      1.0000 0.20888  0.20256  0.91512  Biso   1.000  Cu
  Cu3      1.0000 0.29112  0.70256  0.58488  Biso   1.000  Cu
  Cu4      1.0000 0.70888  0.70256  0.91512  Biso   1.000  Cu
  Cu5      1.0000 0.20888  0.79744  0.41512  Biso   1.000  Cu
  Cu6      1.0000 0.79112  0.79744  0.08488  Biso   1.000  Cu
  Cu7      1.0000 0.70888  0.29744  0.41512  Biso   1.000  Cu
  Cu8      1.0000 0.29112  0.29744  0.08488  Biso   1.000  Cu
  C1       1.0000 0.88869  0.18880  0.86030  Biso   1.000  C
  C2       1.0000 0.11131  0.18880  0.63970  Biso   1.000  C
  C3       1.0000 0.38869  0.68880  0.86030  Biso   1.000  C
  C4       1.0000 0.61131  0.68880  0.63970  Biso   1.000  C
  C5       1.0000 0.11131  0.81120  0.13970  Biso   1.000  C
  C6       1.0000 0.88869  0.81120  0.36030  Biso   1.000  C
  C7       1.0000 0.61131  0.31120  0.13970  Biso   1.000  C
  C8       1.0000 0.38869  0.31120  0.36030  Biso   1.000  C
  H1       1.0000 0.88740  0.25950  0.84200  Biso   1.000  H
  H2       1.0000 0.11260  0.25950  0.65800  Biso   1.000  H
  H3       1.0000 0.38740  0.75950  0.84200  Biso   1.000  H
  H4       1.0000 0.61260  0.75950  0.65800  Biso   1.000  H
  H5       1.0000 0.11260  0.74050  0.15800  Biso   1.000  H
  H6       1.0000 0.88740  0.74050  0.34200  Biso   1.000  H
  H7       1.0000 0.61260  0.24050  0.15800  Biso   1.000  H
  H8       1.0000 0.38740  0.24050  0.34200  Biso   1.000  H
  C9       1.0000 0.78969  0.42373  0.59710  Biso   1.000  C
  C10      1.0000 0.21031  0.42373  0.90290  Biso   1.000  C
  C11      1.0000 0.28969  0.92373  0.59710  Biso   1.000  C
  C12      1.0000 0.71031  0.92373  0.90290  Biso   1.000  C
  C13      1.0000 0.21031  0.57627  0.40290  Biso   1.000  C
  C14      1.0000 0.78969  0.57627  0.09710  Biso   1.000  C
  C15      1.0000 0.71031  0.07627  0.40290  Biso   1.000  C
  C16      1.0000 0.28969  0.07627  0.09710  Biso   1.000  C
  C17      1.0000 0.92626  0.15180  0.98780  Biso   1.000  C
  C18      1.0000 0.07374  0.15180  0.51220  Biso   1.000  C
  C19      1.0000 0.42626  0.65180  0.98780  Biso   1.000  C
  C20      1.0000 0.57374  0.65180  0.51220  Biso   1.000  C
  C21      1.0000 0.07374  0.84820  0.01220  Biso   1.000  C
  C22      1.0000 0.92626  0.84820  0.48780  Biso   1.000  C
  C23      1.0000 0.57374  0.34820  0.01220  Biso   1.000  C
  C24      1.0000 0.42626  0.34820  0.48780  Biso   1.000  C
  H9       1.0000 0.94980  0.19610  0.05350  Biso   1.000  H
  H10      1.0000 0.05020  0.19610  0.44650  Biso   1.000  H
  H11      1.0000 0.44980  0.69610  0.05350  Biso   1.000  H
  H12      1.0000 0.55020  0.69610  0.44650  Biso   1.000  H
  H13      1.0000 0.05020  0.80390  0.94650  Biso   1.000  H
  H14      1.0000 0.94980  0.80390  0.55350  Biso   1.000  H
  H15      1.0000 0.55020  0.30390  0.94650  Biso   1.000  H
  H16      1.0000 0.44980  0.30390  0.55350  Biso   1.000  H
  C25      1.0000 0.81370  0.52390  0.66470  Biso   1.000  C
  C26      1.0000 0.18630  0.52390  0.83530  Biso   1.000  C
  C27      1.0000 0.31370  0.02390  0.66470  Biso   1.000  C
  C28      1.0000 0.68630  0.02390  0.83530  Biso   1.000  C
  C29      1.0000 0.18630  0.47610  0.33530  Biso   1.000  C
  C30      1.0000 0.81370  0.47610  0.16470  Biso   1.000  C
  C31      1.0000 0.68630  0.97610  0.33530  Biso   1.000  C
  C32      1.0000 0.31370  0.97610  0.16470  Biso   1.000  C
  H17      1.0000 0.85070  0.51460  0.69820  Biso   1.000  H
  H18      1.0000 0.14930  0.51460  0.80180  Biso   1.000  H
  H19      1.0000 0.35070  0.01460  0.69820  Biso   1.000  H
  H20      1.0000 0.64930  0.01460  0.80180  Biso   1.000  H
  H21      1.0000 0.14930  0.48540  0.30180  Biso   1.000  H
  H22      1.0000 0.85070  0.48540  0.19820  Biso   1.000  H
  H23      1.0000 0.64930  0.98540  0.30180  Biso   1.000  H
  H24      1.0000 0.35070  0.98540  0.19820  Biso   1.000  H
  H25      1.0000 0.80230  0.53990  0.76040  Biso   1.000  H
  H26      1.0000 0.19770  0.53990  0.73960  Biso   1.000  H
  H27      1.0000 0.30230  0.03990  0.76040  Biso   1.000  H
  H28      1.0000 0.69770  0.03990  0.73960  Biso   1.000  H
  H29      1.0000 0.19770  0.46010  0.23960  Biso   1.000  H
  H30      1.0000 0.80230  0.46010  0.26040  Biso   1.000  H
  H31      1.0000 0.69770  0.96010  0.23960  Biso   1.000  H
  H32      1.0000 0.30230  0.96010  0.26040  Biso   1.000  H
  C33      1.0000 0.92818  0.04640  0.01580  Biso   1.000  C
  C34      1.0000 0.07182  0.04640  0.48420  Biso   1.000  C
  C35      1.0000 0.42818  0.54640  0.01580  Biso   1.000  C
  C36      1.0000 0.57182  0.54640  0.48420  Biso   1.000  C
  C37      1.0000 0.07182  0.95360  0.98420  Biso   1.000  C
  C38      1.0000 0.92818  0.95360  0.51580  Biso   1.000  C
  C39      1.0000 0.57182  0.45360  0.98420  Biso   1.000  C
  C40      1.0000 0.42818  0.45360  0.51580  Biso   1.000  C
  C41      1.0000 0.80203  0.61590  0.55100  Biso   1.000  C
  C42      1.0000 0.19797  0.61590  0.94900  Biso   1.000  C
  C43      1.0000 0.30203  0.11590  0.55100  Biso   1.000  C
  C44      1.0000 0.69797  0.11590  0.94900  Biso   1.000  C
  C45      1.0000 0.19797  0.38410  0.44900  Biso   1.000  C
  C46      1.0000 0.80203  0.38410  0.05100  Biso   1.000  C
  C47      1.0000 0.69797  0.88410  0.44900  Biso   1.000  C
  C48      1.0000 0.30203  0.88410  0.05100  Biso   1.000  C
  H33      1.0000 0.76530  0.61890  0.50210  Biso   1.000  H
  H34      1.0000 0.23470  0.61890  0.99790  Biso   1.000  H
  H35      1.0000 0.26530  0.11890  0.50210  Biso   1.000  H
  H36      1.0000 0.73470  0.11890  0.99790  Biso   1.000  H
  H37      1.0000 0.23470  0.38110  0.49790  Biso   1.000  H
  H38      1.0000 0.76530  0.38110  0.00210  Biso   1.000  H
  H39      1.0000 0.73470  0.88110  0.49790  Biso   1.000  H
  H40      1.0000 0.26530  0.88110  0.00210  Biso   1.000  H
  H41      1.0000 0.81920  0.60670  0.46520  Biso   1.000  H
  H42      1.0000 0.18080  0.60670  0.03480  Biso   1.000  H
  H43      1.0000 0.31920  0.10670  0.46520  Biso   1.000  H
  H44      1.0000 0.68080  0.10670  0.03480  Biso   1.000  H
  H45      1.0000 0.18080  0.39330  0.53480  Biso   1.000  H
  H46      1.0000 0.81920  0.39330  0.96520  Biso   1.000  H
  H47      1.0000 0.68080  0.89330  0.53480  Biso   1.000  H
  H48      1.0000 0.31920  0.89330  0.96520  Biso   1.000  H
  C49      1.0000 0.89193  0.98330  0.91570  Biso   1.000  C
  C50      1.0000 0.10807  0.98330  0.58430  Biso   1.000  C
  C51      1.0000 0.39193  0.48330  0.91570  Biso   1.000  C
  C52      1.0000 0.60807  0.48330  0.58430  Biso   1.000  C
  C53      1.0000 0.10807  0.01670  0.08430  Biso   1.000  C
  C54      1.0000 0.89193  0.01670  0.41570  Biso   1.000  C
  C55      1.0000 0.60807  0.51670  0.08430  Biso   1.000  C
  C56      1.0000 0.39193  0.51670  0.41570  Biso   1.000  C
  H49      1.0000 0.89220  0.91250  0.93190  Biso   1.000  H
  H50      1.0000 0.10780  0.91250  0.56810  Biso   1.000  H
  H51      1.0000 0.39220  0.41250  0.93190  Biso   1.000  H
  H52      1.0000 0.60780  0.41250  0.56810  Biso   1.000  H
  H53      1.0000 0.10780  0.08750  0.06810  Biso   1.000  H
  H54      1.0000 0.89220  0.08750  0.43190  Biso   1.000  H
  H55      1.0000 0.60780  0.58750  0.06810  Biso   1.000  H
  H56      1.0000 0.39220  0.58750  0.43190  Biso   1.000  H
  C57      1.0000 0.81947  0.71730  0.63740  Biso   1.000  C
  C58      1.0000 0.18053  0.71730  0.86260  Biso   1.000  C
  C59      1.0000 0.31947  0.21730  0.63740  Biso   1.000  C
  C60      1.0000 0.68053  0.21730  0.86260  Biso   1.000  C
  C61      1.0000 0.18053  0.28270  0.36260  Biso   1.000  C
  C62      1.0000 0.81947  0.28270  0.13740  Biso   1.000  C
  C63      1.0000 0.68053  0.78270  0.36260  Biso   1.000  C
  C64      1.0000 0.31947  0.78270  0.13740  Biso   1.000  C
  H57      1.0000 0.85640  0.71540  0.68170  Biso   1.000  H
  H58      1.0000 0.14360  0.71540  0.81830  Biso   1.000  H
  H59      1.0000 0.35640  0.21540  0.68170  Biso   1.000  H
  H60      1.0000 0.64360  0.21540  0.81830  Biso   1.000  H
  H61      1.0000 0.14360  0.28460  0.31830  Biso   1.000  H
  H62      1.0000 0.85640  0.28460  0.18170  Biso   1.000  H
  H63      1.0000 0.64360  0.78460  0.31830  Biso   1.000  H
  H64      1.0000 0.35640  0.78460  0.18170  Biso   1.000  H
  H65      1.0000 0.81170  0.77310  0.55980  Biso   1.000  H
  H66      1.0000 0.18830  0.77310  0.94020  Biso   1.000  H
  H67      1.0000 0.31170  0.27310  0.55980  Biso   1.000  H
  H68      1.0000 0.68830  0.27310  0.94020  Biso   1.000  H
  H69      1.0000 0.18830  0.22690  0.44020  Biso   1.000  H
  H70      1.0000 0.81170  0.22690  0.05980  Biso   1.000  H
  H71      1.0000 0.68830  0.72690  0.44020  Biso   1.000  H
  H72      1.0000 0.31170  0.72690  0.05980  Biso   1.000  H
  C65      1.0000 0.85553  0.02850  0.79150  Biso   1.000  C
  C66      1.0000 0.14447  0.02850  0.70850  Biso   1.000  C
  C67      1.0000 0.35553  0.52850  0.79150  Biso   1.000  C
  C68      1.0000 0.64447  0.52850  0.70850  Biso   1.000  C
  C69      1.0000 0.14447  0.97150  0.20850  Biso   1.000  C
  C70      1.0000 0.85553  0.97150  0.29150  Biso   1.000  C
  C71      1.0000 0.64447  0.47150  0.20850  Biso   1.000  C
  C72      1.0000 0.35553  0.47150  0.29150  Biso   1.000  C
  H73      1.0000 0.83080  0.98660  0.72560  Biso   1.000  H
  H74      1.0000 0.16920  0.98660  0.77440  Biso   1.000  H
  H75      1.0000 0.33080  0.48660  0.72560  Biso   1.000  H
  H76      1.0000 0.66920  0.48660  0.77440  Biso   1.000  H
  H77      1.0000 0.16920  0.01340  0.27440  Biso   1.000  H
  H78      1.0000 0.83080  0.01340  0.22560  Biso   1.000  H
  H79      1.0000 0.66920  0.51340  0.27440  Biso   1.000  H
  H80      1.0000 0.33080  0.51340  0.22560  Biso   1.000  H
  C73      1.0000 0.79413  0.73861  0.77140  Biso   1.000  C
  C74      1.0000 0.20587  0.73861  0.72860  Biso   1.000  C
  C75      1.0000 0.29413  0.23861  0.77140  Biso   1.000  C
  C76      1.0000 0.70587  0.23861  0.72860  Biso   1.000  C
  C77      1.0000 0.20587  0.26139  0.22860  Biso   1.000  C
  C78      1.0000 0.79413  0.26139  0.27140  Biso   1.000  C
  C79      1.0000 0.70587  0.76139  0.22860  Biso   1.000  C
  C80      1.0000 0.29413  0.76139  0.27140  Biso   1.000  C
  C81      1.0000 0.96813  0.00201  0.14760  Biso   1.000  C
  C82      1.0000 0.03187  0.00201  0.35240  Biso   1.000  C
  C83      1.0000 0.46813  0.50201  0.14760  Biso   1.000  C
  C84      1.0000 0.53187  0.50201  0.35240  Biso   1.000  C
  C85      1.0000 0.03187  0.99799  0.85240  Biso   1.000  C
  C86      1.0000 0.96813  0.99799  0.64760  Biso   1.000  C
  C87      1.0000 0.53187  0.49799  0.85240  Biso   1.000  C
  C88      1.0000 0.46813  0.49799  0.64760  Biso   1.000  C
  N1       1.0000 0.85400  0.13007  0.76100  Biso   1.000  N
  N2       1.0000 0.14600  0.13007  0.73900  Biso   1.000  N
  N3       1.0000 0.35400  0.63007  0.76100  Biso   1.000  N
  N4       1.0000 0.64600  0.63007  0.73900  Biso   1.000  N
  N5       1.0000 0.14600  0.86993  0.23900  Biso   1.000  N
  N6       1.0000 0.85400  0.86993  0.26100  Biso   1.000  N
  N7       1.0000 0.64600  0.36993  0.23900  Biso   1.000  N
  N8       1.0000 0.35400  0.36993  0.26100  Biso   1.000  N
  N9       1.0000 0.97887  0.90660  0.18150  Biso   1.000  N
  N10      1.0000 0.02113  0.90660  0.31850  Biso   1.000  N
  N11      1.0000 0.47887  0.40660  0.18150  Biso   1.000  N
  N12      1.0000 0.52113  0.40660  0.31850  Biso   1.000  N
  N13      1.0000 0.02113  0.09340  0.81850  Biso   1.000  N
  N14      1.0000 0.97887  0.09340  0.68150  Biso   1.000  N
  N15      1.0000 0.52113  0.59340  0.81850  Biso   1.000  N
  N16      1.0000 0.47887  0.59340  0.68150  Biso   1.000  N
  O1       1.0000 0.00000  0.06746  0.25000  Biso   1.000  O
  O2       1.0000 0.50000  0.56746  0.25000  Biso   1.000  O
  O3       1.0000 0.00000  0.93254  0.75000  Biso   1.000  O
  O4       1.0000 0.50000  0.43254  0.75000  Biso   1.000  O
  O5       1.0000 0.81573  0.34393  0.64370  Biso   1.000  O
  O6       1.0000 0.18427  0.34393  0.85630  Biso   1.000  O
  O7       1.0000 0.31573  0.84393  0.64370  Biso   1.000  O
  O8       1.0000 0.68427  0.84393  0.85630  Biso   1.000  O
  O9       1.0000 0.18427  0.65607  0.35630  Biso   1.000  O
  O10      1.0000 0.81573  0.65607  0.14370  Biso   1.000  O
  O11      1.0000 0.68427  0.15607  0.35630  Biso   1.000  O
  O12      1.0000 0.31573  0.15607  0.14370  Biso   1.000  O
  O13      1.0000 0.74531  0.42483  0.50250  Biso   1.000  O
  O14      1.0000 0.25469  0.42483  0.99750  Biso   1.000  O
  O15      1.0000 0.24531  0.92483  0.50250  Biso   1.000  O
  O16      1.0000 0.75469  0.92483  0.99750  Biso   1.000  O
  O17      1.0000 0.25469  0.57517  0.49750  Biso   1.000  O
  O18      1.0000 0.74531  0.57517  0.00250  Biso   1.000  O
  O19      1.0000 0.75469  0.07517  0.49750  Biso   1.000  O
  O20      1.0000 0.24531  0.07517  0.00250  Biso   1.000  O
  O21      1.0000 0.81980  0.78511  0.89550  Biso   1.000  O
  O22      1.0000 0.18020  0.78511  0.60450  Biso   1.000  O
  O23      1.0000 0.31980  0.28511  0.89550  Biso   1.000  O
  O24      1.0000 0.68020  0.28511  0.60450  Biso   1.000  O
  O25      1.0000 0.18020  0.21489  0.10450  Biso   1.000  O
  O26      1.0000 0.81980  0.21489  0.39550  Biso   1.000  O
  O27      1.0000 0.68020  0.71489  0.10450  Biso   1.000  O
  O28      1.0000 0.31980  0.71489  0.39550  Biso   1.000  O
  O29      1.0000 0.74895  0.70765  0.75150  Biso   1.000  O
  O30      1.0000 0.25105  0.70765  0.74850  Biso   1.000  O
  O31      1.0000 0.24895  0.20765  0.75150  Biso   1.000  O
  O32      1.0000 0.75105  0.20765  0.74850  Biso   1.000  O
  O33      1.0000 0.25105  0.29235  0.24850  Biso   1.000  O
  O34      1.0000 0.74895  0.29235  0.25150  Biso   1.000  O
  O35      1.0000 0.75105  0.79235  0.24850  Biso   1.000  O
  O36      1.0000 0.24895  0.79235  0.25150  Biso   1.000  O
