data_image0
_cell_length_a       7.462
_cell_length_b       9.959
_cell_length_c       12.266
_cell_angle_alpha    75.016
_cell_angle_beta     82.384
_cell_angle_gamma    74.757

_symmetry_space_group_name_H-M    "P 1"
_symmetry_int_tables_number       1

loop_
  _symmetry_equiv_pos_as_xyz
  'x, y, z'

loop_
  _atom_site_label
  _atom_site_occupancy
  _atom_site_fract_x
  _atom_site_fract_y
  _atom_site_fract_z
  _atom_site_thermal_displace_type
  _atom_site_B_iso_or_equiv
  _atom_site_type_symbol
  Cu1      1.0000 0.73883  0.69465  0.69028  Biso   1.000  Cu
  Cu2      1.0000 0.26117  0.30535  0.30972  Biso   1.000  Cu
  N1       1.0000 0.81580  0.82270  0.54320  Biso   1.000  N
  N2       1.0000 0.18420  0.17730  0.45680  Biso   1.000  N
  N3       1.0000 0.60270  0.88350  0.72260  Biso   1.000  N
  N4       1.0000 0.39730  0.11650  0.27740  Biso   1.000  N
  C1       1.0000 0.92250  0.78690  0.45490  Biso   1.000  C
  C2       1.0000 0.07750  0.21310  0.54510  Biso   1.000  C
  H1       1.0000 0.97700  0.69080  0.45760  Biso   1.000  H
  H2       1.0000 0.02300  0.30920  0.54240  Biso   1.000  H
  C3       1.0000 0.95510  0.88960  0.35820  Biso   1.000  C
  C4       1.0000 0.04490  0.11040  0.64180  Biso   1.000  C
  H3       1.0000 0.02990  0.86140  0.29720  Biso   1.000  H
  H4       1.0000 0.97010  0.13860  0.70280  Biso   1.000  H
  C5       1.0000 0.87820  0.03100  0.35240  Biso   1.000  C
  C6       1.0000 0.12180  0.96900  0.64760  Biso   1.000  C
  H5       1.0000 0.90180  0.09940  0.28810  Biso   1.000  H
  H6       1.0000 0.09820  0.90060  0.71190  Biso   1.000  H
  C7       1.0000 0.76290  0.07330  0.44400  Biso   1.000  C
  C8       1.0000 0.23710  0.92670  0.55600  Biso   1.000  C
  C9       1.0000 0.67400  0.21740  0.44820  Biso   1.000  C
  C10      1.0000 0.32600  0.78260  0.55180  Biso   1.000  C
  H7       1.0000 0.68980  0.29120  0.38620  Biso   1.000  H
  H8       1.0000 0.31020  0.70880  0.61380  Biso   1.000  H
  C11      1.0000 0.56760  0.24880  0.54010  Biso   1.000  C
  C12      1.0000 0.43240  0.75120  0.45990  Biso   1.000  C
  H9       1.0000 0.51260  0.34410  0.54030  Biso   1.000  H
  H10      1.0000 0.48740  0.65590  0.45970  Biso   1.000  H
  C13      1.0000 0.53670  0.13840  0.63830  Biso   1.000  C
  C14      1.0000 0.46330  0.86160  0.36170  Biso   1.000  C
  C15      1.0000 0.42910  0.16360  0.73580  Biso   1.000  C
  C16      1.0000 0.57090  0.83640  0.26420  Biso   1.000  C
  H11      1.0000 0.36920  0.25650  0.74100  Biso   1.000  H
  H12      1.0000 0.63080  0.74350  0.25900  Biso   1.000  H
  C17      1.0000 0.41230  0.04970  0.82430  Biso   1.000  C
  C18      1.0000 0.58770  0.95030  0.17570  Biso   1.000  C
  H13      1.0000 0.34230  0.06520  0.89040  Biso   1.000  H
  H14      1.0000 0.65770  0.93480  0.10960  Biso   1.000  H
  C19      1.0000 0.50010  0.91080  0.81500  Biso   1.000  C
  C20      1.0000 0.49990  0.08920  0.18500  Biso   1.000  C
  H15      1.0000 0.48640  0.83470  0.87550  Biso   1.000  H
  H16      1.0000 0.51360  0.16530  0.12450  Biso   1.000  H
  C21      1.0000 0.62300  0.99660  0.63560  Biso   1.000  C
  C22      1.0000 0.37700  0.00340  0.36440  Biso   1.000  C
  C23      1.0000 0.73710  0.96340  0.53860  Biso   1.000  C
  C24      1.0000 0.26290  0.03660  0.46140  Biso   1.000  C
  C25      1.0000 0.10680  0.56780  0.81100  Biso   1.000  C
  C26      1.0000 0.89320  0.43220  0.18900  Biso   1.000  C
  C27      1.0000 0.22420  0.54250  0.90960  Biso   1.000  C
  C28      1.0000 0.77580  0.45750  0.09040  Biso   1.000  C
  H17      1.0000 0.25280  0.63190  0.90980  Biso   1.000  H
  H18      1.0000 0.74720  0.36810  0.09020  Biso   1.000  H
  H19      1.0000 0.15100  0.51460  0.97940  Biso   1.000  H
  H20      1.0000 0.84900  0.48540  0.02060  Biso   1.000  H
  C29      1.0000 0.40450  0.42940  0.90810  Biso   1.000  C
  C30      1.0000 0.59550  0.57060  0.09190  Biso   1.000  C
  H21      1.0000 0.45590  0.40600  0.98120  Biso   1.000  H
  H22      1.0000 0.54410  0.59400  0.01880  Biso   1.000  H
  H23      1.0000 0.37720  0.34360  0.89810  Biso   1.000  H
  H24      1.0000 0.62280  0.65640  0.10190  Biso   1.000  H
  C31      1.0000 0.55030  0.47160  0.81750  Biso   1.000  C
  C32      1.0000 0.44970  0.52840  0.18250  Biso   1.000  C
  O1       1.0000 0.95590  0.66190  0.80726  Biso   1.000  O
  O2       1.0000 0.04410  0.33810  0.19274  Biso   1.000  O
  O3       1.0000 0.16540  0.49530  0.73904  Biso   1.000  O
  O4       1.0000 0.83460  0.50470  0.26096  Biso   1.000  O
  O5       1.0000 0.55550  0.60230  0.79188  Biso   1.000  O
  O6       1.0000 0.44450  0.39770  0.20812  Biso   1.000  O
  O7       1.0000 0.65930  0.37750  0.77500  Biso   1.000  O
  O8       1.0000 0.34070  0.62250  0.22500  Biso   1.000  O
  O9       1.0000 0.87030  0.52180  0.63630  Biso   1.000  O
  O10      1.0000 0.12970  0.47820  0.36370  Biso   1.000  O
  H25      1.0000 0.97530  0.51030  0.66260  Biso   1.000  H
  H26      1.0000 0.02470  0.48970  0.33740  Biso   1.000  H
  H27      1.0000 0.81690  0.46180  0.67940  Biso   1.000  H
  H28      1.0000 0.18310  0.53820  0.32060  Biso   1.000  H
  O11      1.0000 0.89280  0.84890  0.95300  Biso   1.000  O
  O12      1.0000 0.10720  0.15110  0.04700  Biso   1.000  O
  H29      1.0000 0.86420  0.94000  0.94780  Biso   1.000  H
  H30      1.0000 0.13580  0.06000  0.05220  Biso   1.000  H
  H31      1.0000 0.89610  0.81190  0.89980  Biso   1.000  H
  H32      1.0000 0.10390  0.18810  0.10020  Biso   1.000  H
  O13      1.0000 0.80640  0.13710  0.93910  Biso   1.000  O
  O14      1.0000 0.19360  0.86290  0.06090  Biso   1.000  O
  H33      1.0000 0.74780  0.19470  0.89240  Biso   1.000  H
  H34      1.0000 0.25220  0.80530  0.10760  Biso   1.000  H
  H35      1.0000 0.87150  0.15920  0.98040  Biso   1.000  H
  H36      1.0000 0.12850  0.84080  0.01960  Biso   1.000  H
