data_image0
_cell_length_a       29.26
_cell_length_b       9.821
_cell_length_c       18.95
_cell_angle_alpha    90
_cell_angle_beta     113.821
_cell_angle_gamma    90

_symmetry_space_group_name_H-M    "P 1"
_symmetry_int_tables_number       1

loop_
  _symmetry_equiv_pos_as_xyz
  'x, y, z'

loop_
  _atom_site_label
  _atom_site_occupancy
  _atom_site_fract_x
  _atom_site_fract_y
  _atom_site_fract_z
  _atom_site_thermal_displace_type
  _atom_site_B_iso_or_equiv
  _atom_site_type_symbol
  Cu1      1.0000 0.23757  0.65806  0.04035  Biso   1.000  Cu
  Cu2      1.0000 0.76243  0.65806  0.45965  Biso   1.000  Cu
  Cu3      1.0000 0.73757  0.15806  0.04035  Biso   1.000  Cu
  Cu4      1.0000 0.26243  0.15806  0.45965  Biso   1.000  Cu
  Cu5      1.0000 0.76243  0.34194  0.95965  Biso   1.000  Cu
  Cu6      1.0000 0.23757  0.34194  0.54035  Biso   1.000  Cu
  Cu7      1.0000 0.26243  0.84194  0.95965  Biso   1.000  Cu
  Cu8      1.0000 0.73757  0.84194  0.54035  Biso   1.000  Cu
  O1       1.0000 0.18607  0.79070  0.03580  Biso   1.000  O
  O2       1.0000 0.81393  0.79070  0.46420  Biso   1.000  O
  O3       1.0000 0.68607  0.29070  0.03580  Biso   1.000  O
  O4       1.0000 0.31393  0.29070  0.46420  Biso   1.000  O
  O5       1.0000 0.81393  0.20930  0.96420  Biso   1.000  O
  O6       1.0000 0.18607  0.20930  0.53580  Biso   1.000  O
  O7       1.0000 0.31393  0.70930  0.96420  Biso   1.000  O
  O8       1.0000 0.68607  0.70930  0.53580  Biso   1.000  O
  O9       1.0000 0.20677  0.94670  0.96680  Biso   1.000  O
  O10      1.0000 0.79323  0.94670  0.53320  Biso   1.000  O
  O11      1.0000 0.70677  0.44670  0.96680  Biso   1.000  O
  O12      1.0000 0.29323  0.44670  0.53320  Biso   1.000  O
  O13      1.0000 0.79323  0.05330  0.03320  Biso   1.000  O
  O14      1.0000 0.20677  0.05330  0.46680  Biso   1.000  O
  O15      1.0000 0.29323  0.55330  0.03320  Biso   1.000  O
  O16      1.0000 0.70677  0.55330  0.46680  Biso   1.000  O
  O17      1.0000 0.78728  0.74370  0.62970  Biso   1.000  O
  O18      1.0000 0.21272  0.74370  0.87030  Biso   1.000  O
  O19      1.0000 0.28728  0.24370  0.62970  Biso   1.000  O
  O20      1.0000 0.71272  0.24370  0.87030  Biso   1.000  O
  O21      1.0000 0.21272  0.25630  0.37030  Biso   1.000  O
  O22      1.0000 0.78728  0.25630  0.12970  Biso   1.000  O
  O23      1.0000 0.71272  0.75630  0.37030  Biso   1.000  O
  O24      1.0000 0.28728  0.75630  0.12970  Biso   1.000  O
  O25      1.0000 0.80799  0.58450  0.56010  Biso   1.000  O
  O26      1.0000 0.19201  0.58450  0.93990  Biso   1.000  O
  O27      1.0000 0.30799  0.08450  0.56010  Biso   1.000  O
  O28      1.0000 0.69201  0.08450  0.93990  Biso   1.000  O
  O29      1.0000 0.19201  0.41550  0.43990  Biso   1.000  O
  O30      1.0000 0.80799  0.41550  0.06010  Biso   1.000  O
  O31      1.0000 0.69201  0.91550  0.43990  Biso   1.000  O
  O32      1.0000 0.30799  0.91550  0.06010  Biso   1.000  O
  O33      1.0000 0.22300  0.50350  0.10920  Biso   1.000  O
  O34      1.0000 0.77700  0.50350  0.39080  Biso   1.000  O
  O35      1.0000 0.72300  0.00350  0.10920  Biso   1.000  O
  O36      1.0000 0.27700  0.00350  0.39080  Biso   1.000  O
  O37      1.0000 0.77700  0.49650  0.89080  Biso   1.000  O
  O38      1.0000 0.22300  0.49650  0.60920  Biso   1.000  O
  O39      1.0000 0.27700  0.99650  0.89080  Biso   1.000  O
  O40      1.0000 0.72300  0.99650  0.60920  Biso   1.000  O
  C1       1.0000 0.13880  0.99580  0.99960  Biso   1.000  C
  C2       1.0000 0.86120  0.99580  0.50040  Biso   1.000  C
  C3       1.0000 0.63880  0.49580  0.99960  Biso   1.000  C
  C4       1.0000 0.36120  0.49580  0.50040  Biso   1.000  C
  C5       1.0000 0.86120  0.00420  0.00040  Biso   1.000  C
  C6       1.0000 0.13880  0.00420  0.49960  Biso   1.000  C
  C7       1.0000 0.36120  0.50420  0.00040  Biso   1.000  C
  C8       1.0000 0.63880  0.50420  0.49960  Biso   1.000  C
  C9       1.0000 0.12760  0.11690  0.95860  Biso   1.000  C
  C10      1.0000 0.87240  0.11690  0.54140  Biso   1.000  C
  C11      1.0000 0.62760  0.61690  0.95860  Biso   1.000  C
  C12      1.0000 0.37240  0.61690  0.54140  Biso   1.000  C
  C13      1.0000 0.87240  0.88310  0.04140  Biso   1.000  C
  C14      1.0000 0.12760  0.88310  0.45860  Biso   1.000  C
  C15      1.0000 0.37240  0.38310  0.04140  Biso   1.000  C
  C16      1.0000 0.62760  0.38310  0.45860  Biso   1.000  C
  H1       1.0000 0.14690  0.14440  0.93240  Biso   1.000  H
  H2       1.0000 0.85310  0.14440  0.56760  Biso   1.000  H
  H3       1.0000 0.64690  0.64440  0.93240  Biso   1.000  H
  H4       1.0000 0.35310  0.64440  0.56760  Biso   1.000  H
  H5       1.0000 0.85310  0.85560  0.06760  Biso   1.000  H
  H6       1.0000 0.14690  0.85560  0.43240  Biso   1.000  H
  H7       1.0000 0.35310  0.35560  0.06760  Biso   1.000  H
  H8       1.0000 0.64690  0.35560  0.43240  Biso   1.000  H
  C17      1.0000 0.08850  0.19720  0.95590  Biso   1.000  C
  C18      1.0000 0.91150  0.19720  0.54410  Biso   1.000  C
  C19      1.0000 0.58850  0.69720  0.95590  Biso   1.000  C
  C20      1.0000 0.41150  0.69720  0.54410  Biso   1.000  C
  C21      1.0000 0.91150  0.80280  0.04410  Biso   1.000  C
  C22      1.0000 0.08850  0.80280  0.45590  Biso   1.000  C
  C23      1.0000 0.41150  0.30280  0.04410  Biso   1.000  C
  C24      1.0000 0.58850  0.30280  0.45590  Biso   1.000  C
  H9       1.0000 0.08160  0.27710  0.92710  Biso   1.000  H
  H10      1.0000 0.91840  0.27710  0.57290  Biso   1.000  H
  H11      1.0000 0.58160  0.77710  0.92710  Biso   1.000  H
  H12      1.0000 0.41840  0.77710  0.57290  Biso   1.000  H
  H13      1.0000 0.91840  0.72290  0.07290  Biso   1.000  H
  H14      1.0000 0.08160  0.72290  0.42710  Biso   1.000  H
  H15      1.0000 0.41840  0.22290  0.07290  Biso   1.000  H
  H16      1.0000 0.58160  0.22290  0.42710  Biso   1.000  H
  C25      1.0000 0.05890  0.16120  0.99550  Biso   1.000  C
  C26      1.0000 0.94110  0.16120  0.50450  Biso   1.000  C
  C27      1.0000 0.55890  0.66120  0.99550  Biso   1.000  C
  C28      1.0000 0.44110  0.66120  0.50450  Biso   1.000  C
  C29      1.0000 0.94110  0.83880  0.00450  Biso   1.000  C
  C30      1.0000 0.05890  0.83880  0.49550  Biso   1.000  C
  C31      1.0000 0.44110  0.33880  0.00450  Biso   1.000  C
  C32      1.0000 0.55890  0.33880  0.49550  Biso   1.000  C
  C33      1.0000 0.07060  0.04110  0.03960  Biso   1.000  C
  C34      1.0000 0.92940  0.04110  0.46040  Biso   1.000  C
  C35      1.0000 0.57060  0.54110  0.03960  Biso   1.000  C
  C36      1.0000 0.42940  0.54110  0.46040  Biso   1.000  C
  C37      1.0000 0.92940  0.95890  0.96040  Biso   1.000  C
  C38      1.0000 0.07060  0.95890  0.53960  Biso   1.000  C
  C39      1.0000 0.42940  0.45890  0.96040  Biso   1.000  C
  C40      1.0000 0.57060  0.45890  0.53960  Biso   1.000  C
  H17      1.0000 0.05190  0.01640  0.06730  Biso   1.000  H
  H18      1.0000 0.94810  0.01640  0.43270  Biso   1.000  H
  H19      1.0000 0.55190  0.51640  0.06730  Biso   1.000  H
  H20      1.0000 0.44810  0.51640  0.43270  Biso   1.000  H
  H21      1.0000 0.94810  0.98360  0.93270  Biso   1.000  H
  H22      1.0000 0.05190  0.98360  0.56730  Biso   1.000  H
  H23      1.0000 0.44810  0.48360  0.93270  Biso   1.000  H
  H24      1.0000 0.55190  0.48360  0.56730  Biso   1.000  H
  C41      1.0000 0.11000  0.95880  0.04190  Biso   1.000  C
  C42      1.0000 0.89000  0.95880  0.45810  Biso   1.000  C
  C43      1.0000 0.61000  0.45880  0.04190  Biso   1.000  C
  C44      1.0000 0.39000  0.45880  0.45810  Biso   1.000  C
  C45      1.0000 0.89000  0.04120  0.95810  Biso   1.000  C
  C46      1.0000 0.11000  0.04120  0.54190  Biso   1.000  C
  C47      1.0000 0.39000  0.54120  0.95810  Biso   1.000  C
  C48      1.0000 0.61000  0.54120  0.54190  Biso   1.000  C
  H25      1.0000 0.11750  0.87930  0.07110  Biso   1.000  H
  H26      1.0000 0.88250  0.87930  0.42890  Biso   1.000  H
  H27      1.0000 0.61750  0.37930  0.07110  Biso   1.000  H
  H28      1.0000 0.38250  0.37930  0.42890  Biso   1.000  H
  H29      1.0000 0.88250  0.12070  0.92890  Biso   1.000  H
  H30      1.0000 0.11750  0.12070  0.57110  Biso   1.000  H
  H31      1.0000 0.38250  0.62070  0.92890  Biso   1.000  H
  H32      1.0000 0.61750  0.62070  0.57110  Biso   1.000  H
  C49      1.0000 0.01470  0.24510  0.99060  Biso   1.000  C
  C50      1.0000 0.98530  0.24510  0.50940  Biso   1.000  C
  C51      1.0000 0.51470  0.74510  0.99060  Biso   1.000  C
  C52      1.0000 0.48530  0.74510  0.50940  Biso   1.000  C
  C53      1.0000 0.98530  0.75490  0.00940  Biso   1.000  C
  C54      1.0000 0.01470  0.75490  0.49060  Biso   1.000  C
  C55      1.0000 0.48530  0.25490  0.00940  Biso   1.000  C
  C56      1.0000 0.51470  0.25490  0.49060  Biso   1.000  C
  C57      1.0000 0.98390  0.30940  0.92040  Biso   1.000  C
  C58      1.0000 0.01610  0.30940  0.57960  Biso   1.000  C
  C59      1.0000 0.48390  0.80940  0.92040  Biso   1.000  C
  C60      1.0000 0.51610  0.80940  0.57960  Biso   1.000  C
  C61      1.0000 0.01610  0.69060  0.07960  Biso   1.000  C
  C62      1.0000 0.98390  0.69060  0.42040  Biso   1.000  C
  C63      1.0000 0.51610  0.19060  0.07960  Biso   1.000  C
  C64      1.0000 0.48390  0.19060  0.42040  Biso   1.000  C
  H33      1.0000 0.99180  0.30060  0.87760  Biso   1.000  H
  H34      1.0000 0.00820  0.30060  0.62240  Biso   1.000  H
  H35      1.0000 0.49180  0.80060  0.87760  Biso   1.000  H
  H36      1.0000 0.50820  0.80060  0.62240  Biso   1.000  H
  H37      1.0000 0.00820  0.69940  0.12240  Biso   1.000  H
  H38      1.0000 0.99180  0.69940  0.37760  Biso   1.000  H
  H39      1.0000 0.50820  0.19940  0.12240  Biso   1.000  H
  H40      1.0000 0.49180  0.19940  0.37760  Biso   1.000  H
  C65      1.0000 0.94220  0.38560  0.91400  Biso   1.000  C
  C66      1.0000 0.05780  0.38560  0.58600  Biso   1.000  C
  C67      1.0000 0.44220  0.88560  0.91400  Biso   1.000  C
  C68      1.0000 0.55780  0.88560  0.58600  Biso   1.000  C
  C69      1.0000 0.05780  0.61440  0.08600  Biso   1.000  C
  C70      1.0000 0.94220  0.61440  0.41400  Biso   1.000  C
  C71      1.0000 0.55780  0.11440  0.08600  Biso   1.000  C
  C72      1.0000 0.44220  0.11440  0.41400  Biso   1.000  C
  C73      1.0000 0.93130  0.39950  0.98060  Biso   1.000  C
  C74      1.0000 0.06870  0.39950  0.51940  Biso   1.000  C
  C75      1.0000 0.43130  0.89950  0.98060  Biso   1.000  C
  C76      1.0000 0.56870  0.89950  0.51940  Biso   1.000  C
  C77      1.0000 0.06870  0.60050  0.01940  Biso   1.000  C
  C78      1.0000 0.93130  0.60050  0.48060  Biso   1.000  C
  C79      1.0000 0.56870  0.10050  0.01940  Biso   1.000  C
  C80      1.0000 0.43130  0.10050  0.48060  Biso   1.000  C
  H41      1.0000 0.90370  0.45020  0.97740  Biso   1.000  H
  H42      1.0000 0.09630  0.45020  0.52260  Biso   1.000  H
  H43      1.0000 0.40370  0.95020  0.97740  Biso   1.000  H
  H44      1.0000 0.59630  0.95020  0.52260  Biso   1.000  H
  H45      1.0000 0.09630  0.54980  0.02260  Biso   1.000  H
  H46      1.0000 0.90370  0.54980  0.47740  Biso   1.000  H
  H47      1.0000 0.59630  0.04980  0.02260  Biso   1.000  H
  H48      1.0000 0.40370  0.04980  0.47740  Biso   1.000  H
  C81      1.0000 0.96120  0.33850  0.05050  Biso   1.000  C
  C82      1.0000 0.03880  0.33850  0.44950  Biso   1.000  C
  C83      1.0000 0.46120  0.83850  0.05050  Biso   1.000  C
  C84      1.0000 0.53880  0.83850  0.44950  Biso   1.000  C
  C85      1.0000 0.03880  0.66150  0.94950  Biso   1.000  C
  C86      1.0000 0.96120  0.66150  0.55050  Biso   1.000  C
  C87      1.0000 0.53880  0.16150  0.94950  Biso   1.000  C
  C88      1.0000 0.46120  0.16150  0.55050  Biso   1.000  C
  C89      1.0000 0.00310  0.26150  0.05570  Biso   1.000  C
  C90      1.0000 0.99690  0.26150  0.44430  Biso   1.000  C
  C91      1.0000 0.50310  0.76150  0.05570  Biso   1.000  C
  C92      1.0000 0.49690  0.76150  0.44430  Biso   1.000  C
  C93      1.0000 0.99690  0.73850  0.94430  Biso   1.000  C
  C94      1.0000 0.00310  0.73850  0.55570  Biso   1.000  C
  C95      1.0000 0.49690  0.23850  0.94430  Biso   1.000  C
  C96      1.0000 0.50310  0.23850  0.55570  Biso   1.000  C
  H49      1.0000 0.02330  0.22110  0.10240  Biso   1.000  H
  H50      1.0000 0.97670  0.22110  0.39760  Biso   1.000  H
  H51      1.0000 0.52330  0.72110  0.10240  Biso   1.000  H
  H52      1.0000 0.47670  0.72110  0.39760  Biso   1.000  H
  H53      1.0000 0.97670  0.77890  0.89760  Biso   1.000  H
  H54      1.0000 0.02330  0.77890  0.60240  Biso   1.000  H
  H55      1.0000 0.47670  0.27890  0.89760  Biso   1.000  H
  H56      1.0000 0.52330  0.27890  0.60240  Biso   1.000  H
  C97      1.0000 0.94970  0.35810  0.12110  Biso   1.000  C
  C98      1.0000 0.05030  0.35810  0.37890  Biso   1.000  C
  C99      1.0000 0.44970  0.85810  0.12110  Biso   1.000  C
  C100     1.0000 0.55030  0.85810  0.37890  Biso   1.000  C
  C101     1.0000 0.05030  0.64190  0.87890  Biso   1.000  C
  C102     1.0000 0.94970  0.64190  0.62110  Biso   1.000  C
  C103     1.0000 0.55030  0.14190  0.87890  Biso   1.000  C
  C104     1.0000 0.44970  0.14190  0.62110  Biso   1.000  C
  H57      1.0000 0.92920  0.43770  0.11430  Biso   1.000  H
  H58      1.0000 0.07080  0.43770  0.38570  Biso   1.000  H
  H59      1.0000 0.42920  0.93770  0.11430  Biso   1.000  H
  H60      1.0000 0.57080  0.93770  0.38570  Biso   1.000  H
  H61      1.0000 0.07080  0.56230  0.88570  Biso   1.000  H
  H62      1.0000 0.92920  0.56230  0.61430  Biso   1.000  H
  H63      1.0000 0.57080  0.06230  0.88570  Biso   1.000  H
  H64      1.0000 0.42920  0.06230  0.61430  Biso   1.000  H
  H65      1.0000 0.98030  0.36930  0.16590  Biso   1.000  H
  H66      1.0000 0.01970  0.36930  0.33410  Biso   1.000  H
  H67      1.0000 0.48030  0.86930  0.16590  Biso   1.000  H
  H68      1.0000 0.51970  0.86930  0.33410  Biso   1.000  H
  H69      1.0000 0.01970  0.63070  0.83410  Biso   1.000  H
  H70      1.0000 0.98030  0.63070  0.66590  Biso   1.000  H
  H71      1.0000 0.51970  0.13070  0.83410  Biso   1.000  H
  H72      1.0000 0.48030  0.13070  0.66590  Biso   1.000  H
  H73      1.0000 0.93210  0.27980  0.12770  Biso   1.000  H
  H74      1.0000 0.06790  0.27980  0.37230  Biso   1.000  H
  H75      1.0000 0.43210  0.77980  0.12770  Biso   1.000  H
  H76      1.0000 0.56790  0.77980  0.37230  Biso   1.000  H
  H77      1.0000 0.06790  0.72020  0.87230  Biso   1.000  H
  H78      1.0000 0.93210  0.72020  0.62770  Biso   1.000  H
  H79      1.0000 0.56790  0.22020  0.87230  Biso   1.000  H
  H80      1.0000 0.43210  0.22020  0.62770  Biso   1.000  H
  C105     1.0000 0.90960  0.45050  0.84030  Biso   1.000  C
  C106     1.0000 0.09040  0.45050  0.65970  Biso   1.000  C
  C107     1.0000 0.40960  0.95050  0.84030  Biso   1.000  C
  C108     1.0000 0.59040  0.95050  0.65970  Biso   1.000  C
  C109     1.0000 0.09040  0.54950  0.15970  Biso   1.000  C
  C110     1.0000 0.90960  0.54950  0.34030  Biso   1.000  C
  C111     1.0000 0.59040  0.04950  0.15970  Biso   1.000  C
  C112     1.0000 0.40960  0.04950  0.34030  Biso   1.000  C
  C113     1.0000 0.90290  0.39510  0.77000  Biso   1.000  C
  C114     1.0000 0.09710  0.39510  0.73000  Biso   1.000  C
  C115     1.0000 0.40290  0.89510  0.77000  Biso   1.000  C
  C116     1.0000 0.59710  0.89510  0.73000  Biso   1.000  C
  C117     1.0000 0.09710  0.60490  0.23000  Biso   1.000  C
  C118     1.0000 0.90290  0.60490  0.27000  Biso   1.000  C
  C119     1.0000 0.59710  0.10490  0.23000  Biso   1.000  C
  C120     1.0000 0.40290  0.10490  0.27000  Biso   1.000  C
  H81      1.0000 0.91980  0.31520  0.76950  Biso   1.000  H
  H82      1.0000 0.08020  0.31520  0.73050  Biso   1.000  H
  H83      1.0000 0.41980  0.81520  0.76950  Biso   1.000  H
  H84      1.0000 0.58020  0.81520  0.73050  Biso   1.000  H
  H85      1.0000 0.08020  0.68480  0.23050  Biso   1.000  H
  H86      1.0000 0.91980  0.68480  0.26950  Biso   1.000  H
  H87      1.0000 0.58020  0.18480  0.23050  Biso   1.000  H
  H88      1.0000 0.41980  0.18480  0.26950  Biso   1.000  H
  C121     1.0000 0.88390  0.57180  0.83870  Biso   1.000  C
  C122     1.0000 0.11610  0.57180  0.66130  Biso   1.000  C
  C123     1.0000 0.38390  0.07180  0.83870  Biso   1.000  C
  C124     1.0000 0.61610  0.07180  0.66130  Biso   1.000  C
  C125     1.0000 0.11610  0.42820  0.16130  Biso   1.000  C
  C126     1.0000 0.88390  0.42820  0.33870  Biso   1.000  C
  C127     1.0000 0.61610  0.92820  0.16130  Biso   1.000  C
  C128     1.0000 0.38390  0.92820  0.33870  Biso   1.000  C
  H89      1.0000 0.88760  0.61260  0.88500  Biso   1.000  H
  H90      1.0000 0.11240  0.61260  0.61500  Biso   1.000  H
  H91      1.0000 0.38760  0.11260  0.88500  Biso   1.000  H
  H92      1.0000 0.61240  0.11260  0.61500  Biso   1.000  H
  H93      1.0000 0.11240  0.38740  0.11500  Biso   1.000  H
  H94      1.0000 0.88760  0.38740  0.38500  Biso   1.000  H
  H95      1.0000 0.61240  0.88740  0.11500  Biso   1.000  H
  H96      1.0000 0.38760  0.88740  0.38500  Biso   1.000  H
  C129     1.0000 0.85350  0.63170  0.77060  Biso   1.000  C
  C130     1.0000 0.14650  0.63170  0.72940  Biso   1.000  C
  C131     1.0000 0.35350  0.13170  0.77060  Biso   1.000  C
  C132     1.0000 0.64650  0.13170  0.72940  Biso   1.000  C
  C133     1.0000 0.14650  0.36830  0.22940  Biso   1.000  C
  C134     1.0000 0.85350  0.36830  0.27060  Biso   1.000  C
  C135     1.0000 0.64650  0.86830  0.22940  Biso   1.000  C
  C136     1.0000 0.35350  0.86830  0.27060  Biso   1.000  C
  H97      1.0000 0.83740  0.71270  0.77190  Biso   1.000  H
  H98      1.0000 0.16260  0.71270  0.72810  Biso   1.000  H
  H99      1.0000 0.33740  0.21270  0.77190  Biso   1.000  H
  H100     1.0000 0.66260  0.21270  0.72810  Biso   1.000  H
  H101     1.0000 0.16260  0.28730  0.22810  Biso   1.000  H
  H102     1.0000 0.83740  0.28730  0.27190  Biso   1.000  H
  H103     1.0000 0.66260  0.78730  0.22810  Biso   1.000  H
  H104     1.0000 0.33740  0.78730  0.27190  Biso   1.000  H
  C137     1.0000 0.84590  0.57450  0.69910  Biso   1.000  C
  C138     1.0000 0.15410  0.57450  0.80090  Biso   1.000  C
  C139     1.0000 0.34590  0.07450  0.69910  Biso   1.000  C
  C140     1.0000 0.65410  0.07450  0.80090  Biso   1.000  C
  C141     1.0000 0.15410  0.42550  0.30090  Biso   1.000  C
  C142     1.0000 0.84590  0.42550  0.19910  Biso   1.000  C
  C143     1.0000 0.65410  0.92550  0.30090  Biso   1.000  C
  C144     1.0000 0.34590  0.92550  0.19910  Biso   1.000  C
  C145     1.0000 0.87180  0.45320  0.69910  Biso   1.000  C
  C146     1.0000 0.12820  0.45320  0.80090  Biso   1.000  C
  C147     1.0000 0.37180  0.95320  0.69910  Biso   1.000  C
  C148     1.0000 0.62820  0.95320  0.80090  Biso   1.000  C
  C149     1.0000 0.12820  0.54680  0.30090  Biso   1.000  C
  C150     1.0000 0.87180  0.54680  0.19910  Biso   1.000  C
  C151     1.0000 0.62820  0.04680  0.30090  Biso   1.000  C
  C152     1.0000 0.37180  0.04680  0.19910  Biso   1.000  C
  H105     1.0000 0.86830  0.41240  0.65290  Biso   1.000  H
  H106     1.0000 0.13170  0.41240  0.84710  Biso   1.000  H
  H107     1.0000 0.36830  0.91240  0.65290  Biso   1.000  H
  H108     1.0000 0.63170  0.91240  0.84710  Biso   1.000  H
  H109     1.0000 0.13170  0.58760  0.34710  Biso   1.000  H
  H110     1.0000 0.86830  0.58760  0.15290  Biso   1.000  H
  H111     1.0000 0.63170  0.08760  0.34710  Biso   1.000  H
  H112     1.0000 0.36830  0.08760  0.15290  Biso   1.000  H
  C153     1.0000 0.18050  0.90350  0.00090  Biso   1.000  C
  C154     1.0000 0.81950  0.90350  0.49910  Biso   1.000  C
  C155     1.0000 0.68050  0.40350  0.00090  Biso   1.000  C
  C156     1.0000 0.31950  0.40350  0.49910  Biso   1.000  C
  C157     1.0000 0.81950  0.09650  0.99910  Biso   1.000  C
  C158     1.0000 0.18050  0.09650  0.50090  Biso   1.000  C
  C159     1.0000 0.31950  0.59650  0.99910  Biso   1.000  C
  C160     1.0000 0.68050  0.59650  0.50090  Biso   1.000  C
  C161     1.0000 0.81100  0.63800  0.62300  Biso   1.000  C
  C162     1.0000 0.18900  0.63800  0.87700  Biso   1.000  C
  C163     1.0000 0.31100  0.13800  0.62300  Biso   1.000  C
  C164     1.0000 0.68900  0.13800  0.87700  Biso   1.000  C
  C165     1.0000 0.18900  0.36200  0.37700  Biso   1.000  C
  C166     1.0000 0.81100  0.36200  0.12300  Biso   1.000  C
  C167     1.0000 0.68900  0.86200  0.37700  Biso   1.000  C
  C168     1.0000 0.31100  0.86200  0.12300  Biso   1.000  C
  C169     1.0000 0.25060  0.45900  0.16410  Biso   1.000  C
  C170     1.0000 0.74940  0.45900  0.33590  Biso   1.000  C
  C171     1.0000 0.75060  0.95900  0.16410  Biso   1.000  C
  C172     1.0000 0.24940  0.95900  0.33590  Biso   1.000  C
  C173     1.0000 0.74940  0.54100  0.83590  Biso   1.000  C
  C174     1.0000 0.25060  0.54100  0.66410  Biso   1.000  C
  C175     1.0000 0.24940  0.04100  0.83590  Biso   1.000  C
  C176     1.0000 0.75060  0.04100  0.66410  Biso   1.000  C
  H113     1.0000 0.27230  0.51790  0.20060  Biso   1.000  H
  H114     1.0000 0.72770  0.51790  0.29940  Biso   1.000  H
  H115     1.0000 0.77230  0.01790  0.20060  Biso   1.000  H
  H116     1.0000 0.22770  0.01790  0.29940  Biso   1.000  H
  H117     1.0000 0.72770  0.48210  0.79940  Biso   1.000  H
  H118     1.0000 0.27230  0.48210  0.70060  Biso   1.000  H
  H119     1.0000 0.22770  0.98210  0.79940  Biso   1.000  H
  H120     1.0000 0.77230  0.98210  0.70060  Biso   1.000  H
  C177     1.0000 0.28870  0.30320  0.26380  Biso   1.000  C
  C178     1.0000 0.71130  0.30320  0.23620  Biso   1.000  C
  C179     1.0000 0.78870  0.80320  0.26380  Biso   1.000  C
  C180     1.0000 0.21130  0.80320  0.23620  Biso   1.000  C
  C181     1.0000 0.71130  0.69680  0.73620  Biso   1.000  C
  C182     1.0000 0.28870  0.69680  0.76380  Biso   1.000  C
  C183     1.0000 0.21130  0.19680  0.73620  Biso   1.000  C
  C184     1.0000 0.78870  0.19680  0.76380  Biso   1.000  C
  H121     1.0000 0.29120  0.38840  0.28990  Biso   1.000  H
  H122     1.0000 0.70880  0.38840  0.21010  Biso   1.000  H
  H123     1.0000 0.79120  0.88840  0.28990  Biso   1.000  H
  H124     1.0000 0.20880  0.88840  0.21010  Biso   1.000  H
  H125     1.0000 0.70880  0.61160  0.71010  Biso   1.000  H
  H126     1.0000 0.29120  0.61160  0.78990  Biso   1.000  H
  H127     1.0000 0.20880  0.11160  0.71010  Biso   1.000  H
  H128     1.0000 0.79120  0.11160  0.78990  Biso   1.000  H
  H129     1.0000 0.32120  0.27640  0.26780  Biso   1.000  H
  H130     1.0000 0.67880  0.27640  0.23220  Biso   1.000  H
  H131     1.0000 0.82120  0.77640  0.26780  Biso   1.000  H
  H132     1.0000 0.17880  0.77640  0.23220  Biso   1.000  H
  H133     1.0000 0.67880  0.72360  0.73220  Biso   1.000  H
  H134     1.0000 0.32120  0.72360  0.76780  Biso   1.000  H
  H135     1.0000 0.17880  0.22360  0.73220  Biso   1.000  H
  H136     1.0000 0.82120  0.22360  0.76780  Biso   1.000  H
  H137     1.0000 0.27580  0.23500  0.28700  Biso   1.000  H
  H138     1.0000 0.72420  0.23500  0.21300  Biso   1.000  H
  H139     1.0000 0.77580  0.73500  0.28700  Biso   1.000  H
  H140     1.0000 0.22420  0.73500  0.21300  Biso   1.000  H
  H141     1.0000 0.72420  0.76500  0.71300  Biso   1.000  H
  H142     1.0000 0.27580  0.76500  0.78700  Biso   1.000  H
  H143     1.0000 0.22420  0.26500  0.71300  Biso   1.000  H
  H144     1.0000 0.77580  0.26500  0.78700  Biso   1.000  H
  C185     1.0000 0.23480  0.19460  0.14540  Biso   1.000  C
  C186     1.0000 0.76520  0.19460  0.35460  Biso   1.000  C
  C187     1.0000 0.73480  0.69460  0.14540  Biso   1.000  C
  C188     1.0000 0.26520  0.69460  0.35460  Biso   1.000  C
  C189     1.0000 0.76520  0.80540  0.85460  Biso   1.000  C
  C190     1.0000 0.23480  0.80540  0.64540  Biso   1.000  C
  C191     1.0000 0.26520  0.30540  0.85460  Biso   1.000  C
  C192     1.0000 0.73480  0.30540  0.64540  Biso   1.000  C
  H145     1.0000 0.20230  0.18150  0.14570  Biso   1.000  H
  H146     1.0000 0.79770  0.18150  0.35430  Biso   1.000  H
  H147     1.0000 0.70230  0.68150  0.14570  Biso   1.000  H
  H148     1.0000 0.29770  0.68150  0.35430  Biso   1.000  H
  H149     1.0000 0.79770  0.81850  0.85430  Biso   1.000  H
  H150     1.0000 0.20230  0.81850  0.64570  Biso   1.000  H
  H151     1.0000 0.29770  0.31850  0.85430  Biso   1.000  H
  H152     1.0000 0.70230  0.31850  0.64570  Biso   1.000  H
  H153     1.0000 0.25630  0.12100  0.17240  Biso   1.000  H
  H154     1.0000 0.74370  0.12100  0.32760  Biso   1.000  H
  H155     1.0000 0.75630  0.62100  0.17240  Biso   1.000  H
  H156     1.0000 0.24370  0.62100  0.32760  Biso   1.000  H
  H157     1.0000 0.74370  0.87900  0.82760  Biso   1.000  H
  H158     1.0000 0.25630  0.87900  0.67240  Biso   1.000  H
  H159     1.0000 0.24370  0.37900  0.82760  Biso   1.000  H
  H160     1.0000 0.75630  0.37900  0.67240  Biso   1.000  H
  H161     1.0000 0.23180  0.19690  0.09310  Biso   1.000  H
  H162     1.0000 0.76820  0.19690  0.40690  Biso   1.000  H
  H163     1.0000 0.73180  0.69690  0.09310  Biso   1.000  H
  H164     1.0000 0.26820  0.69690  0.40690  Biso   1.000  H
  H165     1.0000 0.76820  0.80310  0.90690  Biso   1.000  H
  H166     1.0000 0.23180  0.80310  0.59310  Biso   1.000  H
  H167     1.0000 0.26820  0.30310  0.90690  Biso   1.000  H
  H168     1.0000 0.73180  0.30310  0.59310  Biso   1.000  H
  N1       1.0000 0.25500  0.31850  0.18200  Biso   1.000  N
  N2       1.0000 0.74500  0.31850  0.31800  Biso   1.000  N
  N3       1.0000 0.75500  0.81850  0.18200  Biso   1.000  N
  N4       1.0000 0.24500  0.81850  0.31800  Biso   1.000  N
  N5       1.0000 0.74500  0.68150  0.81800  Biso   1.000  N
  N6       1.0000 0.25500  0.68150  0.68200  Biso   1.000  N
  N7       1.0000 0.24500  0.18150  0.81800  Biso   1.000  N
  N8       1.0000 0.75500  0.18150  0.68200  Biso   1.000  N
  C193     1.0000 0.22870  0.40000  0.12100  Biso   1.000  C
  C194     1.0000 0.77130  0.40000  0.37900  Biso   1.000  C
  C195     1.0000 0.72870  0.90000  0.12100  Biso   1.000  C
  C196     1.0000 0.27130  0.90000  0.37900  Biso   1.000  C
  C197     1.0000 0.77130  0.60000  0.87900  Biso   1.000  C
  C198     1.0000 0.22870  0.60000  0.62100  Biso   1.000  C
  C199     1.0000 0.27130  0.10000  0.87900  Biso   1.000  C
  C200     1.0000 0.72870  0.10000  0.62100  Biso   1.000  C
  H169     1.0000 0.21050  0.34800  0.07770  Biso   1.000  H
  H170     1.0000 0.78950  0.34800  0.42230  Biso   1.000  H
  H171     1.0000 0.71050  0.84800  0.07770  Biso   1.000  H
  H172     1.0000 0.28950  0.84800  0.42230  Biso   1.000  H
  H173     1.0000 0.78950  0.65200  0.92230  Biso   1.000  H
  H174     1.0000 0.21050  0.65200  0.57770  Biso   1.000  H
  H175     1.0000 0.28950  0.15200  0.92230  Biso   1.000  H
  H176     1.0000 0.71050  0.15200  0.57770  Biso   1.000  H
