data_image0
_cell_length_a       8.5769
_cell_length_b       12.6319
_cell_length_c       11.3118
_cell_angle_alpha    90
_cell_angle_beta     102.131
_cell_angle_gamma    90

_symmetry_space_group_name_H-M    "P 1"
_symmetry_int_tables_number       1

loop_
  _symmetry_equiv_pos_as_xyz
  'x, y, z'

loop_
  _atom_site_label
  _atom_site_occupancy
  _atom_site_fract_x
  _atom_site_fract_y
  _atom_site_fract_z
  _atom_site_thermal_displace_type
  _atom_site_B_iso_or_equiv
  _atom_site_type_symbol
  Cu1      1.0000 0.00000  0.00000  0.00000  Biso   1.000  Cu
  Cu2      1.0000 0.00000  0.50000  0.50000  Biso   1.000  Cu
  O1       1.0000 0.10200  0.13500  0.90320  Biso   1.000  O
  O2       1.0000 0.10200  0.36500  0.40320  Biso   1.000  O
  O3       1.0000 0.89800  0.86500  0.09680  Biso   1.000  O
  O4       1.0000 0.89800  0.63500  0.59680  Biso   1.000  O
  N1       1.0000 0.07530  0.23540  0.93070  Biso   1.000  N
  N2       1.0000 0.07530  0.26460  0.43070  Biso   1.000  N
  N3       1.0000 0.92470  0.76460  0.06930  Biso   1.000  N
  N4       1.0000 0.92470  0.73540  0.56930  Biso   1.000  N
  C1       1.0000 0.99910  0.30010  0.84400  Biso   1.000  C
  C2       1.0000 0.99910  0.19990  0.34400  Biso   1.000  C
  C3       1.0000 0.00090  0.69990  0.15600  Biso   1.000  C
  C4       1.0000 0.00090  0.80010  0.65600  Biso   1.000  C
  H1       1.0000 0.96560  0.27480  0.76550  Biso   1.000  H
  H2       1.0000 0.96560  0.22520  0.26550  Biso   1.000  H
  H3       1.0000 0.03440  0.72520  0.23450  Biso   1.000  H
  H4       1.0000 0.03440  0.77480  0.73450  Biso   1.000  H
  C5       1.0000 0.96980  0.40380  0.87000  Biso   1.000  C
  C6       1.0000 0.96980  0.09620  0.37000  Biso   1.000  C
  C7       1.0000 0.03020  0.59620  0.13000  Biso   1.000  C
  C8       1.0000 0.03020  0.90380  0.63000  Biso   1.000  C
  H5       1.0000 0.91860  0.44780  0.80800  Biso   1.000  H
  H6       1.0000 0.91860  0.05220  0.30800  Biso   1.000  H
  H7       1.0000 0.08140  0.55220  0.19200  Biso   1.000  H
  H8       1.0000 0.08140  0.94780  0.69200  Biso   1.000  H
  C9       1.0000 0.01450  0.44410  0.98580  Biso   1.000  C
  C10      1.0000 0.01450  0.05590  0.48580  Biso   1.000  C
  C11      1.0000 0.98550  0.55590  0.01420  Biso   1.000  C
  C12      1.0000 0.98550  0.94410  0.51420  Biso   1.000  C
  C13      1.0000 0.09220  0.37350  0.07280  Biso   1.000  C
  C14      1.0000 0.09220  0.12650  0.57280  Biso   1.000  C
  C15      1.0000 0.90780  0.62650  0.92720  Biso   1.000  C
  C16      1.0000 0.90780  0.87350  0.42720  Biso   1.000  C
  H9       1.0000 0.12500  0.39650  0.15220  Biso   1.000  H
  H10      1.0000 0.12500  0.10350  0.65220  Biso   1.000  H
  H11      1.0000 0.87500  0.60350  0.84780  Biso   1.000  H
  H12      1.0000 0.87500  0.89650  0.34780  Biso   1.000  H
  C17      1.0000 0.12160  0.27130  0.04460  Biso   1.000  C
  C18      1.0000 0.12160  0.22870  0.54460  Biso   1.000  C
  C19      1.0000 0.87840  0.72870  0.95540  Biso   1.000  C
  C20      1.0000 0.87840  0.77130  0.45540  Biso   1.000  C
  H13      1.0000 0.17420  0.22600  0.10480  Biso   1.000  H
  H14      1.0000 0.17420  0.27400  0.60480  Biso   1.000  H
  H15      1.0000 0.82580  0.77400  0.89520  Biso   1.000  H
  H16      1.0000 0.82580  0.72600  0.39520  Biso   1.000  H
  O5       1.0000 0.85200  0.09942  0.05450  Biso   1.000  O
  O6       1.0000 0.85200  0.40058  0.55450  Biso   1.000  O
  O7       1.0000 0.14800  0.90058  0.94550  Biso   1.000  O
  O8       1.0000 0.14800  0.59942  0.44550  Biso   1.000  O
  C21      1.0000 0.71380  0.12090  0.99500  Biso   1.000  C
  C22      1.0000 0.71380  0.37910  0.49500  Biso   1.000  C
  C23      1.0000 0.28620  0.87910  0.00500  Biso   1.000  C
  C24      1.0000 0.28620  0.62090  0.50500  Biso   1.000  C
  C25      1.0000 0.63500  0.07960  0.88570  Biso   1.000  C
  C26      1.0000 0.63500  0.42040  0.38570  Biso   1.000  C
  C27      1.0000 0.36500  0.92040  0.11430  Biso   1.000  C
  C28      1.0000 0.36500  0.57960  0.61430  Biso   1.000  C
  H17      1.0000 0.53110  0.10160  0.85400  Biso   1.000  H
  H18      1.0000 0.53110  0.39840  0.35400  Biso   1.000  H
  H19      1.0000 0.46890  0.89840  0.14600  Biso   1.000  H
  H20      1.0000 0.46890  0.60160  0.64600  Biso   1.000  H
  C29      1.0000 0.70500  0.00670  0.82160  Biso   1.000  C
  C30      1.0000 0.70500  0.49330  0.32160  Biso   1.000  C
  C31      1.0000 0.29500  0.99330  0.17840  Biso   1.000  C
  C32      1.0000 0.29500  0.50670  0.67840  Biso   1.000  C
  O9       1.0000 0.84270  0.96940  0.84870  Biso   1.000  O
  O10      1.0000 0.84270  0.53060  0.34870  Biso   1.000  O
  O11      1.0000 0.15730  0.03060  0.15130  Biso   1.000  O
  O12      1.0000 0.15730  0.46940  0.65130  Biso   1.000  O
  C33      1.0000 0.37010  0.79390  0.94760  Biso   1.000  C
  C34      1.0000 0.37010  0.70610  0.44760  Biso   1.000  C
  C35      1.0000 0.62990  0.20610  0.05240  Biso   1.000  C
  C36      1.0000 0.62990  0.29390  0.55240  Biso   1.000  C
  F1       1.0000 0.32300  0.70240  0.97250  Biso   1.000  F
  F2       1.0000 0.32300  0.79760  0.47250  Biso   1.000  F
  F3       1.0000 0.67700  0.29760  0.02750  Biso   1.000  F
  F4       1.0000 0.67700  0.20240  0.52750  Biso   1.000  F
  F5       1.0000 0.34220  0.80010  0.83270  Biso   1.000  F
  F6       1.0000 0.34220  0.69990  0.33270  Biso   1.000  F
  F7       1.0000 0.65780  0.19990  0.16730  Biso   1.000  F
  F8       1.0000 0.65780  0.30010  0.66730  Biso   1.000  F
  F9       1.0000 0.52380  0.79210  0.98320  Biso   1.000  F
  F10      1.0000 0.52380  0.70790  0.48320  Biso   1.000  F
  F11      1.0000 0.47620  0.20790  0.01680  Biso   1.000  F
  F12      1.0000 0.47620  0.29210  0.51680  Biso   1.000  F
  C37      1.0000 0.39030  0.03440  0.29730  Biso   1.000  C
  C38      1.0000 0.39030  0.46560  0.79730  Biso   1.000  C
  C39      1.0000 0.60970  0.96560  0.70270  Biso   1.000  C
  C40      1.0000 0.60970  0.53440  0.20270  Biso   1.000  C
  F13      1.0000 0.53980  0.00820  0.32220  Biso   1.000  F
  F14      1.0000 0.53980  0.49180  0.82220  Biso   1.000  F
  F15      1.0000 0.46020  0.99180  0.67780  Biso   1.000  F
  F16      1.0000 0.46020  0.50820  0.17780  Biso   1.000  F
  F17      1.0000 0.32860  0.00410  0.39060  Biso   1.000  F
  F18      1.0000 0.32860  0.49590  0.89060  Biso   1.000  F
  F19      1.0000 0.67140  0.99590  0.60940  Biso   1.000  F
  F20      1.0000 0.67140  0.50410  0.10940  Biso   1.000  F
  F21      1.0000 0.38370  0.14100  0.30060  Biso   1.000  F
  F22      1.0000 0.38370  0.35900  0.80060  Biso   1.000  F
  F23      1.0000 0.61630  0.85900  0.69940  Biso   1.000  F
  F24      1.0000 0.61630  0.64100  0.19940  Biso   1.000  F
