data_image0
_cell_length_a       12.6625
_cell_length_b       12.7389
_cell_length_c       15.6693
_cell_angle_alpha    91.249
_cell_angle_beta     102.326
_cell_angle_gamma    108.969

_symmetry_space_group_name_H-M    "P 1"
_symmetry_int_tables_number       1

loop_
  _symmetry_equiv_pos_as_xyz
  'x, y, z'

loop_
  _atom_site_label
  _atom_site_occupancy
  _atom_site_fract_x
  _atom_site_fract_y
  _atom_site_fract_z
  _atom_site_thermal_displace_type
  _atom_site_B_iso_or_equiv
  _atom_site_type_symbol
  Cu1      1.0000 0.15432  0.02762  0.27002  Biso   1.000  Cu
  Cu2      1.0000 0.84568  0.97238  0.72998  Biso   1.000  Cu
  Cu3      1.0000 0.94664  0.48536  0.23623  Biso   1.000  Cu
  Cu4      1.0000 0.05336  0.51464  0.76377  Biso   1.000  Cu
  Cu5      1.0000 0.50000  0.50000  0.00000  Biso   1.000  Cu
  Cl1      1.0000 0.88031  0.30539  0.27181  Biso   1.000  Cl
  Cl2      1.0000 0.11969  0.69461  0.72819  Biso   1.000  Cl
  Cl3      1.0000 0.07200  0.84472  0.27844  Biso   1.000  Cl
  Cl4      1.0000 0.92800  0.15528  0.72156  Biso   1.000  Cl
  Cl5      1.0000 0.35269  0.44014  0.06898  Biso   1.000  Cl
  Cl6      1.0000 0.64731  0.55986  0.93102  Biso   1.000  Cl
  Cl7      1.0000 0.15863  0.53187  0.25589  Biso   1.000  Cl
  Cl8      1.0000 0.84137  0.46813  0.74411  Biso   1.000  Cl
  N1       1.0000 0.16090  0.09200  0.39360  Biso   1.000  N
  N2       1.0000 0.83910  0.90800  0.60640  Biso   1.000  N
  N3       1.0000 0.23500  0.20130  0.26100  Biso   1.000  N
  N4       1.0000 0.76500  0.79870  0.73900  Biso   1.000  N
  N5       1.0000 0.31510  0.02900  0.26080  Biso   1.000  N
  N6       1.0000 0.68490  0.97100  0.73920  Biso   1.000  N
  N7       1.0000 0.01590  0.15260  0.05260  Biso   1.000  N
  N8       1.0000 0.98410  0.84740  0.94740  Biso   1.000  N
  N9       1.0000 0.03990  0.05160  0.16470  Biso   1.000  N
  N10      1.0000 0.96010  0.94840  0.83530  Biso   1.000  N
  N11      1.0000 0.54460  0.36570  0.03680  Biso   1.000  N
  N12      1.0000 0.45540  0.63430  0.96320  Biso   1.000  N
  C1       1.0000 0.08490  0.14280  0.12830  Biso   1.000  C
  C2       1.0000 0.91510  0.85720  0.87170  Biso   1.000  C
  N13      1.0000 0.49360  0.13080  0.25490  Biso   1.000  N
  N14      1.0000 0.50640  0.86920  0.74510  Biso   1.000  N
  C3       1.0000 0.37290  0.95560  0.24780  Biso   1.000  C
  C4       1.0000 0.62710  0.04440  0.75220  Biso   1.000  C
  N15      1.0000 0.19930  0.24350  0.48390  Biso   1.000  N
  N16      1.0000 0.80070  0.75650  0.51610  Biso   1.000  N
  O1       1.0000 0.90410  0.62160  0.18750  Biso   1.000  O
  O2       1.0000 0.09590  0.37840  0.81250  Biso   1.000  O
  N17      1.0000 0.91480  0.42340  0.11210  Biso   1.000  N
  N18      1.0000 0.08520  0.57660  0.88790  Biso   1.000  N
  C5       1.0000 0.39000  0.13040  0.26510  Biso   1.000  C
  C6       1.0000 0.61000  0.86960  0.73490  Biso   1.000  C
  C7       1.0000 0.15580  0.05870  0.47730  Biso   1.000  C
  C8       1.0000 0.84420  0.94130  0.52270  Biso   1.000  C
  N19      1.0000 0.03880  0.44490  0.64350  Biso   1.000  N
  N20      1.0000 0.96120  0.55510  0.35650  Biso   1.000  N
  C9       1.0000 0.84480  0.89950  0.11760  Biso   1.000  C
  C10      1.0000 0.15520  0.10050  0.88240  Biso   1.000  C
  H1       1.0000 0.85530  0.85440  0.16390  Biso   1.000  H
  H2       1.0000 0.14470  0.14560  0.83610  Biso   1.000  H
  C11      1.0000 0.96540  0.31650  0.01030  Biso   1.000  C
  C12      1.0000 0.03460  0.68350  0.98970  Biso   1.000  C
  C13      1.0000 0.56410  0.29940  0.97960  Biso   1.000  C
  C14      1.0000 0.43590  0.70060  0.02040  Biso   1.000  C
  H3       1.0000 0.55670  0.31580  0.92020  Biso   1.000  H
  H4       1.0000 0.44330  0.68420  0.07980  Biso   1.000  H
  C15      1.0000 0.17990  0.15390  0.53470  Biso   1.000  C
  C16      1.0000 0.82010  0.84610  0.46530  Biso   1.000  C
  C17      1.0000 0.93090  0.99850  0.11050  Biso   1.000  C
  C18      1.0000 0.06910  0.00150  0.88950  Biso   1.000  C
  C19      1.0000 0.03500  0.24420  0.99640  Biso   1.000  C
  C20      1.0000 0.96500  0.75580  0.00360  Biso   1.000  C
  H5       1.0000 0.01270  0.21340  0.93410  Biso   1.000  H
  H6       1.0000 0.98730  0.78660  0.06590  Biso   1.000  H
  H7       1.0000 0.11760  0.28970  0.01030  Biso   1.000  H
  H8       1.0000 0.88240  0.71030  0.98970  Biso   1.000  H
  C21      1.0000 0.55500  0.34000  0.12060  Biso   1.000  C
  C22      1.0000 0.44500  0.66000  0.87940  Biso   1.000  C
  H9       1.0000 0.54090  0.38670  0.16170  Biso   1.000  H
  H10      1.0000 0.45910  0.61330  0.83830  Biso   1.000  H
  C23      1.0000 0.91490  0.06140  0.04060  Biso   1.000  C
  C24      1.0000 0.08510  0.93860  0.95940  Biso   1.000  C
  C25      1.0000 0.20140  0.22410  0.16800  Biso   1.000  C
  C26      1.0000 0.79860  0.77590  0.83200  Biso   1.000  C
  H11      1.0000 0.20010  0.30130  0.16560  Biso   1.000  H
  H12      1.0000 0.79990  0.69870  0.83440  Biso   1.000  H
  H13      1.0000 0.25730  0.21560  0.13530  Biso   1.000  H
  H14      1.0000 0.74270  0.78440  0.86470  Biso   1.000  H
  C27      1.0000 0.74310  0.87070  0.05350  Biso   1.000  C
  C28      1.0000 0.25690  0.12930  0.94650  Biso   1.000  C
  H15      1.0000 0.68240  0.80420  0.05630  Biso   1.000  H
  H16      1.0000 0.31760  0.19580  0.94370  Biso   1.000  H
  C29      1.0000 0.59470  0.20790  0.00330  Biso   1.000  C
  C30      1.0000 0.40530  0.79210  0.99670  Biso   1.000  C
  H17      1.0000 0.60710  0.16200  0.96050  Biso   1.000  H
  H18      1.0000 0.39290  0.83800  0.03950  Biso   1.000  H
  C31      1.0000 0.36140  0.23040  0.28820  Biso   1.000  C
  C32      1.0000 0.63860  0.76960  0.71180  Biso   1.000  C
  H19      1.0000 0.38840  0.25220  0.35220  Biso   1.000  H
  H20      1.0000 0.61160  0.74780  0.64780  Biso   1.000  H
  H21      1.0000 0.39960  0.29370  0.25740  Biso   1.000  H
  H22      1.0000 0.60040  0.70630  0.74260  Biso   1.000  H
  C33      1.0000 0.19230  0.26290  0.32050  Biso   1.000  C
  C34      1.0000 0.80770  0.73710  0.67950  Biso   1.000  C
  H23      1.0000 0.11570  0.26500  0.29130  Biso   1.000  H
  H24      1.0000 0.88430  0.73500  0.70870  Biso   1.000  H
  H25      1.0000 0.24590  0.34040  0.33680  Biso   1.000  H
  H26      1.0000 0.75410  0.65960  0.66320  Biso   1.000  H
  C35      1.0000 0.72740  0.93680  0.98480  Biso   1.000  C
  C36      1.0000 0.27260  0.06320  0.01520  Biso   1.000  C
  H27      1.0000 0.65580  0.91460  0.94300  Biso   1.000  H
  H28      1.0000 0.34420  0.08540  0.05700  Biso   1.000  H
  C37      1.0000 0.60720  0.18360  0.08900  Biso   1.000  C
  C38      1.0000 0.39280  0.81640  0.91100  Biso   1.000  C
  H29      1.0000 0.63060  0.12220  0.10670  Biso   1.000  H
  H30      1.0000 0.36940  0.87780  0.89330  Biso   1.000  H
  C39      1.0000 0.97250  0.35710  0.09440  Biso   1.000  C
  C40      1.0000 0.02750  0.64290  0.90560  Biso   1.000  C
  H31      1.0000 0.02040  0.33720  0.14190  Biso   1.000  H
  H32      1.0000 0.97960  0.66280  0.85810  Biso   1.000  H
  C41      1.0000 0.81270  0.03290  0.97620  Biso   1.000  C
  C42      1.0000 0.18730  0.96710  0.02380  Biso   1.000  C
  H33      1.0000 0.80250  0.07720  0.92920  Biso   1.000  H
  H34      1.0000 0.19750  0.92280  0.07080  Biso   1.000  H
  C43      1.0000 0.58470  0.25090  0.14980  Biso   1.000  C
  C44      1.0000 0.41530  0.74910  0.85020  Biso   1.000  C
  C45      1.0000 0.18310  0.14820  0.62410  Biso   1.000  C
  C46      1.0000 0.81690  0.85180  0.37590  Biso   1.000  C
  H35      1.0000 0.20020  0.21260  0.66320  Biso   1.000  H
  H36      1.0000 0.79980  0.78740  0.33680  Biso   1.000  H
  C47      1.0000 0.13350  0.95360  0.50680  Biso   1.000  C
  C48      1.0000 0.86650  0.04640  0.49320  Biso   1.000  C
  H37      1.0000 0.11690  0.88900  0.46800  Biso   1.000  H
  H38      1.0000 0.88310  0.11100  0.53200  Biso   1.000  H
  C49      1.0000 0.93770  0.40770  0.58360  Biso   1.000  C
  C50      1.0000 0.06230  0.59230  0.41640  Biso   1.000  C
  H39      1.0000 0.87250  0.41810  0.59820  Biso   1.000  H
  H40      1.0000 0.12750  0.58190  0.40180  Biso   1.000  H
  C51      1.0000 0.48580  0.01880  0.24380  Biso   1.000  C
  C52      1.0000 0.51420  0.98120  0.75620  Biso   1.000  C
  C53      1.0000 0.56620  0.96960  0.23500  Biso   1.000  C
  C54      1.0000 0.43380  0.03040  0.76500  Biso   1.000  C
  H41      1.0000 0.64260  0.01320  0.23390  Biso   1.000  H
  H42      1.0000 0.35740  0.98680  0.76610  Biso   1.000  H
  C55      1.0000 0.33750  0.84000  0.24110  Biso   1.000  C
  C56      1.0000 0.66250  0.16000  0.75890  Biso   1.000  C
  H43      1.0000 0.26160  0.79650  0.24360  Biso   1.000  H
  H44      1.0000 0.73840  0.20350  0.75640  Biso   1.000  H
  C57      1.0000 0.89660  0.34590  0.94110  Biso   1.000  C
  C58      1.0000 0.10340  0.65410  0.05890  Biso   1.000  C
  H45      1.0000 0.89170  0.32100  0.88230  Biso   1.000  H
  H46      1.0000 0.10830  0.67900  0.11770  Biso   1.000  H
  C59      1.0000 0.53020  0.85400  0.22790  Biso   1.000  C
  C60      1.0000 0.46980  0.14600  0.77210  Biso   1.000  C
  H47      1.0000 0.58260  0.81720  0.22100  Biso   1.000  H
  H48      1.0000 0.41740  0.18280  0.77900  Biso   1.000  H
  C61      1.0000 0.13640  0.94700  0.59560  Biso   1.000  C
  C62      1.0000 0.86360  0.05300  0.40440  Biso   1.000  C
  H49      1.0000 0.12250  0.87650  0.61830  Biso   1.000  H
  H50      1.0000 0.87750  0.12350  0.38170  Biso   1.000  H
  C63      1.0000 0.41690  0.79010  0.23070  Biso   1.000  C
  C64      1.0000 0.58310  0.20990  0.76930  Biso   1.000  C
  H51      1.0000 0.39450  0.71110  0.22530  Biso   1.000  H
  H52      1.0000 0.60550  0.28890  0.77470  Biso   1.000  H
  C65      1.0000 0.18550  0.20060  0.40080  Biso   1.000  C
  C66      1.0000 0.81450  0.79940  0.59920  Biso   1.000  C
  C67      1.0000 0.22580  0.36030  0.51810  Biso   1.000  C
  C68      1.0000 0.77420  0.63970  0.48190  Biso   1.000  C
  H53      1.0000 0.25040  0.41030  0.47320  Biso   1.000  H
  H54      1.0000 0.74960  0.58970  0.52680  Biso   1.000  H
  H55      1.0000 0.29000  0.37990  0.57080  Biso   1.000  H
  H56      1.0000 0.71000  0.62010  0.42920  Biso   1.000  H
  C69      1.0000 0.84590  0.44970  0.04480  Biso   1.000  C
  C70      1.0000 0.15410  0.55030  0.95520  Biso   1.000  C
  H57      1.0000 0.80350  0.49540  0.05650  Biso   1.000  H
  H58      1.0000 0.19650  0.50460  0.94350  Biso   1.000  H
  C71      1.0000 0.59190  0.22740  0.24480  Biso   1.000  C
  C72      1.0000 0.40810  0.77260  0.75520  Biso   1.000  C
  H59      1.0000 0.66420  0.21260  0.26830  Biso   1.000  H
  H60      1.0000 0.33580  0.78740  0.73170  Biso   1.000  H
  H61      1.0000 0.59380  0.29410  0.27960  Biso   1.000  H
  H62      1.0000 0.40620  0.70590  0.72040  Biso   1.000  H
  C73      1.0000 0.12420  0.37780  0.54110  Biso   1.000  C
  C74      1.0000 0.87580  0.62220  0.45890  Biso   1.000  C
  C75      1.0000 0.83480  0.41250  0.95910  Biso   1.000  C
  C76      1.0000 0.16520  0.58750  0.04090  Biso   1.000  C
  H63      1.0000 0.78530  0.43220  0.91260  Biso   1.000  H
  H64      1.0000 0.21470  0.56780  0.08740  Biso   1.000  H
  C77      1.0000 0.15950  0.04220  0.65200  Biso   1.000  C
  C78      1.0000 0.84050  0.95780  0.34800  Biso   1.000  C
  H65      1.0000 0.15900  0.03400  0.71210  Biso   1.000  H
  H66      1.0000 0.84100  0.96600  0.28790  Biso   1.000  H
  C79      1.0000 0.01980  0.34220  0.48080  Biso   1.000  C
  C80      1.0000 0.98020  0.65780  0.51920  Biso   1.000  C
  H67      1.0000 0.01320  0.30860  0.42430  Biso   1.000  H
  H68      1.0000 0.98680  0.69140  0.57570  Biso   1.000  H
  C81      1.0000 0.92440  0.35590  0.50320  Biso   1.000  C
  C82      1.0000 0.07560  0.64410  0.49680  Biso   1.000  C
  H69      1.0000 0.85140  0.32960  0.46320  Biso   1.000  H
  H70      1.0000 0.14860  0.67040  0.53680  Biso   1.000  H
  C83      1.0000 0.13090  0.42930  0.62190  Biso   1.000  C
  C84      1.0000 0.86910  0.57070  0.37810  Biso   1.000  C
  H71      1.0000 0.20260  0.45440  0.66350  Biso   1.000  H
  H72      1.0000 0.79740  0.54560  0.33650  Biso   1.000  H
  Cl9      1.0000 0.66296  0.62633  0.17305  Biso   1.000  Cl
  Cl10     1.0000 0.33704  0.37367  0.82695  Biso   1.000  Cl
  Cl11     1.0000 0.61222  0.34789  0.47343  Biso   1.000  Cl
  Cl12     1.0000 0.38778  0.65211  0.52657  Biso   1.000  Cl
  Cl13     1.0000 0.44547  0.17370  0.53738  Biso   1.000  Cl
  Cl14     1.0000 0.55453  0.82630  0.46262  Biso   1.000  Cl
  Cl15     1.0000 0.64710  0.13910  0.50560  Biso   1.000  Cl
  Cl16     1.0000 0.35290  0.86090  0.49440  Biso   1.000  Cl
  C85      1.0000 0.59250  0.23480  0.53970  Biso   1.000  C
  C86      1.0000 0.40750  0.76520  0.46030  Biso   1.000  C
  H73      1.0000 0.63460  0.26470  0.60160  Biso   1.000  H
  H74      1.0000 0.36540  0.73530  0.39840  Biso   1.000  H
  O3       1.0000 0.55820  0.49150  0.31120  Biso   1.000  O
  O4       1.0000 0.44180  0.50850  0.68880  Biso   1.000  O
  C87      1.0000 0.47210  0.53020  0.32930  Biso   1.000  C
  C88      1.0000 0.52790  0.46980  0.67070  Biso   1.000  C
  H75      1.0000 0.44970  0.49950  0.38210  Biso   1.000  H
  H76      1.0000 0.55030  0.50050  0.61790  Biso   1.000  H
  H77      1.0000 0.40510  0.50620  0.27940  Biso   1.000  H
  H78      1.0000 0.59490  0.49380  0.72060  Biso   1.000  H
  H79      1.0000 0.50160  0.61190  0.33880  Biso   1.000  H
  H80      1.0000 0.49840  0.38810  0.66120  Biso   1.000  H
