data_image0
_cell_length_a       12.501
_cell_length_b       9.231
_cell_length_c       17.119
_cell_angle_alpha    90
_cell_angle_beta     107.33
_cell_angle_gamma    90

_symmetry_space_group_name_H-M    "P 1"
_symmetry_int_tables_number       1

loop_
  _symmetry_equiv_pos_as_xyz
  'x, y, z'

loop_
  _atom_site_label
  _atom_site_occupancy
  _atom_site_fract_x
  _atom_site_fract_y
  _atom_site_fract_z
  _atom_site_thermal_displace_type
  _atom_site_B_iso_or_equiv
  _atom_site_type_symbol
  Cu1      1.0000 0.62300  0.25410  0.71630  Biso   1.000  Cu
  Cu2      1.0000 0.37700  0.75410  0.78370  Biso   1.000  Cu
  Cu3      1.0000 0.37700  0.74590  0.28370  Biso   1.000  Cu
  Cu4      1.0000 0.62300  0.24590  0.21630  Biso   1.000  Cu
  N1       1.0000 0.51830  0.29790  0.60740  Biso   1.000  N
  N2       1.0000 0.48170  0.79790  0.89260  Biso   1.000  N
  N3       1.0000 0.48170  0.70210  0.39260  Biso   1.000  N
  N4       1.0000 0.51830  0.20210  0.10740  Biso   1.000  N
  N5       1.0000 0.74680  0.31860  0.67450  Biso   1.000  N
  N6       1.0000 0.25320  0.81860  0.82550  Biso   1.000  N
  N7       1.0000 0.25320  0.68140  0.32550  Biso   1.000  N
  N8       1.0000 0.74680  0.18140  0.17450  Biso   1.000  N
  N9       1.0000 0.65410  0.20400  0.55230  Biso   1.000  N
  N10      1.0000 0.34590  0.70400  0.94770  Biso   1.000  N
  N11      1.0000 0.34590  0.79600  0.44770  Biso   1.000  N
  N12      1.0000 0.65410  0.29600  0.05230  Biso   1.000  N
  N13      1.0000 0.46540  0.06240  0.72880  Biso   1.000  N
  N14      1.0000 0.53460  0.56240  0.77120  Biso   1.000  N
  N15      1.0000 0.53460  0.93760  0.27120  Biso   1.000  N
  N16      1.0000 0.46540  0.43760  0.22880  Biso   1.000  N
  N17      1.0000 0.78430  0.09930  0.83130  Biso   1.000  N
  N18      1.0000 0.21570  0.59930  0.66870  Biso   1.000  N
  N19      1.0000 0.21570  0.90070  0.16870  Biso   1.000  N
  N20      1.0000 0.78430  0.40070  0.33130  Biso   1.000  N
  O1       1.0000 0.49790  0.18710  0.75650  Biso   1.000  O
  O2       1.0000 0.50210  0.68710  0.74350  Biso   1.000  O
  O3       1.0000 0.50210  0.81290  0.24350  Biso   1.000  O
  O4       1.0000 0.49790  0.31290  0.25650  Biso   1.000  O
  O5       1.0000 0.38920  0.00480  0.74910  Biso   1.000  O
  O6       1.0000 0.61080  0.50480  0.75090  Biso   1.000  O
  O7       1.0000 0.61080  0.99520  0.25090  Biso   1.000  O
  O8       1.0000 0.38920  0.49520  0.24910  Biso   1.000  O
  O9       1.0000 0.51090  0.00210  0.68370  Biso   1.000  O
  O10      1.0000 0.48910  0.50210  0.81630  Biso   1.000  O
  O11      1.0000 0.48910  0.99790  0.31630  Biso   1.000  O
  O12      1.0000 0.51090  0.49790  0.18370  Biso   1.000  O
  O13      1.0000 0.72640  0.21360  0.82650  Biso   1.000  O
  O14      1.0000 0.27360  0.71360  0.67350  Biso   1.000  O
  O15      1.0000 0.27360  0.78640  0.17350  Biso   1.000  O
  O16      1.0000 0.72640  0.28640  0.32650  Biso   1.000  O
  O17      1.0000 0.84770  0.06470  0.89820  Biso   1.000  O
  O18      1.0000 0.15230  0.56470  0.60180  Biso   1.000  O
  O19      1.0000 0.15230  0.93530  0.10180  Biso   1.000  O
  O20      1.0000 0.84770  0.43530  0.39820  Biso   1.000  O
  O21      1.0000 0.77450  0.02980  0.77060  Biso   1.000  O
  O22      1.0000 0.22550  0.52980  0.72940  Biso   1.000  O
  O23      1.0000 0.22550  0.97020  0.22940  Biso   1.000  O
  O24      1.0000 0.77450  0.47020  0.27060  Biso   1.000  O
  C1       1.0000 0.54760  0.26550  0.54000  Biso   1.000  C
  C2       1.0000 0.45240  0.76550  0.96000  Biso   1.000  C
  C3       1.0000 0.45240  0.73450  0.46000  Biso   1.000  C
  C4       1.0000 0.54760  0.23450  0.04000  Biso   1.000  C
  C5       1.0000 0.47680  0.29450  0.46310  Biso   1.000  C
  C6       1.0000 0.52320  0.79450  0.03690  Biso   1.000  C
  C7       1.0000 0.52320  0.70550  0.53690  Biso   1.000  C
  C8       1.0000 0.47680  0.20550  0.96310  Biso   1.000  C
  C9       1.0000 0.37370  0.35590  0.45480  Biso   1.000  C
  C10      1.0000 0.62630  0.85590  0.04520  Biso   1.000  C
  C11      1.0000 0.62630  0.64410  0.54520  Biso   1.000  C
  C12      1.0000 0.37370  0.14410  0.95480  Biso   1.000  C
  C13      1.0000 0.34500  0.38940  0.52500  Biso   1.000  C
  C14      1.0000 0.65500  0.88940  0.97500  Biso   1.000  C
  C15      1.0000 0.65500  0.61060  0.47500  Biso   1.000  C
  C16      1.0000 0.34500  0.11060  0.02500  Biso   1.000  C
  C17      1.0000 0.41960  0.35900  0.59940  Biso   1.000  C
  C18      1.0000 0.58040  0.85900  0.90060  Biso   1.000  C
  C19      1.0000 0.58040  0.64100  0.40060  Biso   1.000  C
  C20      1.0000 0.41960  0.14100  0.09940  Biso   1.000  C
  C21      1.0000 0.74830  0.27720  0.60000  Biso   1.000  C
  C22      1.0000 0.25170  0.77720  0.90000  Biso   1.000  C
  C23      1.0000 0.25170  0.72280  0.40000  Biso   1.000  C
  C24      1.0000 0.74830  0.22280  0.10000  Biso   1.000  C
  C25      1.0000 0.83880  0.30920  0.57180  Biso   1.000  C
  C26      1.0000 0.16120  0.80920  0.92820  Biso   1.000  C
  C27      1.0000 0.16120  0.69080  0.42820  Biso   1.000  C
  C28      1.0000 0.83880  0.19080  0.07180  Biso   1.000  C
  C29      1.0000 0.92720  0.38630  0.62060  Biso   1.000  C
  C30      1.0000 0.07280  0.88630  0.87940  Biso   1.000  C
  C31      1.0000 0.07280  0.61370  0.37940  Biso   1.000  C
  C32      1.0000 0.92720  0.11370  0.12060  Biso   1.000  C
  C33      1.0000 0.92490  0.43170  0.69690  Biso   1.000  C
  C34      1.0000 0.07510  0.93170  0.80310  Biso   1.000  C
  C35      1.0000 0.07510  0.56830  0.30310  Biso   1.000  C
  C36      1.0000 0.92490  0.06830  0.19690  Biso   1.000  C
  C37      1.0000 0.83280  0.39600  0.72130  Biso   1.000  C
  C38      1.0000 0.16720  0.89600  0.77870  Biso   1.000  C
  C39      1.0000 0.16720  0.60400  0.27870  Biso   1.000  C
  C40      1.0000 0.83280  0.10400  0.22130  Biso   1.000  C
  C41      1.0000 0.66660  0.11140  0.48460  Biso   1.000  C
  C42      1.0000 0.33340  0.61140  0.01540  Biso   1.000  C
  C43      1.0000 0.33340  0.88860  0.51540  Biso   1.000  C
  C44      1.0000 0.66660  0.38860  0.98460  Biso   1.000  C
  C45      1.0000 0.75800  0.00220  0.51220  Biso   1.000  C
  C46      1.0000 0.24200  0.50220  0.98780  Biso   1.000  C
  C47      1.0000 0.24200  0.99780  0.48780  Biso   1.000  C
  C48      1.0000 0.75800  0.49780  0.01220  Biso   1.000  C
  C49      1.0000 0.78580  0.93840  0.58780  Biso   1.000  C
  C50      1.0000 0.21420  0.43840  0.91220  Biso   1.000  C
  C51      1.0000 0.21420  0.06160  0.41220  Biso   1.000  C
  C52      1.0000 0.78580  0.56160  0.08780  Biso   1.000  C
  C53      1.0000 0.87060  0.83420  0.60920  Biso   1.000  C
  C54      1.0000 0.12940  0.33420  0.89080  Biso   1.000  C
  C55      1.0000 0.12940  0.16580  0.39080  Biso   1.000  C
  C56      1.0000 0.87060  0.66580  0.10920  Biso   1.000  C
  C57      1.0000 0.92490  0.79500  0.55390  Biso   1.000  C
  C58      1.0000 0.07510  0.29500  0.94610  Biso   1.000  C
  C59      1.0000 0.07510  0.20500  0.44610  Biso   1.000  C
  C60      1.0000 0.92490  0.70500  0.05390  Biso   1.000  C
  C61      1.0000 0.89430  0.85620  0.47900  Biso   1.000  C
  C62      1.0000 0.10570  0.35620  0.02100  Biso   1.000  C
  C63      1.0000 0.10570  0.14380  0.52100  Biso   1.000  C
  C64      1.0000 0.89430  0.64380  0.97900  Biso   1.000  C
  C65      1.0000 0.80810  0.95510  0.45560  Biso   1.000  C
  C66      1.0000 0.19190  0.45510  0.04440  Biso   1.000  C
  C67      1.0000 0.19190  0.04490  0.54440  Biso   1.000  C
  C68      1.0000 0.80810  0.54490  0.95560  Biso   1.000  C
