data_image0
_cell_length_a       10.3003
_cell_length_b       9.0112
_cell_length_c       12.0042
_cell_angle_alpha    90
_cell_angle_beta     105.136
_cell_angle_gamma    90

_symmetry_space_group_name_H-M    "P 1"
_symmetry_int_tables_number       1

loop_
  _symmetry_equiv_pos_as_xyz
  'x, y, z'

loop_
  _atom_site_label
  _atom_site_occupancy
  _atom_site_fract_x
  _atom_site_fract_y
  _atom_site_fract_z
  _atom_site_thermal_displace_type
  _atom_site_B_iso_or_equiv
  _atom_site_type_symbol
  Ru1      1.0000 0.00000  0.00000  0.00000  Biso   1.000  Ru
  Ru2      1.0000 0.50000  0.50000  0.50000  Biso   1.000  Ru
  Cu1      1.0000 0.50000  0.00000  0.00000  Biso   1.000  Cu
  Cu2      1.0000 0.00000  0.50000  0.50000  Biso   1.000  Cu
  O1       1.0000 0.61804  0.05640  0.21561  Biso   1.000  O
  O2       1.0000 0.88196  0.55640  0.28439  Biso   1.000  O
  O3       1.0000 0.38196  0.94360  0.78439  Biso   1.000  O
  O4       1.0000 0.11804  0.44360  0.71561  Biso   1.000  O
  N1       1.0000 0.49856  0.22256  0.96476  Biso   1.000  N
  N2       1.0000 0.00144  0.72256  0.53524  Biso   1.000  N
  N3       1.0000 0.50144  0.77744  0.03524  Biso   1.000  N
  N4       1.0000 0.99856  0.27744  0.46476  Biso   1.000  N
  N5       1.0000 0.21760  0.45766  0.19497  Biso   1.000  N
  N6       1.0000 0.28240  0.95766  0.30503  Biso   1.000  N
  N7       1.0000 0.78240  0.54234  0.80503  Biso   1.000  N
  N8       1.0000 0.71760  0.04234  0.69497  Biso   1.000  N
  N9       1.0000 0.31408  0.99872  0.01577  Biso   1.000  N
  N10      1.0000 0.18592  0.49872  0.48423  Biso   1.000  N
  N11      1.0000 0.68592  0.00128  0.98423  Biso   1.000  N
  N12      1.0000 0.81408  0.50128  0.51577  Biso   1.000  N
  N13      1.0000 0.05386  0.20254  0.22578  Biso   1.000  N
  N14      1.0000 0.44614  0.70254  0.27422  Biso   1.000  N
  N15      1.0000 0.94614  0.79746  0.77422  Biso   1.000  N
  N16      1.0000 0.55386  0.29746  0.72578  Biso   1.000  N
  N17      1.0000 0.96342  0.29917  0.85201  Biso   1.000  N
  N18      1.0000 0.53658  0.79917  0.64799  Biso   1.000  N
  N19      1.0000 0.03658  0.70083  0.14799  Biso   1.000  N
  N20      1.0000 0.46342  0.20083  0.35201  Biso   1.000  N
  C1       1.0000 0.38198  0.32004  0.96234  Biso   1.000  C
  C2       1.0000 0.11802  0.82004  0.53766  Biso   1.000  C
  C3       1.0000 0.61802  0.67996  0.03766  Biso   1.000  C
  C4       1.0000 0.88198  0.17996  0.46234  Biso   1.000  C
  C5       1.0000 0.36684  0.34767  0.08327  Biso   1.000  C
  C6       1.0000 0.13316  0.84767  0.41673  Biso   1.000  C
  C7       1.0000 0.63316  0.65233  0.91673  Biso   1.000  C
  C8       1.0000 0.86684  0.15233  0.58327  Biso   1.000  C
  C9       1.0000 0.24577  0.44590  0.07927  Biso   1.000  C
  C10      1.0000 0.25423  0.94590  0.42073  Biso   1.000  C
  C11      1.0000 0.75423  0.55410  0.92073  Biso   1.000  C
  C12      1.0000 0.74577  0.05410  0.57927  Biso   1.000  C
  C13      1.0000 0.20038  0.99854  0.01010  Biso   1.000  C
  C14      1.0000 0.29962  0.49854  0.48990  Biso   1.000  C
  C15      1.0000 0.79962  0.00146  0.98990  Biso   1.000  C
  C16      1.0000 0.70038  0.50146  0.51010  Biso   1.000  C
  C17      1.0000 0.03292  0.12827  0.14376  Biso   1.000  C
  C18      1.0000 0.46708  0.62827  0.35624  Biso   1.000  C
  C19      1.0000 0.96708  0.87173  0.85624  Biso   1.000  C
  C20      1.0000 0.53292  0.37173  0.64376  Biso   1.000  C
  C21      1.0000 0.97672  0.18968  0.90465  Biso   1.000  C
  C22      1.0000 0.52328  0.68968  0.59535  Biso   1.000  C
  C23      1.0000 0.02328  0.81032  0.09535  Biso   1.000  C
  C24      1.0000 0.47672  0.31032  0.40465  Biso   1.000  C
  O5       1.0000 0.25613  0.19276  0.65900  Biso   1.000  O
  O6       1.0000 0.24387  0.69276  0.84100  Biso   1.000  O
  O7       1.0000 0.74387  0.80724  0.34100  Biso   1.000  O
  O8       1.0000 0.75613  0.30724  0.15900  Biso   1.000  O
  H1       1.0000 0.57300  0.09300  0.25400  Biso   1.000  H
  H2       1.0000 0.92700  0.59300  0.24600  Biso   1.000  H
  H3       1.0000 0.42700  0.90700  0.74600  Biso   1.000  H
  H4       1.0000 0.07300  0.40700  0.75400  Biso   1.000  H
  H5       1.0000 0.57100  0.26310  0.01770  Biso   1.000  H
  H6       1.0000 0.92900  0.76310  0.48230  Biso   1.000  H
  H7       1.0000 0.42900  0.73690  0.98230  Biso   1.000  H
  H8       1.0000 0.07100  0.23690  0.51770  Biso   1.000  H
  H9       1.0000 0.51620  0.23150  0.89380  Biso   1.000  H
  H10      1.0000 0.98380  0.73150  0.60620  Biso   1.000  H
  H11      1.0000 0.48380  0.76850  0.10620  Biso   1.000  H
  H12      1.0000 0.01620  0.26850  0.39380  Biso   1.000  H
  H13      1.0000 0.29900  0.27320  0.91480  Biso   1.000  H
  H14      1.0000 0.20100  0.77320  0.58520  Biso   1.000  H
  H15      1.0000 0.70100  0.72680  0.08520  Biso   1.000  H
  H16      1.0000 0.79900  0.22680  0.41480  Biso   1.000  H
  H17      1.0000 0.39410  0.41600  0.92620  Biso   1.000  H
  H18      1.0000 0.10590  0.91600  0.57380  Biso   1.000  H
  H19      1.0000 0.60590  0.58400  0.07380  Biso   1.000  H
  H20      1.0000 0.89410  0.08400  0.42620  Biso   1.000  H
  H21      1.0000 0.66500  0.11700  0.20700  Biso   1.000  H
  H22      1.0000 0.83500  0.61700  0.29300  Biso   1.000  H
  H23      1.0000 0.33500  0.88300  0.79300  Biso   1.000  H
  H24      1.0000 0.16500  0.38300  0.70700  Biso   1.000  H
  H25      1.0000 0.18080  0.37120  0.21140  Biso   1.000  H
  H26      1.0000 0.31920  0.87120  0.28860  Biso   1.000  H
  H27      1.0000 0.81920  0.62880  0.78860  Biso   1.000  H
  H28      1.0000 0.68080  0.12880  0.71140  Biso   1.000  H
  H29      1.0000 0.15920  0.53360  0.19430  Biso   1.000  H
  H30      1.0000 0.34080  0.03360  0.30570  Biso   1.000  H
  H31      1.0000 0.84080  0.46640  0.80570  Biso   1.000  H
  H32      1.0000 0.65920  0.96640  0.69430  Biso   1.000  H
  H33      1.0000 0.29570  0.47530  0.24970  Biso   1.000  H
  H34      1.0000 0.20430  0.97530  0.25030  Biso   1.000  H
  H35      1.0000 0.70430  0.52470  0.75030  Biso   1.000  H
  H36      1.0000 0.79570  0.02470  0.74970  Biso   1.000  H
  H37      1.0000 0.35580  0.25170  0.11990  Biso   1.000  H
  H38      1.0000 0.14420  0.75170  0.38010  Biso   1.000  H
  H39      1.0000 0.64420  0.74830  0.88010  Biso   1.000  H
  H40      1.0000 0.85580  0.24830  0.61990  Biso   1.000  H
  H41      1.0000 0.44910  0.39610  0.13060  Biso   1.000  H
  H42      1.0000 0.05090  0.89610  0.36940  Biso   1.000  H
  H43      1.0000 0.55090  0.60390  0.86940  Biso   1.000  H
  H44      1.0000 0.94910  0.10390  0.63060  Biso   1.000  H
  H45      1.0000 0.26260  0.54620  0.05240  Biso   1.000  H
  H46      1.0000 0.23740  0.04620  0.44760  Biso   1.000  H
  H47      1.0000 0.73740  0.45380  0.94760  Biso   1.000  H
  H48      1.0000 0.76260  0.95380  0.55240  Biso   1.000  H
  H49      1.0000 0.16590  0.40440  0.02320  Biso   1.000  H
  H50      1.0000 0.33410  0.90440  0.47680  Biso   1.000  H
  H51      1.0000 0.83410  0.59560  0.97680  Biso   1.000  H
  H52      1.0000 0.66590  0.09560  0.52320  Biso   1.000  H
  H53      1.0000 0.33720  0.23090  0.65490  Biso   1.000  H
  H54      1.0000 0.16280  0.73090  0.84510  Biso   1.000  H
  H55      1.0000 0.66280  0.76910  0.34510  Biso   1.000  H
  H56      1.0000 0.83720  0.26910  0.15490  Biso   1.000  H
  H57      1.0000 0.27710  0.11100  0.70200  Biso   1.000  H
  H58      1.0000 0.22290  0.61100  0.79800  Biso   1.000  H
  H59      1.0000 0.72290  0.88900  0.29800  Biso   1.000  H
  H60      1.0000 0.77710  0.38900  0.20200  Biso   1.000  H
