data_image0
_cell_length_a       9.7292
_cell_length_b       12.0351
_cell_length_c       8.2574
_cell_angle_alpha    90
_cell_angle_beta     111.701
_cell_angle_gamma    90

_symmetry_space_group_name_H-M    "P 1"
_symmetry_int_tables_number       1

loop_
  _symmetry_equiv_pos_as_xyz
  'x, y, z'

loop_
  _atom_site_label
  _atom_site_occupancy
  _atom_site_fract_x
  _atom_site_fract_y
  _atom_site_fract_z
  _atom_site_thermal_displace_type
  _atom_site_B_iso_or_equiv
  _atom_site_type_symbol
  Ru1      1.0000 0.00000  0.00000  0.50000  Biso   1.000  Ru
  Ru2      1.0000 0.50000  0.50000  0.00000  Biso   1.000  Ru
  Cu1      1.0000 0.50000  0.00000  0.00000  Biso   1.000  Cu
  Cu2      1.0000 0.00000  0.50000  0.50000  Biso   1.000  Cu
  C1       1.0000 0.49730  0.15370  0.29280  Biso   1.000  C
  C2       1.0000 0.00270  0.65370  0.20720  Biso   1.000  C
  C3       1.0000 0.50270  0.84630  0.70720  Biso   1.000  C
  C4       1.0000 0.99730  0.34630  0.79280  Biso   1.000  C
  C5       1.0000 0.43930  0.15560  0.43330  Biso   1.000  C
  C6       1.0000 0.06070  0.65560  0.06670  Biso   1.000  C
  C7       1.0000 0.56070  0.84440  0.56670  Biso   1.000  C
  C8       1.0000 0.93930  0.34440  0.93330  Biso   1.000  C
  C9       1.0000 0.47060  0.26440  0.53400  Biso   1.000  C
  C10      1.0000 0.02940  0.76440  0.96600  Biso   1.000  C
  C11      1.0000 0.52940  0.73560  0.46600  Biso   1.000  C
  C12      1.0000 0.97060  0.23560  0.03400  Biso   1.000  C
  C13      1.0000 0.18460  0.98960  0.72630  Biso   1.000  C
  C14      1.0000 0.31540  0.48960  0.77370  Biso   1.000  C
  C15      1.0000 0.81540  0.01040  0.27370  Biso   1.000  C
  C16      1.0000 0.68460  0.51040  0.22630  Biso   1.000  C
  C17      1.0000 0.87740  0.02450  0.65340  Biso   1.000  C
  C18      1.0000 0.62260  0.52450  0.84660  Biso   1.000  C
  C19      1.0000 0.12260  0.97550  0.34660  Biso   1.000  C
  C20      1.0000 0.37740  0.47550  0.15340  Biso   1.000  C
  C21      1.0000 0.01500  0.16750  0.48300  Biso   1.000  C
  C22      1.0000 0.48500  0.66750  0.01700  Biso   1.000  C
  C23      1.0000 0.98500  0.83250  0.51700  Biso   1.000  C
  C24      1.0000 0.51500  0.33250  0.98300  Biso   1.000  C
  N1       1.0000 0.39620  0.09440  0.12850  Biso   1.000  N
  N2       1.0000 0.10380  0.59440  0.37150  Biso   1.000  N
  N3       1.0000 0.60380  0.90560  0.87150  Biso   1.000  N
  N4       1.0000 0.89620  0.40560  0.62850  Biso   1.000  N
  N5       1.0000 0.34000  0.30810  0.56100  Biso   1.000  N
  N6       1.0000 0.16000  0.80810  0.93900  Biso   1.000  N
  N7       1.0000 0.66000  0.69190  0.43900  Biso   1.000  N
  N8       1.0000 0.84000  0.19190  0.06100  Biso   1.000  N
  N9       1.0000 0.30260  0.95710  0.81650  Biso   1.000  N
  N10      1.0000 0.19740  0.45710  0.68350  Biso   1.000  N
  N11      1.0000 0.69740  0.04290  0.18350  Biso   1.000  N
  N12      1.0000 0.80260  0.54290  0.31650  Biso   1.000  N
  N13      1.0000 0.83380  0.02300  0.76770  Biso   1.000  N
  N14      1.0000 0.66620  0.52300  0.73230  Biso   1.000  N
  N15      1.0000 0.16620  0.97700  0.23230  Biso   1.000  N
  N16      1.0000 0.33380  0.47700  0.26770  Biso   1.000  N
  N17      1.0000 0.02600  0.26225  0.46000  Biso   1.000  N
  N18      1.0000 0.47400  0.76225  0.04000  Biso   1.000  N
  N19      1.0000 0.97400  0.73775  0.54000  Biso   1.000  N
  N20      1.0000 0.52600  0.23775  0.96000  Biso   1.000  N
  H1       1.0000 0.58820  0.11770  0.32770  Biso   1.000  H
  H2       1.0000 0.91180  0.61770  0.17230  Biso   1.000  H
  H3       1.0000 0.41180  0.88230  0.67230  Biso   1.000  H
  H4       1.0000 0.08820  0.38230  0.82770  Biso   1.000  H
  H5       1.0000 0.51100  0.22530  0.25900  Biso   1.000  H
  H6       1.0000 0.98900  0.72530  0.24100  Biso   1.000  H
  H7       1.0000 0.48900  0.77470  0.74100  Biso   1.000  H
  H8       1.0000 0.01100  0.27470  0.75900  Biso   1.000  H
  H9       1.0000 0.48100  0.09930  0.51400  Biso   1.000  H
  H10      1.0000 0.01900  0.59930  0.98600  Biso   1.000  H
  H11      1.0000 0.51900  0.90070  0.48600  Biso   1.000  H
  H12      1.0000 0.98100  0.40070  0.01400  Biso   1.000  H
  H13      1.0000 0.33700  0.14560  0.39000  Biso   1.000  H
  H14      1.0000 0.16300  0.64560  0.11000  Biso   1.000  H
  H15      1.0000 0.66300  0.85440  0.61000  Biso   1.000  H
  H16      1.0000 0.83700  0.35440  0.89000  Biso   1.000  H
  H17      1.0000 0.54760  0.25100  0.63900  Biso   1.000  H
  H18      1.0000 0.95240  0.75100  0.86100  Biso   1.000  H
  H19      1.0000 0.45240  0.74900  0.36100  Biso   1.000  H
  H20      1.0000 0.04760  0.24900  0.13900  Biso   1.000  H
  H21      1.0000 0.50500  0.31410  0.47100  Biso   1.000  H
  H22      1.0000 0.99500  0.81410  0.02900  Biso   1.000  H
  H23      1.0000 0.49500  0.68590  0.52900  Biso   1.000  H
  H24      1.0000 0.00500  0.18590  0.97100  Biso   1.000  H
  H25      1.0000 0.32500  0.14570  0.06660  Biso   1.000  H
  H26      1.0000 0.17500  0.64570  0.43340  Biso   1.000  H
  H27      1.0000 0.67500  0.85430  0.93340  Biso   1.000  H
  H28      1.0000 0.82500  0.35430  0.56660  Biso   1.000  H
  H29      1.0000 0.34875  0.03830  0.16500  Biso   1.000  H
  H30      1.0000 0.15125  0.53830  0.33500  Biso   1.000  H
  H31      1.0000 0.65125  0.96170  0.83500  Biso   1.000  H
  H32      1.0000 0.84875  0.46170  0.66500  Biso   1.000  H
  H33      1.0000 0.36200  0.37260  0.62732  Biso   1.000  H
  H34      1.0000 0.13800  0.87260  0.87268  Biso   1.000  H
  H35      1.0000 0.63800  0.62740  0.37268  Biso   1.000  H
  H36      1.0000 0.86200  0.12740  0.12732  Biso   1.000  H
  H37      1.0000 0.30300  0.25690  0.61800  Biso   1.000  H
  H38      1.0000 0.19700  0.75690  0.88200  Biso   1.000  H
  H39      1.0000 0.69700  0.74310  0.38200  Biso   1.000  H
  H40      1.0000 0.80300  0.24310  0.11800  Biso   1.000  H
  H41      1.0000 0.26500  0.32510  0.45500  Biso   1.000  H
  H42      1.0000 0.23500  0.82510  0.04500  Biso   1.000  H
  H43      1.0000 0.73500  0.67490  0.54500  Biso   1.000  H
  H44      1.0000 0.76500  0.17490  0.95500  Biso   1.000  H
