data_image0
_cell_length_a       9.4316
_cell_length_b       10.6777
_cell_length_c       12.2767
_cell_angle_alpha    86.101
_cell_angle_beta     81.449
_cell_angle_gamma    86.608

_symmetry_space_group_name_H-M    "P 1"
_symmetry_int_tables_number       1

loop_
  _symmetry_equiv_pos_as_xyz
  'x, y, z'

loop_
  _atom_site_label
  _atom_site_occupancy
  _atom_site_fract_x
  _atom_site_fract_y
  _atom_site_fract_z
  _atom_site_thermal_displace_type
  _atom_site_B_iso_or_equiv
  _atom_site_type_symbol
  Tb1      1.0000 0.92956  0.65141  0.35210  Biso   1.000  Tb
  Tb2      1.0000 0.07044  0.34859  0.64790  Biso   1.000  Tb
  Cu1      1.0000 0.45745  0.81298  0.12021  Biso   1.000  Cu
  Cu2      1.0000 0.54255  0.18702  0.87979  Biso   1.000  Cu
  Cu3      1.0000 0.00000  0.00000  0.00000  Biso   1.000  Cu
  O1       1.0000 0.61950  0.88740  0.02840  Biso   1.000  O
  O2       1.0000 0.38050  0.11260  0.97160  Biso   1.000  O
  O3       1.0000 0.74730  0.05900  0.01380  Biso   1.000  O
  O4       1.0000 0.25270  0.94100  0.98620  Biso   1.000  O
  O5       1.0000 0.67290  0.32580  0.34700  Biso   1.000  O
  O6       1.0000 0.32710  0.67420  0.65300  Biso   1.000  O
  O7       1.0000 0.47750  0.29780  0.47000  Biso   1.000  O
  O8       1.0000 0.52250  0.70220  0.53000  Biso   1.000  O
  O9       1.0000 0.27910  0.74980  0.19990  Biso   1.000  O
  O10      1.0000 0.72090  0.25020  0.80010  Biso   1.000  O
  O11      1.0000 0.10240  0.62560  0.18270  Biso   1.000  O
  O12      1.0000 0.89760  0.37440  0.81730  Biso   1.000  O
  O13      1.0000 0.18260  0.41450  0.79210  Biso   1.000  O
  O14      1.0000 0.81740  0.58550  0.20790  Biso   1.000  O
  O15      1.0000 0.40900  0.33550  0.78060  Biso   1.000  O
  O16      1.0000 0.59100  0.66450  0.21940  Biso   1.000  O
  O17      1.0000 0.99590  0.86260  0.30720  Biso   1.000  O
  O18      1.0000 0.00410  0.13740  0.69280  Biso   1.000  O
  O19      1.0000 0.96570  0.88210  0.13000  Biso   1.000  O
  O20      1.0000 0.03430  0.11790  0.87000  Biso   1.000  O
  O21      1.0000 0.10970  0.27950  0.46630  Biso   1.000  O
  O22      1.0000 0.89030  0.72050  0.53370  Biso   1.000  O
  O23      1.0000 0.01920  0.44800  0.37700  Biso   1.000  O
  O24      1.0000 0.98080  0.55200  0.62300  Biso   1.000  O
  O25      1.0000 0.16270  0.66890  0.40980  Biso   1.000  O
  O26      1.0000 0.83730  0.33110  0.59020  Biso   1.000  O
  O27      1.0000 0.73230  0.52140  0.44700  Biso   1.000  O
  O28      1.0000 0.26770  0.47860  0.55300  Biso   1.000  O
  O29      1.0000 0.71360  0.78720  0.36190  Biso   1.000  O
  O30      1.0000 0.28640  0.21280  0.63810  Biso   1.000  O
  N1       1.0000 0.47400  0.94860  0.21860  Biso   1.000  N
  N2       1.0000 0.52600  0.05140  0.78140  Biso   1.000  N
  N3       1.0000 0.42550  0.69510  0.01010  Biso   1.000  N
  N4       1.0000 0.57450  0.30490  0.98990  Biso   1.000  N
  N5       1.0000 0.02480  0.11890  0.11050  Biso   1.000  N
  N6       1.0000 0.97520  0.88110  0.88950  Biso   1.000  N
  C1       1.0000 0.58300  0.02140  0.17720  Biso   1.000  C
  C2       1.0000 0.41700  0.97860  0.82280  Biso   1.000  C
  C3       1.0000 0.61650  0.12140  0.23270  Biso   1.000  C
  C4       1.0000 0.38350  0.87860  0.76730  Biso   1.000  C
  H1       1.0000 0.69580  0.17000  0.20270  Biso   1.000  H
  H2       1.0000 0.30420  0.83000  0.79730  Biso   1.000  H
  C5       1.0000 0.53510  0.15140  0.33180  Biso   1.000  C
  C6       1.0000 0.46490  0.84860  0.66820  Biso   1.000  C
  C7       1.0000 0.56500  0.26800  0.38920  Biso   1.000  C
  C8       1.0000 0.43500  0.73200  0.61080  Biso   1.000  C
  C9       1.0000 0.42210  0.07660  0.37220  Biso   1.000  C
  C10      1.0000 0.57790  0.92340  0.62780  Biso   1.000  C
  H3       1.0000 0.36320  0.09430  0.43960  Biso   1.000  H
  H4       1.0000 0.63680  0.90570  0.56040  Biso   1.000  H
  C11      1.0000 0.39460  0.97560  0.31430  Biso   1.000  C
  C12      1.0000 0.60540  0.02440  0.68570  Biso   1.000  C
  H5       1.0000 0.31720  0.92440  0.34360  Biso   1.000  H
  H6       1.0000 0.68280  0.07560  0.65640  Biso   1.000  H
  C13      1.0000 0.65910  0.98790  0.06500  Biso   1.000  C
  C14      1.0000 0.34090  0.01210  0.93500  Biso   1.000  C
  C15      1.0000 0.29810  0.64090  0.03680  Biso   1.000  C
  C16      1.0000 0.70190  0.35910  0.96320  Biso   1.000  C
  C17      1.0000 0.25250  0.55510  0.97120  Biso   1.000  C
  C18      1.0000 0.74750  0.44490  0.02880  Biso   1.000  C
  H7       1.0000 0.15920  0.52350  0.98790  Biso   1.000  H
  H8       1.0000 0.84080  0.47650  0.01210  Biso   1.000  H
  C19      1.0000 0.34780  0.51670  0.87990  Biso   1.000  C
  C20      1.0000 0.65220  0.48330  0.12010  Biso   1.000  C
  C21      1.0000 0.47920  0.56990  0.85410  Biso   1.000  C
  C22      1.0000 0.52080  0.43010  0.14590  Biso   1.000  C
  H9       1.0000 0.54480  0.54480  0.79210  Biso   1.000  H
  H10      1.0000 0.45520  0.45520  0.20790  Biso   1.000  H
  C23      1.0000 0.51450  0.66120  0.92030  Biso   1.000  C
  C24      1.0000 0.48550  0.33880  0.07970  Biso   1.000  C
  H11      1.0000 0.60360  0.70010  0.90130  Biso   1.000  H
  H12      1.0000 0.39640  0.29990  0.09870  Biso   1.000  H
  C25      1.0000 0.30970  0.41340  0.81150  Biso   1.000  C
  C26      1.0000 0.69030  0.58660  0.18850  Biso   1.000  C
  C27      1.0000 0.21850  0.67460  0.14710  Biso   1.000  C
  C28      1.0000 0.78150  0.32540  0.85290  Biso   1.000  C
  C29      1.0000 0.02150  0.06260  0.21300  Biso   1.000  C
  C30      1.0000 0.97850  0.93740  0.78700  Biso   1.000  C
  C31      1.0000 0.03740  0.12800  0.30300  Biso   1.000  C
  C32      1.0000 0.96260  0.87200  0.69700  Biso   1.000  C
  H13      1.0000 0.03840  0.08600  0.37370  Biso   1.000  H
  H14      1.0000 0.96160  0.91400  0.62630  Biso   1.000  H
  C33      1.0000 0.05200  0.25790  0.28760  Biso   1.000  C
  C34      1.0000 0.94800  0.74210  0.71240  Biso   1.000  C
  C35      1.0000 0.05490  0.31500  0.18240  Biso   1.000  C
  C36      1.0000 0.94510  0.68500  0.81760  Biso   1.000  C
  H15      1.0000 0.06380  0.40320  0.17030  Biso   1.000  H
  H16      1.0000 0.93620  0.59680  0.82970  Biso   1.000  H
  C37      1.0000 0.04470  0.24190  0.09500  Biso   1.000  C
  C38      1.0000 0.95530  0.75810  0.90500  Biso   1.000  C
  H17      1.0000 0.05200  0.28030  0.02240  Biso   1.000  H
  H18      1.0000 0.94800  0.71970  0.97760  Biso   1.000  H
  C39      1.0000 0.99280  0.92400  0.21830  Biso   1.000  C
  C40      1.0000 0.00720  0.07600  0.78170  Biso   1.000  C
  C41      1.0000 0.06120  0.33550  0.38500  Biso   1.000  C
  C42      1.0000 0.93880  0.66450  0.61500  Biso   1.000  C
  H19      1.0000 0.65320  0.51710  0.42540  Biso   1.000  H
  H20      1.0000 0.34680  0.48290  0.57460  Biso   1.000  H
  H21      1.0000 0.18820  0.65130  0.47570  Biso   1.000  H
  H22      1.0000 0.81180  0.34870  0.52430  Biso   1.000  H
  H23      1.0000 0.22020  0.69360  0.35060  Biso   1.000  H
  H24      1.0000 0.77980  0.30640  0.64940  Biso   1.000  H
  H25      1.0000 0.72470  0.56220  0.50870  Biso   1.000  H
  H26      1.0000 0.27530  0.43780  0.49130  Biso   1.000  H
  H27      1.0000 0.65780  0.76920  0.31700  Biso   1.000  H
  H28      1.0000 0.34220  0.23080  0.68300  Biso   1.000  H
  H29      1.0000 0.67080  0.75410  0.42470  Biso   1.000  H
  H30      1.0000 0.32920  0.24590  0.57530  Biso   1.000  H
