data_image0
_cell_length_a       9.4098
_cell_length_b       10.622
_cell_length_c       12.2324
_cell_angle_alpha    86.095
_cell_angle_beta     81.384
_cell_angle_gamma    86.665

_symmetry_space_group_name_H-M    "P 1"
_symmetry_int_tables_number       1

loop_
  _symmetry_equiv_pos_as_xyz
  'x, y, z'

loop_
  _atom_site_label
  _atom_site_occupancy
  _atom_site_fract_x
  _atom_site_fract_y
  _atom_site_fract_z
  _atom_site_thermal_displace_type
  _atom_site_B_iso_or_equiv
  _atom_site_type_symbol
  Er1      1.0000 0.56995  0.34885  0.14733  Biso   1.000  Er
  Er2      1.0000 0.43005  0.65115  0.85267  Biso   1.000  Er
  Cu1      1.0000 0.50000  0.00000  0.50000  Biso   1.000  Cu
  Cu2      1.0000 0.04203  0.18811  0.37966  Biso   1.000  Cu
  Cu3      1.0000 0.95797  0.81189  0.62034  Biso   1.000  Cu
  O1       1.0000 0.53530  0.11910  0.36980  Biso   1.000  O
  O2       1.0000 0.46470  0.88090  0.63020  Biso   1.000  O
  O3       1.0000 0.50330  0.14020  0.19270  Biso   1.000  O
  O4       1.0000 0.49670  0.85980  0.80730  Biso   1.000  O
  O5       1.0000 0.48150  0.55030  0.12310  Biso   1.000  O
  O6       1.0000 0.51850  0.44970  0.87690  Biso   1.000  O
  O7       1.0000 0.39190  0.71770  0.03230  Biso   1.000  O
  O8       1.0000 0.60810  0.28230  0.96770  Biso   1.000  O
  O9       1.0000 0.75210  0.94020  0.48710  Biso   1.000  O
  O10      1.0000 0.24790  0.05980  0.51290  Biso   1.000  O
  O11      1.0000 0.88110  0.11200  0.47300  Biso   1.000  O
  O12      1.0000 0.11890  0.88800  0.52700  Biso   1.000  O
  O13      1.0000 0.82580  0.67490  0.15160  Biso   1.000  O
  O14      1.0000 0.17420  0.32510  0.84840  Biso   1.000  O
  O15      1.0000 0.02250  0.70120  0.02940  Biso   1.000  O
  O16      1.0000 0.97750  0.29880  0.97060  Biso   1.000  O
  O17      1.0000 0.39890  0.37480  0.31570  Biso   1.000  O
  O18      1.0000 0.60110  0.62520  0.68430  Biso   1.000  O
  O19      1.0000 0.21970  0.25120  0.29880  Biso   1.000  O
  O20      1.0000 0.78030  0.74880  0.70120  Biso   1.000  O
  O21      1.0000 0.31990  0.58530  0.71000  Biso   1.000  O
  O22      1.0000 0.68010  0.41470  0.29000  Biso   1.000  O
  O23      1.0000 0.09380  0.66660  0.71890  Biso   1.000  O
  O24      1.0000 0.90620  0.33340  0.28110  Biso   1.000  O
  O25      1.0000 0.78220  0.21410  0.13790  Biso   1.000  O
  O26      1.0000 0.21780  0.78590  0.86210  Biso   1.000  O
  O27      1.0000 0.76460  0.47700  0.05230  Biso   1.000  O
  O28      1.0000 0.23540  0.52300  0.94770  Biso   1.000  O
  O29      1.0000 0.34020  0.33110  0.09130  Biso   1.000  O
  O30      1.0000 0.65980  0.66890  0.90870  Biso   1.000  O
  N1       1.0000 0.47500  0.88170  0.38860  Biso   1.000  N
  N2       1.0000 0.52500  0.11830  0.61140  Biso   1.000  N
  N3       1.0000 0.02570  0.05170  0.28100  Biso   1.000  N
  N4       1.0000 0.97430  0.94830  0.71900  Biso   1.000  N
  N5       1.0000 0.07520  0.30750  0.48900  Biso   1.000  N
  N6       1.0000 0.92480  0.69250  0.51100  Biso   1.000  N
  C1       1.0000 0.45660  0.75720  0.40370  Biso   1.000  C
  C2       1.0000 0.54340  0.24280  0.59630  Biso   1.000  C
  H1       1.0000 0.45060  0.71820  0.47640  Biso   1.000  H
  H2       1.0000 0.54940  0.28180  0.52360  Biso   1.000  H
  C3       1.0000 0.44640  0.68490  0.31710  Biso   1.000  C
  C4       1.0000 0.55360  0.31510  0.68290  Biso   1.000  C
  H3       1.0000 0.43840  0.59620  0.32900  Biso   1.000  H
  H4       1.0000 0.56160  0.40380  0.67100  Biso   1.000  H
  C5       1.0000 0.44800  0.74260  0.21140  Biso   1.000  C
  C6       1.0000 0.55200  0.25740  0.78860  Biso   1.000  C
  C7       1.0000 0.46350  0.87220  0.19580  Biso   1.000  C
  C8       1.0000 0.53650  0.12780  0.80420  Biso   1.000  C
  H5       1.0000 0.46370  0.91450  0.12480  Biso   1.000  H
  H6       1.0000 0.53630  0.08550  0.87520  Biso   1.000  H
  C9       1.0000 0.47860  0.93790  0.28720  Biso   1.000  C
  C10      1.0000 0.52140  0.06210  0.71280  Biso   1.000  C
  C11      1.0000 0.50770  0.07770  0.28100  Biso   1.000  C
  C12      1.0000 0.49230  0.92230  0.71900  Biso   1.000  C
  C13      1.0000 0.43990  0.66460  0.11380  Biso   1.000  C
  C14      1.0000 0.56010  0.33540  0.88620  Biso   1.000  C
  C15      1.0000 0.10470  0.02490  0.18490  Biso   1.000  C
  C16      1.0000 0.89530  0.97510  0.81510  Biso   1.000  C
  H7       1.0000 0.18170  0.07690  0.15520  Biso   1.000  H
  H8       1.0000 0.81830  0.92310  0.84480  Biso   1.000  H
  C17      1.0000 0.07790  0.92420  0.12750  Biso   1.000  C
  C18      1.0000 0.92210  0.07580  0.87250  Biso   1.000  C
  H9       1.0000 0.13760  0.90600  0.06010  Biso   1.000  H
  H10      1.0000 0.86240  0.09400  0.93990  Biso   1.000  H
  C19      1.0000 0.96330  0.84910  0.16820  Biso   1.000  C
  C20      1.0000 0.03670  0.15090  0.83180  Biso   1.000  C
  C21      1.0000 0.88050  0.87870  0.26780  Biso   1.000  C
  C22      1.0000 0.11950  0.12130  0.73220  Biso   1.000  C
  H11      1.0000 0.80030  0.83050  0.29780  Biso   1.000  H
  H12      1.0000 0.19970  0.16950  0.70220  Biso   1.000  H
  C23      1.0000 0.91600  0.97890  0.32270  Biso   1.000  C
  C24      1.0000 0.08400  0.02110  0.67730  Biso   1.000  C
  C25      1.0000 0.84120  0.01210  0.43550  Biso   1.000  C
  C26      1.0000 0.15880  0.98790  0.56450  Biso   1.000  C
  C27      1.0000 0.93460  0.73190  0.10990  Biso   1.000  C
  C28      1.0000 0.06540  0.26810  0.89010  Biso   1.000  C
  H13      1.0000 0.27900  0.29390  0.13410  Biso   1.000  H
  H14      1.0000 0.72100  0.70610  0.86590  Biso   1.000  H
  H15      1.0000 0.32480  0.38460  0.04390  Biso   1.000  H
  H16      1.0000 0.67520  0.61540  0.95610  Biso   1.000  H
  H17      1.0000 0.82040  0.21630  0.07400  Biso   1.000  H
  H18      1.0000 0.17960  0.78370  0.92600  Biso   1.000  H
  H19      1.0000 0.82900  0.25250  0.17790  Biso   1.000  H
  H20      1.0000 0.17100  0.74750  0.82210  Biso   1.000  H
  H21      1.0000 0.79320  0.53200  0.08740  Biso   1.000  H
  H22      1.0000 0.20680  0.46800  0.91260  Biso   1.000  H
  H23      1.0000 0.82830  0.44170  0.01150  Biso   1.000  H
  H24      1.0000 0.17170  0.55830  0.98850  Biso   1.000  H
  C29      1.0000 0.98770  0.34020  0.57980  Biso   1.000  C
  C30      1.0000 0.01230  0.65980  0.42020  Biso   1.000  C
  H25      1.0000 0.89890  0.30040  0.59970  Biso   1.000  H
  H26      1.0000 0.10110  0.69960  0.40030  Biso   1.000  H
  C31      1.0000 0.02330  0.43070  0.64560  Biso   1.000  C
  C32      1.0000 0.97670  0.56930  0.35440  Biso   1.000  C
  H27      1.0000 0.95740  0.45580  0.70780  Biso   1.000  H
  H28      1.0000 0.04260  0.54420  0.29220  Biso   1.000  H
  C33      1.0000 0.15630  0.48480  0.62030  Biso   1.000  C
  C34      1.0000 0.84370  0.51520  0.37970  Biso   1.000  C
  C35      1.0000 0.24900  0.44570  0.52870  Biso   1.000  C
  C36      1.0000 0.75100  0.55430  0.47130  Biso   1.000  C
  H29      1.0000 0.34270  0.47710  0.51150  Biso   1.000  H
  H30      1.0000 0.65730  0.52290  0.48850  Biso   1.000  H
  C37      1.0000 0.20360  0.36090  0.46310  Biso   1.000  C
  C38      1.0000 0.79640  0.63910  0.53690  Biso   1.000  C
  C39      1.0000 0.28330  0.32580  0.35160  Biso   1.000  C
  C40      1.0000 0.71670  0.67420  0.64840  Biso   1.000  C
  C41      1.0000 0.19350  0.58720  0.68880  Biso   1.000  C
  C42      1.0000 0.80650  0.41280  0.31120  Biso   1.000  C
