data_image0
_cell_length_a       10.39
_cell_length_b       18.438
_cell_length_c       7.6784
_cell_angle_alpha    90
_cell_angle_beta     105.57
_cell_angle_gamma    90

_symmetry_space_group_name_H-M    "P 1"
_symmetry_int_tables_number       1

loop_
  _symmetry_equiv_pos_as_xyz
  'x, y, z'

loop_
  _atom_site_label
  _atom_site_occupancy
  _atom_site_fract_x
  _atom_site_fract_y
  _atom_site_fract_z
  _atom_site_thermal_displace_type
  _atom_site_B_iso_or_equiv
  _atom_site_type_symbol
  Cu1      1.0000 0.89093  0.08721  0.82483  Biso   1.000  Cu
  Cu2      1.0000 0.10907  0.58721  0.67517  Biso   1.000  Cu
  Cu3      1.0000 0.10907  0.91279  0.17517  Biso   1.000  Cu
  Cu4      1.0000 0.89093  0.41279  0.32483  Biso   1.000  Cu
  N1       1.0000 0.98480  0.00542  0.75480  Biso   1.000  N
  N2       1.0000 0.01520  0.50542  0.74520  Biso   1.000  N
  N3       1.0000 0.01520  0.99458  0.24520  Biso   1.000  N
  N4       1.0000 0.98480  0.49458  0.25480  Biso   1.000  N
  C1       1.0000 0.16240  0.09070  0.82710  Biso   1.000  C
  C2       1.0000 0.83760  0.59070  0.67290  Biso   1.000  C
  C3       1.0000 0.83760  0.90930  0.17290  Biso   1.000  C
  C4       1.0000 0.16240  0.40930  0.32710  Biso   1.000  C
  N5       1.0000 0.73860  0.01634  0.77030  Biso   1.000  N
  N6       1.0000 0.26140  0.51634  0.72970  Biso   1.000  N
  N7       1.0000 0.26140  0.98366  0.22970  Biso   1.000  N
  N8       1.0000 0.73860  0.48366  0.27030  Biso   1.000  N
  O1       1.0000 0.94530  0.89113  0.62170  Biso   1.000  O
  O2       1.0000 0.05470  0.39113  0.87830  Biso   1.000  O
  O3       1.0000 0.05470  0.10887  0.37830  Biso   1.000  O
  O4       1.0000 0.94530  0.60887  0.12170  Biso   1.000  O
  N9       1.0000 0.07180  0.13258  0.87340  Biso   1.000  N
  N10      1.0000 0.92820  0.63258  0.62660  Biso   1.000  N
  N11      1.0000 0.92820  0.86742  0.12660  Biso   1.000  N
  N12      1.0000 0.07180  0.36742  0.37340  Biso   1.000  N
  C5       1.0000 0.78460  0.16770  0.43290  Biso   1.000  C
  C6       1.0000 0.21540  0.66770  0.06710  Biso   1.000  C
  C7       1.0000 0.21540  0.83230  0.56710  Biso   1.000  C
  C8       1.0000 0.78460  0.33230  0.93290  Biso   1.000  C
  O5       1.0000 0.18900  0.97577  0.70290  Biso   1.000  O
  O6       1.0000 0.81100  0.47577  0.79710  Biso   1.000  O
  O7       1.0000 0.81100  0.02423  0.29710  Biso   1.000  O
  O8       1.0000 0.18900  0.52423  0.20290  Biso   1.000  O
  N13      1.0000 0.82800  0.14624  0.99960  Biso   1.000  N
  N14      1.0000 0.17200  0.64624  0.50040  Biso   1.000  N
  N15      1.0000 0.17200  0.85376  0.00040  Biso   1.000  N
  N16      1.0000 0.82800  0.35376  0.49960  Biso   1.000  N
  C9       1.0000 0.11430  0.01640  0.75350  Biso   1.000  C
  C10      1.0000 0.88570  0.51640  0.74650  Biso   1.000  C
  C11      1.0000 0.88570  0.98360  0.24650  Biso   1.000  C
  C12      1.0000 0.11430  0.48360  0.25350  Biso   1.000  C
  N17      1.0000 0.68450  0.89927  0.64630  Biso   1.000  N
  N18      1.0000 0.31550  0.39927  0.85370  Biso   1.000  N
  N19      1.0000 0.31550  0.10073  0.35370  Biso   1.000  N
  N20      1.0000 0.68450  0.60073  0.14630  Biso   1.000  N
  C13      1.0000 0.91100  0.94540  0.68680  Biso   1.000  C
  C14      1.0000 0.08900  0.44540  0.81320  Biso   1.000  C
  C15      1.0000 0.08900  0.05460  0.31320  Biso   1.000  C
  C16      1.0000 0.91100  0.55460  0.18680  Biso   1.000  C
  N21      1.0000 0.54620  0.28450  0.17980  Biso   1.000  N
  N22      1.0000 0.45380  0.78450  0.32020  Biso   1.000  N
  N23      1.0000 0.45380  0.71550  0.82020  Biso   1.000  N
  N24      1.0000 0.54620  0.21550  0.67980  Biso   1.000  N
  C17      1.0000 0.73570  0.19170  0.25410  Biso   1.000  C
  C18      1.0000 0.26430  0.69170  0.24590  Biso   1.000  C
  C19      1.0000 0.26430  0.80830  0.74590  Biso   1.000  C
  C20      1.0000 0.73570  0.30830  0.75410  Biso   1.000  C
  C21      1.0000 0.63180  0.24330  0.21280  Biso   1.000  C
  C22      1.0000 0.36820  0.74330  0.28720  Biso   1.000  C
  C23      1.0000 0.36820  0.75670  0.78720  Biso   1.000  C
  C24      1.0000 0.63180  0.25670  0.71280  Biso   1.000  C
  C25      1.0000 0.56050  0.90910  0.66270  Biso   1.000  C
  C26      1.0000 0.43950  0.40910  0.83730  Biso   1.000  C
  C27      1.0000 0.43950  0.09090  0.33730  Biso   1.000  C
  C28      1.0000 0.56050  0.59090  0.16270  Biso   1.000  C
  H1       1.0000 0.49910  0.87160  0.62790  Biso   1.000  H
  H2       1.0000 0.50090  0.37160  0.87210  Biso   1.000  H
  H3       1.0000 0.50090  0.12840  0.37210  Biso   1.000  H
  H4       1.0000 0.49910  0.62840  0.12790  Biso   1.000  H
  C29      1.0000 0.23190  0.22580  0.93680  Biso   1.000  C
  C30      1.0000 0.76810  0.72580  0.56320  Biso   1.000  C
  C31      1.0000 0.76810  0.77420  0.06320  Biso   1.000  C
  C32      1.0000 0.23190  0.27420  0.43680  Biso   1.000  C
  H5       1.0000 0.25740  0.27300  0.97280  Biso   1.000  H
  H6       1.0000 0.74260  0.77300  0.52720  Biso   1.000  H
  H7       1.0000 0.74260  0.72700  0.02720  Biso   1.000  H
  H8       1.0000 0.25740  0.22700  0.47280  Biso   1.000  H
  N25      1.0000 0.81910  0.15079  0.58120  Biso   1.000  N
  N26      1.0000 0.18090  0.65079  0.91880  Biso   1.000  N
  N27      1.0000 0.18090  0.84921  0.41880  Biso   1.000  N
  N28      1.0000 0.81910  0.34921  0.08120  Biso   1.000  N
  C33      1.0000 0.78810  0.16550  0.11750  Biso   1.000  C
  C34      1.0000 0.21190  0.66550  0.38250  Biso   1.000  C
  C35      1.0000 0.21190  0.83450  0.88250  Biso   1.000  C
  C36      1.0000 0.78810  0.33450  0.61750  Biso   1.000  C
  C37      1.0000 0.61360  0.02570  0.78270  Biso   1.000  C
  C38      1.0000 0.38640  0.52570  0.71730  Biso   1.000  C
  C39      1.0000 0.38640  0.97430  0.21730  Biso   1.000  C
  C40      1.0000 0.61360  0.47430  0.28270  Biso   1.000  C
  H9       1.0000 0.59010  0.06890  0.82850  Biso   1.000  H
  H10      1.0000 0.40990  0.56890  0.67150  Biso   1.000  H
  H11      1.0000 0.40990  0.93110  0.17150  Biso   1.000  H
  H12      1.0000 0.59010  0.43110  0.32850  Biso   1.000  H
  C41      1.0000 0.76810  0.95340  0.70230  Biso   1.000  C
  C42      1.0000 0.23190  0.45340  0.79770  Biso   1.000  C
  C43      1.0000 0.23190  0.04660  0.29770  Biso   1.000  C
  C44      1.0000 0.76810  0.54660  0.20230  Biso   1.000  C
  N29      1.0000 0.28660  0.10990  0.83730  Biso   1.000  N
  N30      1.0000 0.71340  0.60990  0.66270  Biso   1.000  N
  N31      1.0000 0.71340  0.89010  0.16270  Biso   1.000  N
  N32      1.0000 0.28660  0.39010  0.33730  Biso   1.000  N
  C45      1.0000 0.10640  0.20100  0.92660  Biso   1.000  C
  C46      1.0000 0.89360  0.70100  0.57340  Biso   1.000  C
  C47      1.0000 0.89360  0.79900  0.07340  Biso   1.000  C
  C48      1.0000 0.10640  0.29900  0.42660  Biso   1.000  C
  H13      1.0000 0.04440  0.23150  0.95660  Biso   1.000  H
  H14      1.0000 0.95560  0.73150  0.54340  Biso   1.000  H
  H15      1.0000 0.95560  0.76850  0.04340  Biso   1.000  H
  H16      1.0000 0.04440  0.26850  0.45660  Biso   1.000  H
  C49      1.0000 0.51950  0.97190  0.72840  Biso   1.000  C
  C50      1.0000 0.48050  0.47190  0.77160  Biso   1.000  C
  C51      1.0000 0.48050  0.02810  0.27160  Biso   1.000  C
  C52      1.0000 0.51950  0.52810  0.22840  Biso   1.000  C
  H17      1.0000 0.43230  0.97780  0.73580  Biso   1.000  H
  H18      1.0000 0.56770  0.47780  0.76420  Biso   1.000  H
  H19      1.0000 0.56770  0.02220  0.26420  Biso   1.000  H
  H20      1.0000 0.43230  0.52220  0.23580  Biso   1.000  H
  C53      1.0000 0.31910  0.17790  0.89180  Biso   1.000  C
  C54      1.0000 0.68090  0.67790  0.60820  Biso   1.000  C
  C55      1.0000 0.68090  0.82210  0.10820  Biso   1.000  C
  C56      1.0000 0.31910  0.32210  0.39180  Biso   1.000  C
  H21      1.0000 0.40540  0.19370  0.89960  Biso   1.000  H
  H22      1.0000 0.59460  0.69370  0.60040  Biso   1.000  H
  H23      1.0000 0.59460  0.80630  0.10040  Biso   1.000  H
  H24      1.0000 0.40540  0.30630  0.39960  Biso   1.000  H
