data_image0
_cell_length_a       24.2
_cell_length_b       9.879
_cell_length_c       18.54
_cell_angle_alpha    90
_cell_angle_beta     97.131
_cell_angle_gamma    90

_symmetry_space_group_name_H-M    "P 1"
_symmetry_int_tables_number       1

loop_
  _symmetry_equiv_pos_as_xyz
  'x, y, z'

loop_
  _atom_site_label
  _atom_site_occupancy
  _atom_site_fract_x
  _atom_site_fract_y
  _atom_site_fract_z
  _atom_site_thermal_displace_type
  _atom_site_B_iso_or_equiv
  _atom_site_type_symbol
  Cu1      1.0000 0.20399  0.79254  0.02371  Biso   1.000  Cu
  Cu2      1.0000 0.70399  0.29254  0.02371  Biso   1.000  Cu
  Cu3      1.0000 0.79601  0.79254  0.47629  Biso   1.000  Cu
  Cu4      1.0000 0.29601  0.29254  0.47629  Biso   1.000  Cu
  Cu5      1.0000 0.79601  0.20746  0.97629  Biso   1.000  Cu
  Cu6      1.0000 0.29601  0.70746  0.97629  Biso   1.000  Cu
  Cu7      1.0000 0.20399  0.20746  0.52371  Biso   1.000  Cu
  Cu8      1.0000 0.70399  0.70746  0.52371  Biso   1.000  Cu
  O1       1.0000 0.17100  0.75430  0.92320  Biso   1.000  O
  O2       1.0000 0.67100  0.25430  0.92320  Biso   1.000  O
  O3       1.0000 0.82900  0.75430  0.57680  Biso   1.000  O
  O4       1.0000 0.32900  0.25430  0.57680  Biso   1.000  O
  O5       1.0000 0.82900  0.24570  0.07680  Biso   1.000  O
  O6       1.0000 0.32900  0.74570  0.07680  Biso   1.000  O
  O7       1.0000 0.17100  0.24570  0.42320  Biso   1.000  O
  O8       1.0000 0.67100  0.74570  0.42320  Biso   1.000  O
  C1       1.0000 0.19750  0.71720  0.87520  Biso   1.000  C
  C2       1.0000 0.69750  0.21720  0.87520  Biso   1.000  C
  C3       1.0000 0.80250  0.71720  0.62480  Biso   1.000  C
  C4       1.0000 0.30250  0.21720  0.62480  Biso   1.000  C
  C5       1.0000 0.80250  0.28280  0.12480  Biso   1.000  C
  C6       1.0000 0.30250  0.78280  0.12480  Biso   1.000  C
  C7       1.0000 0.19750  0.28280  0.37520  Biso   1.000  C
  C8       1.0000 0.69750  0.78280  0.37520  Biso   1.000  C
  O9       1.0000 0.24930  0.67770  0.88340  Biso   1.000  O
  O10      1.0000 0.74930  0.17770  0.88340  Biso   1.000  O
  O11      1.0000 0.75070  0.67770  0.61660  Biso   1.000  O
  O12      1.0000 0.25070  0.17770  0.61660  Biso   1.000  O
  O13      1.0000 0.75070  0.32230  0.11660  Biso   1.000  O
  O14      1.0000 0.25070  0.82230  0.11660  Biso   1.000  O
  O15      1.0000 0.24930  0.32230  0.38340  Biso   1.000  O
  O16      1.0000 0.74930  0.82230  0.38340  Biso   1.000  O
  C9       1.0000 0.16990  0.71380  0.79770  Biso   1.000  C
  C10      1.0000 0.66990  0.21380  0.79770  Biso   1.000  C
  C11      1.0000 0.83010  0.71380  0.70230  Biso   1.000  C
  C12      1.0000 0.33010  0.21380  0.70230  Biso   1.000  C
  C13      1.0000 0.83010  0.28620  0.20230  Biso   1.000  C
  C14      1.0000 0.33010  0.78620  0.20230  Biso   1.000  C
  C15      1.0000 0.16990  0.28620  0.29770  Biso   1.000  C
  C16      1.0000 0.66990  0.78620  0.29770  Biso   1.000  C
  H1       1.0000 0.18500  0.78420  0.77040  Biso   1.000  H
  H2       1.0000 0.68500  0.28420  0.77040  Biso   1.000  H
  H3       1.0000 0.81500  0.78420  0.72960  Biso   1.000  H
  H4       1.0000 0.31500  0.28420  0.72960  Biso   1.000  H
  H5       1.0000 0.81500  0.21580  0.22960  Biso   1.000  H
  H6       1.0000 0.31500  0.71580  0.22960  Biso   1.000  H
  H7       1.0000 0.18500  0.21580  0.27040  Biso   1.000  H
  H8       1.0000 0.68500  0.71580  0.27040  Biso   1.000  H
  H9       1.0000 0.13050  0.72740  0.79690  Biso   1.000  H
  H10      1.0000 0.63050  0.22740  0.79690  Biso   1.000  H
  H11      1.0000 0.86950  0.72740  0.70310  Biso   1.000  H
  H12      1.0000 0.36950  0.22740  0.70310  Biso   1.000  H
  H13      1.0000 0.86950  0.27260  0.20310  Biso   1.000  H
  H14      1.0000 0.36950  0.77260  0.20310  Biso   1.000  H
  H15      1.0000 0.13050  0.27260  0.29690  Biso   1.000  H
  H16      1.0000 0.63050  0.77260  0.29690  Biso   1.000  H
  H17      1.0000 0.17650  0.62750  0.77650  Biso   1.000  H
  H18      1.0000 0.67650  0.12750  0.77650  Biso   1.000  H
  H19      1.0000 0.82350  0.62750  0.72350  Biso   1.000  H
  H20      1.0000 0.32350  0.12750  0.72350  Biso   1.000  H
  H21      1.0000 0.82350  0.37250  0.22350  Biso   1.000  H
  H22      1.0000 0.32350  0.87250  0.22350  Biso   1.000  H
  H23      1.0000 0.17650  0.37250  0.27650  Biso   1.000  H
  H24      1.0000 0.67650  0.87250  0.27650  Biso   1.000  H
  O17      1.0000 0.12520  0.84810  0.05520  Biso   1.000  O
  O18      1.0000 0.62520  0.34810  0.05520  Biso   1.000  O
  O19      1.0000 0.87480  0.84810  0.44480  Biso   1.000  O
  O20      1.0000 0.37480  0.34810  0.44480  Biso   1.000  O
  O21      1.0000 0.87480  0.15190  0.94480  Biso   1.000  O
  O22      1.0000 0.37480  0.65190  0.94480  Biso   1.000  O
  O23      1.0000 0.12520  0.15190  0.55520  Biso   1.000  O
  O24      1.0000 0.62520  0.65190  0.55520  Biso   1.000  O
  C17      1.0000 0.10560  0.95850  0.07310  Biso   1.000  C
  C18      1.0000 0.60560  0.45850  0.07310  Biso   1.000  C
  C19      1.0000 0.89440  0.95850  0.42690  Biso   1.000  C
  C20      1.0000 0.39440  0.45850  0.42690  Biso   1.000  C
  C21      1.0000 0.89440  0.04150  0.92690  Biso   1.000  C
  C22      1.0000 0.39440  0.54150  0.92690  Biso   1.000  C
  C23      1.0000 0.10560  0.04150  0.57310  Biso   1.000  C
  C24      1.0000 0.60560  0.54150  0.57310  Biso   1.000  C
  O25      1.0000 0.05180  0.97830  0.05740  Biso   1.000  O
  O26      1.0000 0.55180  0.47830  0.05740  Biso   1.000  O
  O27      1.0000 0.94820  0.97830  0.44260  Biso   1.000  O
  O28      1.0000 0.44820  0.47830  0.44260  Biso   1.000  O
  O29      1.0000 0.94820  0.02170  0.94260  Biso   1.000  O
  O30      1.0000 0.44820  0.52170  0.94260  Biso   1.000  O
  O31      1.0000 0.05180  0.02170  0.55740  Biso   1.000  O
  O32      1.0000 0.55180  0.52170  0.55740  Biso   1.000  O
  C25      1.0000 0.13810  0.06540  0.11270  Biso   1.000  C
  C26      1.0000 0.63810  0.56540  0.11270  Biso   1.000  C
  C27      1.0000 0.86190  0.06540  0.38730  Biso   1.000  C
  C28      1.0000 0.36190  0.56540  0.38730  Biso   1.000  C
  C29      1.0000 0.86190  0.93460  0.88730  Biso   1.000  C
  C30      1.0000 0.36190  0.43460  0.88730  Biso   1.000  C
  C31      1.0000 0.13810  0.93460  0.61270  Biso   1.000  C
  C32      1.0000 0.63810  0.43460  0.61270  Biso   1.000  C
  H25      1.0000 0.15360  0.03220  0.15960  Biso   1.000  H
  H26      1.0000 0.65360  0.53220  0.15960  Biso   1.000  H
  H27      1.0000 0.84640  0.03220  0.34040  Biso   1.000  H
  H28      1.0000 0.34640  0.53220  0.34040  Biso   1.000  H
  H29      1.0000 0.84640  0.96780  0.84040  Biso   1.000  H
  H30      1.0000 0.34640  0.46780  0.84040  Biso   1.000  H
  H31      1.0000 0.15360  0.96780  0.65960  Biso   1.000  H
  H32      1.0000 0.65360  0.46780  0.65960  Biso   1.000  H
  H33      1.0000 0.11440  0.14150  0.11880  Biso   1.000  H
  H34      1.0000 0.61440  0.64150  0.11880  Biso   1.000  H
  H35      1.0000 0.88560  0.14150  0.38120  Biso   1.000  H
  H36      1.0000 0.38560  0.64150  0.38120  Biso   1.000  H
  H37      1.0000 0.88560  0.85850  0.88120  Biso   1.000  H
  H38      1.0000 0.38560  0.35850  0.88120  Biso   1.000  H
  H39      1.0000 0.11440  0.85850  0.61880  Biso   1.000  H
  H40      1.0000 0.61440  0.35850  0.61880  Biso   1.000  H
  H41      1.0000 0.16760  0.09290  0.08590  Biso   1.000  H
  H42      1.0000 0.66760  0.59290  0.08590  Biso   1.000  H
  H43      1.0000 0.83240  0.09290  0.41410  Biso   1.000  H
  H44      1.0000 0.33240  0.59290  0.41410  Biso   1.000  H
  H45      1.0000 0.83240  0.90710  0.91410  Biso   1.000  H
  H46      1.0000 0.33240  0.40710  0.91410  Biso   1.000  H
  H47      1.0000 0.16760  0.90710  0.58590  Biso   1.000  H
  H48      1.0000 0.66760  0.40710  0.58590  Biso   1.000  H
  O33      1.0000 0.22390  0.96990  0.98630  Biso   1.000  O
  O34      1.0000 0.72390  0.46990  0.98630  Biso   1.000  O
  O35      1.0000 0.77610  0.96990  0.51370  Biso   1.000  O
  O36      1.0000 0.27610  0.46990  0.51370  Biso   1.000  O
  O37      1.0000 0.77610  0.03010  0.01370  Biso   1.000  O
  O38      1.0000 0.27610  0.53010  0.01370  Biso   1.000  O
  O39      1.0000 0.22390  0.03010  0.48630  Biso   1.000  O
  O40      1.0000 0.72390  0.53010  0.48630  Biso   1.000  O
  C33      1.0000 0.26760  0.99290  0.95600  Biso   1.000  C
  C34      1.0000 0.76760  0.49290  0.95600  Biso   1.000  C
  C35      1.0000 0.73240  0.99290  0.54400  Biso   1.000  C
  C36      1.0000 0.23240  0.49290  0.54400  Biso   1.000  C
  C37      1.0000 0.73240  0.00710  0.04400  Biso   1.000  C
  C38      1.0000 0.23240  0.50710  0.04400  Biso   1.000  C
  C39      1.0000 0.26760  0.00710  0.45600  Biso   1.000  C
  C40      1.0000 0.76760  0.50710  0.45600  Biso   1.000  C
  C41      1.0000 0.27550  0.12600  0.92110  Biso   1.000  C
  C42      1.0000 0.77550  0.62600  0.92110  Biso   1.000  C
  C43      1.0000 0.72450  0.12600  0.57890  Biso   1.000  C
  C44      1.0000 0.22450  0.62600  0.57890  Biso   1.000  C
  C45      1.0000 0.72450  0.87400  0.07890  Biso   1.000  C
  C46      1.0000 0.22450  0.37400  0.07890  Biso   1.000  C
  C47      1.0000 0.27550  0.87400  0.42110  Biso   1.000  C
  C48      1.0000 0.77550  0.37400  0.42110  Biso   1.000  C
  H49      1.0000 0.31240  0.13080  0.90740  Biso   1.000  H
  H50      1.0000 0.81240  0.63080  0.90740  Biso   1.000  H
  H51      1.0000 0.68760  0.13080  0.59260  Biso   1.000  H
  H52      1.0000 0.18760  0.63080  0.59260  Biso   1.000  H
  H53      1.0000 0.68760  0.86920  0.09260  Biso   1.000  H
  H54      1.0000 0.18760  0.36920  0.09260  Biso   1.000  H
  H55      1.0000 0.31240  0.86920  0.40740  Biso   1.000  H
  H56      1.0000 0.81240  0.36920  0.40740  Biso   1.000  H
  H57      1.0000 0.27050  0.19740  0.95470  Biso   1.000  H
  H58      1.0000 0.77050  0.69740  0.95470  Biso   1.000  H
  H59      1.0000 0.72950  0.19740  0.54530  Biso   1.000  H
  H60      1.0000 0.22950  0.69740  0.54530  Biso   1.000  H
  H61      1.0000 0.72950  0.80260  0.04530  Biso   1.000  H
  H62      1.0000 0.22950  0.30260  0.04530  Biso   1.000  H
  H63      1.0000 0.27050  0.80260  0.45470  Biso   1.000  H
  H64      1.0000 0.77050  0.30260  0.45470  Biso   1.000  H
  H65      1.0000 0.24880  0.13550  0.87860  Biso   1.000  H
  H66      1.0000 0.74880  0.63550  0.87860  Biso   1.000  H
  H67      1.0000 0.75120  0.13550  0.62140  Biso   1.000  H
  H68      1.0000 0.25120  0.63550  0.62140  Biso   1.000  H
  H69      1.0000 0.75120  0.86450  0.12140  Biso   1.000  H
  H70      1.0000 0.25120  0.36450  0.12140  Biso   1.000  H
  H71      1.0000 0.24880  0.86450  0.37860  Biso   1.000  H
  H72      1.0000 0.74880  0.36450  0.37860  Biso   1.000  H
  O41      1.0000 0.30200  0.89300  0.94680  Biso   1.000  O
  O42      1.0000 0.80200  0.39300  0.94680  Biso   1.000  O
  O43      1.0000 0.69800  0.89300  0.55320  Biso   1.000  O
  O44      1.0000 0.19800  0.39300  0.55320  Biso   1.000  O
  O45      1.0000 0.69800  0.10700  0.05320  Biso   1.000  O
  O46      1.0000 0.19800  0.60700  0.05320  Biso   1.000  O
  O47      1.0000 0.30200  0.10700  0.44680  Biso   1.000  O
  O48      1.0000 0.80200  0.60700  0.44680  Biso   1.000  O
  Cu9      1.0000 0.01219  0.83705  0.99343  Biso   1.000  Cu
  Cu10     1.0000 0.51219  0.33705  0.99343  Biso   1.000  Cu
  Cu11     1.0000 0.98781  0.83705  0.50657  Biso   1.000  Cu
  Cu12     1.0000 0.48781  0.33705  0.50657  Biso   1.000  Cu
  Cu13     1.0000 0.98781  0.16295  0.00657  Biso   1.000  Cu
  Cu14     1.0000 0.48781  0.66295  0.00657  Biso   1.000  Cu
  Cu15     1.0000 0.01219  0.16295  0.49343  Biso   1.000  Cu
  Cu16     1.0000 0.51219  0.66295  0.49343  Biso   1.000  Cu
  O49      1.0000 0.96650  0.79930  0.07010  Biso   1.000  O
  O50      1.0000 0.46650  0.29930  0.07010  Biso   1.000  O
  O51      1.0000 0.03350  0.79930  0.42990  Biso   1.000  O
  O52      1.0000 0.53350  0.29930  0.42990  Biso   1.000  O
  O53      1.0000 0.03350  0.20070  0.92990  Biso   1.000  O
  O54      1.0000 0.53350  0.70070  0.92990  Biso   1.000  O
  O55      1.0000 0.96650  0.20070  0.57010  Biso   1.000  O
  O56      1.0000 0.46650  0.70070  0.57010  Biso   1.000  O
  C49      1.0000 0.93140  0.69860  0.06710  Biso   1.000  C
  C50      1.0000 0.43140  0.19860  0.06710  Biso   1.000  C
  C51      1.0000 0.06860  0.69860  0.43290  Biso   1.000  C
  C52      1.0000 0.56860  0.19860  0.43290  Biso   1.000  C
  C53      1.0000 0.06860  0.30140  0.93290  Biso   1.000  C
  C54      1.0000 0.56860  0.80140  0.93290  Biso   1.000  C
  C55      1.0000 0.93140  0.30140  0.56710  Biso   1.000  C
  C56      1.0000 0.43140  0.80140  0.56710  Biso   1.000  C
  C57      1.0000 0.92300  0.60300  0.01600  Biso   1.000  C
  C58      1.0000 0.42300  0.10300  0.01600  Biso   1.000  C
  C59      1.0000 0.07700  0.60300  0.48400  Biso   1.000  C
  C60      1.0000 0.57700  0.10300  0.48400  Biso   1.000  C
  C61      1.0000 0.07700  0.39700  0.98400  Biso   1.000  C
  C62      1.0000 0.57700  0.89700  0.98400  Biso   1.000  C
  C63      1.0000 0.92300  0.39700  0.51600  Biso   1.000  C
  C64      1.0000 0.42300  0.89700  0.51600  Biso   1.000  C
  H73      1.0000 0.89930  0.53220  0.02430  Biso   1.000  H
  H74      1.0000 0.39930  0.03220  0.02430  Biso   1.000  H
  H75      1.0000 0.10070  0.53220  0.47570  Biso   1.000  H
  H76      1.0000 0.60070  0.03220  0.47570  Biso   1.000  H
  H77      1.0000 0.10070  0.46780  0.97570  Biso   1.000  H
  H78      1.0000 0.60070  0.96780  0.97570  Biso   1.000  H
  H79      1.0000 0.89930  0.46780  0.52430  Biso   1.000  H
  H80      1.0000 0.39930  0.96780  0.52430  Biso   1.000  H
  C65      1.0000 0.92300  0.76020  0.19530  Biso   1.000  C
  C66      1.0000 0.42300  0.26020  0.19530  Biso   1.000  C
  C67      1.0000 0.07700  0.76020  0.30470  Biso   1.000  C
  C68      1.0000 0.57700  0.26020  0.30470  Biso   1.000  C
  C69      1.0000 0.07700  0.23980  0.80470  Biso   1.000  C
  C70      1.0000 0.57700  0.73980  0.80470  Biso   1.000  C
  C71      1.0000 0.92300  0.23980  0.69530  Biso   1.000  C
  C72      1.0000 0.42300  0.73980  0.69530  Biso   1.000  C
  H81      1.0000 0.95790  0.79980  0.19650  Biso   1.000  H
  H82      1.0000 0.45790  0.29980  0.19650  Biso   1.000  H
  H83      1.0000 0.04210  0.79980  0.30350  Biso   1.000  H
  H84      1.0000 0.54210  0.29980  0.30350  Biso   1.000  H
  H85      1.0000 0.04210  0.20020  0.80350  Biso   1.000  H
  H86      1.0000 0.54210  0.70020  0.80350  Biso   1.000  H
  H87      1.0000 0.95790  0.20020  0.69650  Biso   1.000  H
  H88      1.0000 0.45790  0.70020  0.69650  Biso   1.000  H
  C73      1.0000 0.89650  0.76560  0.26010  Biso   1.000  C
  C74      1.0000 0.39650  0.26560  0.26010  Biso   1.000  C
  C75      1.0000 0.10350  0.76560  0.23990  Biso   1.000  C
  C76      1.0000 0.60350  0.26560  0.23990  Biso   1.000  C
  C77      1.0000 0.10350  0.23440  0.73990  Biso   1.000  C
  C78      1.0000 0.60350  0.73440  0.73990  Biso   1.000  C
  C79      1.0000 0.89650  0.23440  0.76010  Biso   1.000  C
  C80      1.0000 0.39650  0.73440  0.76010  Biso   1.000  C
  H89      1.0000 0.91410  0.80630  0.30200  Biso   1.000  H
  H90      1.0000 0.41410  0.30630  0.30200  Biso   1.000  H
  H91      1.0000 0.08590  0.80630  0.19800  Biso   1.000  H
  H92      1.0000 0.58590  0.30630  0.19800  Biso   1.000  H
  H93      1.0000 0.08590  0.19370  0.69800  Biso   1.000  H
  H94      1.0000 0.58590  0.69370  0.69800  Biso   1.000  H
  H95      1.0000 0.91410  0.19370  0.80200  Biso   1.000  H
  H96      1.0000 0.41410  0.69370  0.80200  Biso   1.000  H
  C81      1.0000 0.84770  0.64270  0.13400  Biso   1.000  C
  C82      1.0000 0.34770  0.14270  0.13400  Biso   1.000  C
  C83      1.0000 0.15230  0.64270  0.36600  Biso   1.000  C
  C84      1.0000 0.65230  0.14270  0.36600  Biso   1.000  C
  C85      1.0000 0.15230  0.35730  0.86600  Biso   1.000  C
  C86      1.0000 0.65230  0.85730  0.86600  Biso   1.000  C
  C87      1.0000 0.84770  0.35730  0.63400  Biso   1.000  C
  C88      1.0000 0.34770  0.85730  0.63400  Biso   1.000  C
  H97      1.0000 0.83080  0.59740  0.09320  Biso   1.000  H
  H98      1.0000 0.33080  0.09740  0.09320  Biso   1.000  H
  H99      1.0000 0.16920  0.59740  0.40680  Biso   1.000  H
  H100     1.0000 0.66920  0.09740  0.40680  Biso   1.000  H
  H101     1.0000 0.16920  0.40260  0.90680  Biso   1.000  H
  H102     1.0000 0.66920  0.90260  0.90680  Biso   1.000  H
  H103     1.0000 0.83080  0.40260  0.59320  Biso   1.000  H
  H104     1.0000 0.33080  0.90260  0.59320  Biso   1.000  H
  C89      1.0000 0.82070  0.65250  0.19680  Biso   1.000  C
  C90      1.0000 0.32070  0.15250  0.19680  Biso   1.000  C
  C91      1.0000 0.17930  0.65250  0.30320  Biso   1.000  C
  C92      1.0000 0.67930  0.15250  0.30320  Biso   1.000  C
  C93      1.0000 0.17930  0.34750  0.80320  Biso   1.000  C
  C94      1.0000 0.67930  0.84750  0.80320  Biso   1.000  C
  C95      1.0000 0.82070  0.34750  0.69680  Biso   1.000  C
  C96      1.0000 0.32070  0.84750  0.69680  Biso   1.000  C
  H105     1.0000 0.78480  0.61810  0.19490  Biso   1.000  H
  H106     1.0000 0.28480  0.11810  0.19490  Biso   1.000  H
  H107     1.0000 0.21520  0.61810  0.30510  Biso   1.000  H
  H108     1.0000 0.71520  0.11810  0.30510  Biso   1.000  H
  H109     1.0000 0.21520  0.38190  0.80510  Biso   1.000  H
  H110     1.0000 0.71520  0.88190  0.80510  Biso   1.000  H
  H111     1.0000 0.78480  0.38190  0.69490  Biso   1.000  H
  H112     1.0000 0.28480  0.88190  0.69490  Biso   1.000  H
  C97      1.0000 0.84370  0.70840  0.25910  Biso   1.000  C
  C98      1.0000 0.34370  0.20840  0.25910  Biso   1.000  C
  C99      1.0000 0.15630  0.70840  0.24090  Biso   1.000  C
  C100     1.0000 0.65630  0.20840  0.24090  Biso   1.000  C
  C101     1.0000 0.15630  0.29160  0.74090  Biso   1.000  C
  C102     1.0000 0.65630  0.79160  0.74090  Biso   1.000  C
  C103     1.0000 0.84370  0.29160  0.75910  Biso   1.000  C
  C104     1.0000 0.34370  0.79160  0.75910  Biso   1.000  C
  H113     1.0000 0.82520  0.70920  0.30020  Biso   1.000  H
  H114     1.0000 0.32520  0.20920  0.30020  Biso   1.000  H
  H115     1.0000 0.17480  0.70920  0.19980  Biso   1.000  H
  H116     1.0000 0.67480  0.20920  0.19980  Biso   1.000  H
  H117     1.0000 0.17480  0.29080  0.69980  Biso   1.000  H
  H118     1.0000 0.67480  0.79080  0.69980  Biso   1.000  H
  H119     1.0000 0.82520  0.29080  0.80020  Biso   1.000  H
  H120     1.0000 0.32520  0.79080  0.80020  Biso   1.000  H
  C105     1.0000 0.90100  0.70230  0.13330  Biso   1.000  C
  C106     1.0000 0.40100  0.20230  0.13330  Biso   1.000  C
  C107     1.0000 0.09900  0.70230  0.36670  Biso   1.000  C
  C108     1.0000 0.59900  0.20230  0.36670  Biso   1.000  C
  C109     1.0000 0.09900  0.29770  0.86670  Biso   1.000  C
  C110     1.0000 0.59900  0.79770  0.86670  Biso   1.000  C
  C111     1.0000 0.90100  0.29770  0.63330  Biso   1.000  C
  C112     1.0000 0.40100  0.79770  0.63330  Biso   1.000  C
  C113     1.0000 0.94720  0.60020  0.95010  Biso   1.000  C
  C114     1.0000 0.44720  0.10020  0.95010  Biso   1.000  C
  C115     1.0000 0.05280  0.60020  0.54990  Biso   1.000  C
  C116     1.0000 0.55280  0.10020  0.54990  Biso   1.000  C
  C117     1.0000 0.05280  0.39980  0.04990  Biso   1.000  C
  C118     1.0000 0.55280  0.89980  0.04990  Biso   1.000  C
  C119     1.0000 0.94720  0.39980  0.45010  Biso   1.000  C
  C120     1.0000 0.44720  0.89980  0.45010  Biso   1.000  C
  C121     1.0000 0.93040  0.47940  0.89890  Biso   1.000  C
  C122     1.0000 0.43040  0.97940  0.89890  Biso   1.000  C
  C123     1.0000 0.06960  0.47940  0.60110  Biso   1.000  C
  C124     1.0000 0.56960  0.97940  0.60110  Biso   1.000  C
  C125     1.0000 0.06960  0.52060  0.10110  Biso   1.000  C
  C126     1.0000 0.56960  0.02060  0.10110  Biso   1.000  C
  C127     1.0000 0.93040  0.52060  0.39890  Biso   1.000  C
  C128     1.0000 0.43040  0.02060  0.39890  Biso   1.000  C
  H121     1.0000 0.90460  0.50960  0.85860  Biso   1.000  H
  H122     1.0000 0.40460  0.00960  0.85860  Biso   1.000  H
  H123     1.0000 0.09540  0.50960  0.64140  Biso   1.000  H
  H124     1.0000 0.59540  0.00960  0.64140  Biso   1.000  H
  H125     1.0000 0.09540  0.49040  0.14140  Biso   1.000  H
  H126     1.0000 0.59540  0.99040  0.14140  Biso   1.000  H
  H127     1.0000 0.90460  0.49040  0.35860  Biso   1.000  H
  H128     1.0000 0.40460  0.99040  0.35860  Biso   1.000  H
  H129     1.0000 0.91320  0.41060  0.92510  Biso   1.000  H
  H130     1.0000 0.41320  0.91060  0.92510  Biso   1.000  H
  H131     1.0000 0.08680  0.41060  0.57490  Biso   1.000  H
  H132     1.0000 0.58680  0.91060  0.57490  Biso   1.000  H
  H133     1.0000 0.08680  0.58940  0.07490  Biso   1.000  H
  H134     1.0000 0.58680  0.08940  0.07490  Biso   1.000  H
  H135     1.0000 0.91320  0.58940  0.42510  Biso   1.000  H
  H136     1.0000 0.41320  0.08940  0.42510  Biso   1.000  H
  H137     1.0000 0.96290  0.44300  0.88130  Biso   1.000  H
  H138     1.0000 0.46290  0.94300  0.88130  Biso   1.000  H
  H139     1.0000 0.03710  0.44300  0.61870  Biso   1.000  H
  H140     1.0000 0.53710  0.94300  0.61870  Biso   1.000  H
  H141     1.0000 0.03710  0.55700  0.11870  Biso   1.000  H
  H142     1.0000 0.53710  0.05700  0.11870  Biso   1.000  H
  H143     1.0000 0.96290  0.55700  0.38130  Biso   1.000  H
  H144     1.0000 0.46290  0.05700  0.38130  Biso   1.000  H
  N1       1.0000 0.98300  0.68750  0.93280  Biso   1.000  N
  N2       1.0000 0.48300  0.18750  0.93280  Biso   1.000  N
  N3       1.0000 0.01700  0.68750  0.56720  Biso   1.000  N
  N4       1.0000 0.51700  0.18750  0.56720  Biso   1.000  N
  N5       1.0000 0.01700  0.31250  0.06720  Biso   1.000  N
  N6       1.0000 0.51700  0.81250  0.06720  Biso   1.000  N
  N7       1.0000 0.98300  0.31250  0.43280  Biso   1.000  N
  N8       1.0000 0.48300  0.81250  0.43280  Biso   1.000  N
  C129     1.0000 0.00550  0.68160  0.86250  Biso   1.000  C
  C130     1.0000 0.50550  0.18160  0.86250  Biso   1.000  C
  C131     1.0000 0.99450  0.68160  0.63750  Biso   1.000  C
  C132     1.0000 0.49450  0.18160  0.63750  Biso   1.000  C
  C133     1.0000 0.99450  0.31840  0.13750  Biso   1.000  C
  C134     1.0000 0.49450  0.81840  0.13750  Biso   1.000  C
  C135     1.0000 0.00550  0.31840  0.36250  Biso   1.000  C
  C136     1.0000 0.50550  0.81840  0.36250  Biso   1.000  C
  H145     1.0000 0.97740  0.64820  0.82480  Biso   1.000  H
  H146     1.0000 0.47740  0.14820  0.82480  Biso   1.000  H
  H147     1.0000 0.02260  0.64820  0.67520  Biso   1.000  H
  H148     1.0000 0.52260  0.14820  0.67520  Biso   1.000  H
  H149     1.0000 0.02260  0.35180  0.17520  Biso   1.000  H
  H150     1.0000 0.52260  0.85180  0.17520  Biso   1.000  H
  H151     1.0000 0.97740  0.35180  0.32480  Biso   1.000  H
  H152     1.0000 0.47740  0.85180  0.32480  Biso   1.000  H
  H153     1.0000 0.03740  0.62160  0.86570  Biso   1.000  H
  H154     1.0000 0.53740  0.12160  0.86570  Biso   1.000  H
  H155     1.0000 0.96260  0.62160  0.63430  Biso   1.000  H
  H156     1.0000 0.46260  0.12160  0.63430  Biso   1.000  H
  H157     1.0000 0.96260  0.37840  0.13430  Biso   1.000  H
  H158     1.0000 0.46260  0.87840  0.13430  Biso   1.000  H
  H159     1.0000 0.03740  0.37840  0.36570  Biso   1.000  H
  H160     1.0000 0.53740  0.87840  0.36570  Biso   1.000  H
  C137     1.0000 0.02280  0.82730  0.84470  Biso   1.000  C
  C138     1.0000 0.52280  0.32730  0.84470  Biso   1.000  C
  C139     1.0000 0.97720  0.82730  0.65530  Biso   1.000  C
  C140     1.0000 0.47720  0.32730  0.65530  Biso   1.000  C
  C141     1.0000 0.97720  0.17270  0.15530  Biso   1.000  C
  C142     1.0000 0.47720  0.67270  0.15530  Biso   1.000  C
  C143     1.0000 0.02280  0.17270  0.34470  Biso   1.000  C
  C144     1.0000 0.52280  0.67270  0.34470  Biso   1.000  C
  H161     1.0000 0.04550  0.82580  0.80510  Biso   1.000  H
  H162     1.0000 0.54550  0.32580  0.80510  Biso   1.000  H
  H163     1.0000 0.95450  0.82580  0.69490  Biso   1.000  H
  H164     1.0000 0.45450  0.32580  0.69490  Biso   1.000  H
  H165     1.0000 0.95450  0.17420  0.19490  Biso   1.000  H
  H166     1.0000 0.45450  0.67420  0.19490  Biso   1.000  H
  H167     1.0000 0.04550  0.17420  0.30510  Biso   1.000  H
  H168     1.0000 0.54550  0.67420  0.30510  Biso   1.000  H
  H169     1.0000 0.98990  0.88150  0.82980  Biso   1.000  H
  H170     1.0000 0.48990  0.38150  0.82980  Biso   1.000  H
  H171     1.0000 0.01010  0.88150  0.67020  Biso   1.000  H
  H172     1.0000 0.51010  0.38150  0.67020  Biso   1.000  H
  H173     1.0000 0.01010  0.11850  0.17020  Biso   1.000  H
  H174     1.0000 0.51010  0.61850  0.17020  Biso   1.000  H
  H175     1.0000 0.98990  0.11850  0.32980  Biso   1.000  H
  H176     1.0000 0.48990  0.61850  0.32980  Biso   1.000  H
  N9       1.0000 0.05390  0.88530  0.90860  Biso   1.000  N
  N10      1.0000 0.55390  0.38530  0.90860  Biso   1.000  N
  N11      1.0000 0.94610  0.88530  0.59140  Biso   1.000  N
  N12      1.0000 0.44610  0.38530  0.59140  Biso   1.000  N
  N13      1.0000 0.94610  0.11470  0.09140  Biso   1.000  N
  N14      1.0000 0.44610  0.61470  0.09140  Biso   1.000  N
  N15      1.0000 0.05390  0.11470  0.40860  Biso   1.000  N
  N16      1.0000 0.55390  0.61470  0.40860  Biso   1.000  N
  H177     1.0000 0.05610  0.97580  0.90390  Biso   1.000  H
  H178     1.0000 0.55610  0.47580  0.90390  Biso   1.000  H
  H179     1.0000 0.94390  0.97580  0.59610  Biso   1.000  H
  H180     1.0000 0.44390  0.47580  0.59610  Biso   1.000  H
  H181     1.0000 0.94390  0.02420  0.09610  Biso   1.000  H
  H182     1.0000 0.44390  0.52420  0.09610  Biso   1.000  H
  H183     1.0000 0.05610  0.02420  0.40390  Biso   1.000  H
  H184     1.0000 0.55610  0.52420  0.40390  Biso   1.000  H
  H185     1.0000 0.08860  0.85110  0.91530  Biso   1.000  H
  H186     1.0000 0.58860  0.35110  0.91530  Biso   1.000  H
  H187     1.0000 0.91140  0.85110  0.58470  Biso   1.000  H
  H188     1.0000 0.41140  0.35110  0.58470  Biso   1.000  H
  H189     1.0000 0.91140  0.14890  0.08470  Biso   1.000  H
  H190     1.0000 0.41140  0.64890  0.08470  Biso   1.000  H
  H191     1.0000 0.08860  0.14890  0.41530  Biso   1.000  H
  H192     1.0000 0.58860  0.64890  0.41530  Biso   1.000  H
