data_image0
_cell_length_a       8.142
_cell_length_b       9.6925
_cell_length_c       13.0849
_cell_angle_alpha    69.524
_cell_angle_beta     88.049
_cell_angle_gamma    89.609

_symmetry_space_group_name_H-M    "P 1"
_symmetry_int_tables_number       1

loop_
  _symmetry_equiv_pos_as_xyz
  'x, y, z'

loop_
  _atom_site_label
  _atom_site_occupancy
  _atom_site_fract_x
  _atom_site_fract_y
  _atom_site_fract_z
  _atom_site_thermal_displace_type
  _atom_site_B_iso_or_equiv
  _atom_site_type_symbol
  C1       1.0000 0.38900  0.03870  0.60600  Biso   1.000  C
  C2       1.0000 0.61100  0.96130  0.39400  Biso   1.000  C
  C3       1.0000 0.53360  0.02380  0.66630  Biso   1.000  C
  C4       1.0000 0.46640  0.97620  0.33370  Biso   1.000  C
  H1       1.0000 0.55160  0.93190  0.71890  Biso   1.000  H
  H2       1.0000 0.44840  0.06810  0.28110  Biso   1.000  H
  C5       1.0000 0.65050  0.13060  0.65550  Biso   1.000  C
  C6       1.0000 0.34950  0.86940  0.34450  Biso   1.000  C
  C7       1.0000 0.64320  0.54770  0.30560  Biso   1.000  C
  C8       1.0000 0.35680  0.45230  0.69440  Biso   1.000  C
  C9       1.0000 0.14710  0.34460  0.44330  Biso   1.000  C
  C10      1.0000 0.85290  0.65540  0.55670  Biso   1.000  C
  H3       1.0000 0.12810  0.36450  0.51120  Biso   1.000  H
  H4       1.0000 0.87190  0.63550  0.48880  Biso   1.000  H
  C11      1.0000 0.19550  0.18290  0.47580  Biso   1.000  C
  C12      1.0000 0.80450  0.81710  0.52420  Biso   1.000  C
  H5       1.0000 0.11080  0.12060  0.52340  Biso   1.000  H
  H6       1.0000 0.88920  0.87940  0.47660  Biso   1.000  H
  H7       1.0000 0.20910  0.15560  0.41140  Biso   1.000  H
  H8       1.0000 0.79090  0.84440  0.58860  Biso   1.000  H
  C13      1.0000 0.37920  0.75100  0.97440  Biso   1.000  C
  C14      1.0000 0.62080  0.24900  0.02560  Biso   1.000  C
  C15      1.0000 0.30790  0.90160  0.95580  Biso   1.000  C
  C16      1.0000 0.69210  0.09840  0.04420  Biso   1.000  C
  H9       1.0000 0.38140  0.95760  0.98220  Biso   1.000  H
  H10      1.0000 0.61860  0.04240  0.01780  Biso   1.000  H
  H11      1.0000 0.29330  0.95140  0.87920  Biso   1.000  H
  H12      1.0000 0.70670  0.04860  0.12080  Biso   1.000  H
  H13      1.0000 0.20360  0.89150  0.99430  Biso   1.000  H
  H14      1.0000 0.79640  0.10850  0.00570  Biso   1.000  H
  C17      1.0000 0.77500  0.62220  0.92370  Biso   1.000  C
  C18      1.0000 0.22500  0.37780  0.07630  Biso   1.000  C
  C19      1.0000 0.94270  0.68910  0.88560  Biso   1.000  C
  C20      1.0000 0.05730  0.31090  0.11440  Biso   1.000  C
  H15      1.0000 0.93900  0.75420  0.81110  Biso   1.000  H
  H16      1.0000 0.06100  0.24580  0.18890  Biso   1.000  H
  H17      1.0000 0.02060  0.61220  0.89110  Biso   1.000  H
  H18      1.0000 0.97940  0.38780  0.10890  Biso   1.000  H
  H19      1.0000 0.97540  0.74340  0.93050  Biso   1.000  H
  H20      1.0000 0.02460  0.25660  0.06950  Biso   1.000  H
  C21      1.0000 0.28020  0.90540  0.63080  Biso   1.000  C
  C22      1.0000 0.71980  0.09460  0.36920  Biso   1.000  C
  H21      1.0000 0.17920  0.92060  0.66530  Biso   1.000  H
  H22      1.0000 0.82080  0.07940  0.33470  Biso   1.000  H
  H23      1.0000 0.33500  0.82060  0.67880  Biso   1.000  H
  H24      1.0000 0.66500  0.17940  0.32120  Biso   1.000  H
  H25      1.0000 0.25710  0.89000  0.56410  Biso   1.000  H
  H26      1.0000 0.74290  0.11000  0.43590  Biso   1.000  H
  C23      1.0000 0.79260  0.10000  0.73080  Biso   1.000  C
  C24      1.0000 0.20740  0.90000  0.26920  Biso   1.000  C
  H27      1.0000 0.78820  0.16570  0.77120  Biso   1.000  H
  H28      1.0000 0.21180  0.83430  0.22880  Biso   1.000  H
  H29      1.0000 0.89400  0.11470  0.68860  Biso   1.000  H
  H30      1.0000 0.10600  0.88530  0.31140  Biso   1.000  H
  H31      1.0000 0.78610  0.00000  0.78040  Biso   1.000  H
  H32      1.0000 0.21390  0.00000  0.21960  Biso   1.000  H
  C25      1.0000 0.71830  0.69510  0.24050  Biso   1.000  C
  C26      1.0000 0.28170  0.30490  0.75950  Biso   1.000  C
  H33      1.0000 0.79480  0.72260  0.28430  Biso   1.000  H
  H34      1.0000 0.20520  0.27740  0.71570  Biso   1.000  H
  H35      1.0000 0.63330  0.76770  0.21900  Biso   1.000  H
  H36      1.0000 0.36670  0.23230  0.78100  Biso   1.000  H
  H37      1.0000 0.77470  0.68890  0.17670  Biso   1.000  H
  H38      1.0000 0.22530  0.31110  0.82330  Biso   1.000  H
  C27      1.0000 0.99640  0.38600  0.38150  Biso   1.000  C
  C28      1.0000 0.00360  0.61400  0.61850  Biso   1.000  C
  H39      1.0000 0.90440  0.33410  0.42590  Biso   1.000  H
  H40      1.0000 0.09560  0.66590  0.57410  Biso   1.000  H
  H41      1.0000 0.00660  0.36080  0.31690  Biso   1.000  H
  H42      1.0000 0.99340  0.63920  0.68310  Biso   1.000  H
  H43      1.0000 0.97950  0.49020  0.36140  Biso   1.000  H
  H44      1.0000 0.02050  0.50980  0.63860  Biso   1.000  H
  N1       1.0000 0.34890  0.16480  0.53200  Biso   1.000  N
  N2       1.0000 0.65110  0.83520  0.46800  Biso   1.000  N
  N3       1.0000 0.29310  0.43050  0.38800  Biso   1.000  N
  N4       1.0000 0.70690  0.56950  0.61200  Biso   1.000  N
  H45      1.0000 0.28130  0.52570  0.38120  Biso   1.000  H
  H46      1.0000 0.71870  0.47430  0.61880  Biso   1.000  H
  H47      1.0000 0.30890  0.42530  0.32100  Biso   1.000  H
  H48      1.0000 0.69110  0.57470  0.67900  Biso   1.000  H
  O1       1.0000 0.65320  0.26270  0.58304  Biso   1.000  O
  O2       1.0000 0.34680  0.73730  0.41696  Biso   1.000  O
  O3       1.0000 0.62090  0.51770  0.40851  Biso   1.000  O
  O4       1.0000 0.37910  0.48230  0.59149  Biso   1.000  O
  O5       1.0000 0.60450  0.45940  0.26073  Biso   1.000  O
  O6       1.0000 0.39550  0.54060  0.73927  Biso   1.000  O
  O7       1.0000 0.43460  0.68140  0.06755  Biso   1.000  O
  O8       1.0000 0.56540  0.31860  0.93245  Biso   1.000  O
  O9       1.0000 0.37630  0.70400  0.89683  Biso   1.000  O
  O10      1.0000 0.62370  0.29600  0.10317  Biso   1.000  O
  O11      1.0000 0.74120  0.58290  0.02418  Biso   1.000  O
  O12      1.0000 0.25880  0.41710  0.97582  Biso   1.000  O
  O13      1.0000 0.68140  0.60630  0.85387  Biso   1.000  O
  O14      1.0000 0.31860  0.39370  0.14613  Biso   1.000  O
  Cu1      1.0000 0.48274  0.34122  0.48172  Biso   1.000  Cu
  Cu2      1.0000 0.51726  0.65878  0.51828  Biso   1.000  Cu
  Cu3      1.0000 0.53729  0.48705  0.09935  Biso   1.000  Cu
  Cu4      1.0000 0.46271  0.51295  0.90065  Biso   1.000  Cu
