data_image0
_cell_length_a       6.685
_cell_length_b       14.344
_cell_length_c       18.95
_cell_angle_alpha    90
_cell_angle_beta     90
_cell_angle_gamma    90

_symmetry_space_group_name_H-M    "P 1"
_symmetry_int_tables_number       1

loop_
  _symmetry_equiv_pos_as_xyz
  'x, y, z'

loop_
  _atom_site_label
  _atom_site_occupancy
  _atom_site_fract_x
  _atom_site_fract_y
  _atom_site_fract_z
  _atom_site_thermal_displace_type
  _atom_site_B_iso_or_equiv
  _atom_site_type_symbol
  Cu1      1.0000 0.00260  0.37112  0.64177  Biso   1.000  Cu
  Cu2      1.0000 0.49740  0.62888  0.14177  Biso   1.000  Cu
  Cu3      1.0000 0.50260  0.12888  0.35823  Biso   1.000  Cu
  Cu4      1.0000 0.99740  0.87112  0.85823  Biso   1.000  Cu
  N1       1.0000 0.97970  0.36790  0.53666  Biso   1.000  N
  N2       1.0000 0.52030  0.63210  0.03666  Biso   1.000  N
  N3       1.0000 0.47970  0.13210  0.46334  Biso   1.000  N
  N4       1.0000 0.02030  0.86790  0.96334  Biso   1.000  N
  C1       1.0000 0.99800  0.20520  0.55893  Biso   1.000  C
  C2       1.0000 0.50200  0.79480  0.05893  Biso   1.000  C
  C3       1.0000 0.49800  0.29480  0.44107  Biso   1.000  C
  C4       1.0000 0.00200  0.70520  0.94107  Biso   1.000  C
  C5       1.0000 0.99390  0.28250  0.50655  Biso   1.000  C
  C6       1.0000 0.50610  0.71750  0.00655  Biso   1.000  C
  C7       1.0000 0.49390  0.21750  0.49345  Biso   1.000  C
  C8       1.0000 0.00610  0.78250  0.99345  Biso   1.000  C
  C9       1.0000 0.99990  0.27010  0.43460  Biso   1.000  C
  C10      1.0000 0.50010  0.72990  0.93460  Biso   1.000  C
  C11      1.0000 0.49990  0.22990  0.56540  Biso   1.000  C
  C12      1.0000 0.00010  0.77010  0.06540  Biso   1.000  C
  H1       1.0000 0.00750  0.20930  0.41490  Biso   1.000  H
  H2       1.0000 0.49250  0.79070  0.91490  Biso   1.000  H
  H3       1.0000 0.50750  0.29070  0.58510  Biso   1.000  H
  H4       1.0000 0.99250  0.70930  0.08510  Biso   1.000  H
  O1       1.0000 0.90600  0.49983  0.64729  Biso   1.000  O
  O2       1.0000 0.59400  0.50017  0.14729  Biso   1.000  O
  O3       1.0000 0.40600  0.00017  0.35271  Biso   1.000  O
  O4       1.0000 0.09400  0.99983  0.85271  Biso   1.000  O
  C13      1.0000 0.02230  0.16850  0.67720  Biso   1.000  C
  C14      1.0000 0.47770  0.83150  0.17720  Biso   1.000  C
  C15      1.0000 0.52230  0.33150  0.32280  Biso   1.000  C
  C16      1.0000 0.97770  0.66850  0.82280  Biso   1.000  C
  H5       1.0000 0.03860  0.18810  0.72470  Biso   1.000  H
  H6       1.0000 0.46140  0.81190  0.22470  Biso   1.000  H
  H7       1.0000 0.53860  0.31190  0.27530  Biso   1.000  H
  H8       1.0000 0.96140  0.68810  0.77530  Biso   1.000  H
  N5       1.0000 0.01770  0.23290  0.62648  Biso   1.000  N
  N6       1.0000 0.48230  0.76710  0.12648  Biso   1.000  N
  N7       1.0000 0.51770  0.26710  0.37352  Biso   1.000  N
  N8       1.0000 0.98230  0.73290  0.87352  Biso   1.000  N
  C17      1.0000 0.00440  0.07460  0.66320  Biso   1.000  C
  C18      1.0000 0.49560  0.92540  0.16320  Biso   1.000  C
  C19      1.0000 0.50440  0.42540  0.33680  Biso   1.000  C
  C20      1.0000 0.99560  0.57460  0.83680  Biso   1.000  C
  H9       1.0000 0.00410  0.03030  0.70050  Biso   1.000  H
  H10      1.0000 0.49590  0.96970  0.20050  Biso   1.000  H
  H11      1.0000 0.50410  0.46970  0.29950  Biso   1.000  H
  H12      1.0000 0.99590  0.53030  0.79950  Biso   1.000  H
  C21      1.0000 0.39340  0.46110  0.70460  Biso   1.000  C
  C22      1.0000 0.10660  0.53890  0.20460  Biso   1.000  C
  C23      1.0000 0.89340  0.03890  0.29540  Biso   1.000  C
  C24      1.0000 0.60660  0.96110  0.79540  Biso   1.000  C
  H13      1.0000 0.36090  0.52810  0.71370  Biso   1.000  H
  H14      1.0000 0.13910  0.47190  0.21370  Biso   1.000  H
  H15      1.0000 0.86090  0.97190  0.28630  Biso   1.000  H
  H16      1.0000 0.63910  0.02810  0.78630  Biso   1.000  H
  O5       1.0000 0.68080  0.35870  0.69179  Biso   1.000  O
  O6       1.0000 0.81920  0.64130  0.19179  Biso   1.000  O
  O7       1.0000 0.18080  0.14130  0.30821  Biso   1.000  O
  O8       1.0000 0.31920  0.85870  0.80821  Biso   1.000  O
  C25      1.0000 0.61840  0.44860  0.71440  Biso   1.000  C
  C26      1.0000 0.88160  0.55140  0.21440  Biso   1.000  C
  C27      1.0000 0.11840  0.05140  0.28560  Biso   1.000  C
  C28      1.0000 0.38160  0.94860  0.78560  Biso   1.000  C
  H17      1.0000 0.64750  0.45350  0.76610  Biso   1.000  H
  H18      1.0000 0.85250  0.54650  0.26610  Biso   1.000  H
  H19      1.0000 0.14750  0.04650  0.23390  Biso   1.000  H
  H20      1.0000 0.35250  0.95350  0.73390  Biso   1.000  H
  C29      1.0000 0.98220  0.43530  0.42190  Biso   1.000  C
  C30      1.0000 0.51780  0.56470  0.92190  Biso   1.000  C
  C31      1.0000 0.48220  0.06470  0.57810  Biso   1.000  C
  C32      1.0000 0.01780  0.93530  0.07810  Biso   1.000  C
  H21      1.0000 0.98170  0.48970  0.39330  Biso   1.000  H
  H22      1.0000 0.51830  0.51030  0.89330  Biso   1.000  H
  H23      1.0000 0.48170  0.01030  0.60670  Biso   1.000  H
  H24      1.0000 0.01830  0.98970  0.10670  Biso   1.000  H
  C33      1.0000 0.99450  0.34840  0.39150  Biso   1.000  C
  C34      1.0000 0.50550  0.65160  0.89150  Biso   1.000  C
  C35      1.0000 0.49450  0.15160  0.60850  Biso   1.000  C
  C36      1.0000 0.00550  0.84840  0.10850  Biso   1.000  C
  H25      1.0000 0.99930  0.34200  0.34160  Biso   1.000  H
  H26      1.0000 0.50070  0.65800  0.84160  Biso   1.000  H
  H27      1.0000 0.49930  0.15800  0.65840  Biso   1.000  H
  H28      1.0000 0.00070  0.84200  0.15840  Biso   1.000  H
  C37      1.0000 0.97070  0.44280  0.49420  Biso   1.000  C
  C38      1.0000 0.52930  0.55720  0.99420  Biso   1.000  C
  C39      1.0000 0.47070  0.05720  0.50580  Biso   1.000  C
  C40      1.0000 0.02930  0.94280  0.00580  Biso   1.000  C
  H29      1.0000 0.95600  0.50280  0.51470  Biso   1.000  H
  H30      1.0000 0.54400  0.49720  0.01470  Biso   1.000  H
  H31      1.0000 0.45600  0.99720  0.48530  Biso   1.000  H
  H32      1.0000 0.04400  0.00280  0.98530  Biso   1.000  H
  C41      1.0000 0.98720  0.04660  0.59440  Biso   1.000  C
  C42      1.0000 0.51280  0.95340  0.09440  Biso   1.000  C
  C43      1.0000 0.48720  0.45340  0.40560  Biso   1.000  C
  C44      1.0000 0.01280  0.54660  0.90560  Biso   1.000  C
  H33      1.0000 0.97680  0.98210  0.58350  Biso   1.000  H
  H34      1.0000 0.52320  0.01790  0.08350  Biso   1.000  H
  H35      1.0000 0.47680  0.51790  0.41650  Biso   1.000  H
  H36      1.0000 0.02320  0.48210  0.91650  Biso   1.000  H
  C45      1.0000 0.98480  0.11220  0.54070  Biso   1.000  C
  C46      1.0000 0.51520  0.88780  0.04070  Biso   1.000  C
  C47      1.0000 0.48480  0.38780  0.45930  Biso   1.000  C
  C48      1.0000 0.01520  0.61220  0.95930  Biso   1.000  C
  H37      1.0000 0.97430  0.09370  0.49270  Biso   1.000  H
  H38      1.0000 0.52570  0.90630  0.99270  Biso   1.000  H
  H39      1.0000 0.47430  0.40630  0.50730  Biso   1.000  H
  H40      1.0000 0.02570  0.59370  0.00730  Biso   1.000  H
  O9       1.0000 0.11390  0.36350  0.73777  Biso   1.000  O
  O10      1.0000 0.38610  0.63650  0.23777  Biso   1.000  O
  O11      1.0000 0.61390  0.13650  0.26223  Biso   1.000  O
  O12      1.0000 0.88610  0.86350  0.76223  Biso   1.000  O
  O13      1.0000 0.68330  0.60550  0.67771  Biso   1.000  O
  O14      1.0000 0.81670  0.39450  0.17771  Biso   1.000  O
  O15      1.0000 0.18330  0.89450  0.32229  Biso   1.000  O
  O16      1.0000 0.31670  0.10550  0.82229  Biso   1.000  O
  C49      1.0000 0.27630  0.40240  0.75750  Biso   1.000  C
  C50      1.0000 0.22370  0.59760  0.25750  Biso   1.000  C
  C51      1.0000 0.77630  0.09760  0.24250  Biso   1.000  C
  C52      1.0000 0.72370  0.90240  0.74250  Biso   1.000  C
  O17      1.0000 0.33340  0.43992  0.63424  Biso   1.000  O
  O18      1.0000 0.16660  0.56008  0.13424  Biso   1.000  O
  O19      1.0000 0.83340  0.06008  0.36576  Biso   1.000  O
  O20      1.0000 0.66660  0.93992  0.86576  Biso   1.000  O
  H41      1.0000 0.33590  0.48870  0.60980  Biso   1.000  H
  H42      1.0000 0.16410  0.51130  0.10980  Biso   1.000  H
  H43      1.0000 0.83590  0.01130  0.39020  Biso   1.000  H
  H44      1.0000 0.66410  0.98870  0.89020  Biso   1.000  H
  O21      1.0000 0.33990  0.39730  0.81830  Biso   1.000  O
  O22      1.0000 0.16010  0.60270  0.31830  Biso   1.000  O
  O23      1.0000 0.83990  0.10270  0.18170  Biso   1.000  O
  O24      1.0000 0.66010  0.89730  0.68170  Biso   1.000  O
  C53      1.0000 0.74320  0.52390  0.67640  Biso   1.000  C
  C54      1.0000 0.75680  0.47610  0.17640  Biso   1.000  C
  C55      1.0000 0.24320  0.97610  0.32360  Biso   1.000  C
  C56      1.0000 0.25680  0.02390  0.82360  Biso   1.000  C
  O25      1.0000 0.97240  0.74200  0.64035  Biso   1.000  O
  O26      1.0000 0.52760  0.25800  0.14035  Biso   1.000  O
  O27      1.0000 0.47240  0.75800  0.35965  Biso   1.000  O
  O28      1.0000 0.02760  0.24200  0.85965  Biso   1.000  O
  O29      1.0000 0.65250  0.21690  0.78690  Biso   1.000  O
  O30      1.0000 0.84750  0.78310  0.28690  Biso   1.000  O
  O31      1.0000 0.15250  0.28310  0.21310  Biso   1.000  O
  O32      1.0000 0.34750  0.71690  0.71310  Biso   1.000  O
  O33      1.0000 0.15770  0.82840  0.52493  Biso   1.000  O
  O34      1.0000 0.34230  0.17160  0.02493  Biso   1.000  O
  O35      1.0000 0.65770  0.67160  0.47507  Biso   1.000  O
  O36      1.0000 0.84230  0.32840  0.97507  Biso   1.000  O
  O37      1.0000 0.42820  0.33500  0.95141  Biso   1.000  O
  O38      1.0000 0.07180  0.66500  0.45141  Biso   1.000  O
  O39      1.0000 0.92820  0.16500  0.04859  Biso   1.000  O
  O40      1.0000 0.57180  0.83500  0.54859  Biso   1.000  O
  O41      1.0000 0.34140  0.59420  0.55610  Biso   1.000  O
  O42      1.0000 0.15860  0.40580  0.05610  Biso   1.000  O
  O43      1.0000 0.84140  0.90580  0.44390  Biso   1.000  O
  O44      1.0000 0.65860  0.09420  0.94390  Biso   1.000  O
  H45      1.0000 0.66300  0.32200  0.72610  Biso   1.000  H
  H46      1.0000 0.83700  0.67800  0.22610  Biso   1.000  H
  H47      1.0000 0.16300  0.17800  0.27390  Biso   1.000  H
  H48      1.0000 0.33700  0.82200  0.77390  Biso   1.000  H
