data_image0
_cell_length_a       6.6525
_cell_length_b       14.2585
_cell_length_c       18.8653
_cell_angle_alpha    90
_cell_angle_beta     90
_cell_angle_gamma    90

_symmetry_space_group_name_H-M    "P 1"
_symmetry_int_tables_number       1

loop_
  _symmetry_equiv_pos_as_xyz
  'x, y, z'

loop_
  _atom_site_label
  _atom_site_occupancy
  _atom_site_fract_x
  _atom_site_fract_y
  _atom_site_fract_z
  _atom_site_thermal_displace_type
  _atom_site_B_iso_or_equiv
  _atom_site_type_symbol
  C1       1.0000 0.25310  0.52500  0.67508  Biso   1.000  C
  C2       1.0000 0.24690  0.47500  0.17508  Biso   1.000  C
  C3       1.0000 0.74690  0.02500  0.82492  Biso   1.000  C
  C4       1.0000 0.75310  0.97500  0.32492  Biso   1.000  C
  C5       1.0000 0.37660  0.44980  0.71461  Biso   1.000  C
  C6       1.0000 0.12340  0.55020  0.21461  Biso   1.000  C
  C7       1.0000 0.62340  0.94980  0.78539  Biso   1.000  C
  C8       1.0000 0.87660  0.05020  0.28539  Biso   1.000  C
  H1       1.0000 0.34820  0.45580  0.76540  Biso   1.000  H
  H2       1.0000 0.15180  0.54420  0.26540  Biso   1.000  H
  H3       1.0000 0.65180  0.95580  0.73460  Biso   1.000  H
  H4       1.0000 0.84820  0.04420  0.23460  Biso   1.000  H
  C9       1.0000 0.60330  0.46220  0.70385  Biso   1.000  C
  C10      1.0000 0.89670  0.53780  0.20385  Biso   1.000  C
  C11      1.0000 0.39670  0.96220  0.79615  Biso   1.000  C
  C12      1.0000 0.10330  0.03780  0.29615  Biso   1.000  C
  H5       1.0000 0.63670  0.52820  0.71260  Biso   1.000  H
  H6       1.0000 0.86330  0.47180  0.21260  Biso   1.000  H
  H7       1.0000 0.36330  0.02820  0.78740  Biso   1.000  H
  H8       1.0000 0.13670  0.97180  0.28740  Biso   1.000  H
  C13      1.0000 0.71850  0.40190  0.75802  Biso   1.000  C
  C14      1.0000 0.78150  0.59810  0.25802  Biso   1.000  C
  C15      1.0000 0.28150  0.90190  0.74198  Biso   1.000  C
  C16      1.0000 0.21850  0.09810  0.24198  Biso   1.000  C
  O1       1.0000 0.08680  0.50065  0.64751  Biso   1.000  O
  O2       1.0000 0.41320  0.49935  0.14751  Biso   1.000  O
  O3       1.0000 0.91320  0.00065  0.85249  Biso   1.000  O
  O4       1.0000 0.58680  0.99935  0.35249  Biso   1.000  O
  O5       1.0000 0.31290  0.60773  0.67613  Biso   1.000  O
  O6       1.0000 0.18710  0.39227  0.17613  Biso   1.000  O
  O7       1.0000 0.68710  0.10773  0.82387  Biso   1.000  O
  O8       1.0000 0.81290  0.89227  0.32387  Biso   1.000  O
  O9       1.0000 0.31330  0.35939  0.69254  Biso   1.000  O
  O10      1.0000 0.18670  0.64061  0.19254  Biso   1.000  O
  O11      1.0000 0.68670  0.85939  0.80746  Biso   1.000  O
  O12      1.0000 0.81330  0.14061  0.30746  Biso   1.000  O
  H9       1.0000 0.33600  0.32100  0.72540  Biso   1.000  H
  H10      1.0000 0.16400  0.67900  0.22540  Biso   1.000  H
  H11      1.0000 0.66400  0.82100  0.77460  Biso   1.000  H
  H12      1.0000 0.83600  0.17900  0.27460  Biso   1.000  H
  O13      1.0000 0.65190  0.39813  0.81895  Biso   1.000  O
  O14      1.0000 0.84810  0.60187  0.31895  Biso   1.000  O
  O15      1.0000 0.34810  0.89813  0.68105  Biso   1.000  O
  O16      1.0000 0.15190  0.10187  0.18105  Biso   1.000  O
  O17      1.0000 0.88240  0.36248  0.73882  Biso   1.000  O
  O18      1.0000 0.61760  0.63752  0.23882  Biso   1.000  O
  O19      1.0000 0.11760  0.86248  0.76118  Biso   1.000  O
  O20      1.0000 0.38240  0.13752  0.26118  Biso   1.000  O
  O21      1.0000 0.66340  0.43976  0.63412  Biso   1.000  O
  O22      1.0000 0.83660  0.56024  0.13412  Biso   1.000  O
  O23      1.0000 0.33660  0.93976  0.86588  Biso   1.000  O
  O24      1.0000 0.16340  0.06024  0.36588  Biso   1.000  O
  H13      1.0000 0.65800  0.48980  0.61060  Biso   1.000  H
  H14      1.0000 0.84200  0.51020  0.11060  Biso   1.000  H
  H15      1.0000 0.34200  0.98980  0.88940  Biso   1.000  H
  H16      1.0000 0.15800  0.01020  0.38940  Biso   1.000  H
  C17      1.0000 0.97550  0.16660  0.67815  Biso   1.000  C
  C18      1.0000 0.52450  0.83340  0.17815  Biso   1.000  C
  C19      1.0000 0.02450  0.66660  0.82185  Biso   1.000  C
  C20      1.0000 0.47550  0.33340  0.32185  Biso   1.000  C
  H17      1.0000 0.95980  0.18590  0.72490  Biso   1.000  H
  H18      1.0000 0.54020  0.81410  0.22490  Biso   1.000  H
  H19      1.0000 0.04020  0.68590  0.77510  Biso   1.000  H
  H20      1.0000 0.45980  0.31410  0.27510  Biso   1.000  H
  C21      1.0000 0.99470  0.07183  0.66408  Biso   1.000  C
  C22      1.0000 0.50530  0.92817  0.16408  Biso   1.000  C
  C23      1.0000 0.00530  0.57183  0.83592  Biso   1.000  C
  C24      1.0000 0.49470  0.42817  0.33592  Biso   1.000  C
  H21      1.0000 0.99450  0.02820  0.70070  Biso   1.000  H
  H22      1.0000 0.50550  0.97180  0.20070  Biso   1.000  H
  H23      1.0000 0.00550  0.52820  0.79930  Biso   1.000  H
  H24      1.0000 0.49450  0.47180  0.29930  Biso   1.000  H
  C25      1.0000 0.01410  0.04330  0.59454  Biso   1.000  C
  C26      1.0000 0.48590  0.95670  0.09454  Biso   1.000  C
  C27      1.0000 0.98590  0.54330  0.90546  Biso   1.000  C
  C28      1.0000 0.51410  0.45670  0.40546  Biso   1.000  C
  H25      1.0000 0.02730  0.97990  0.58380  Biso   1.000  H
  H26      1.0000 0.47270  0.02010  0.08380  Biso   1.000  H
  H27      1.0000 0.97270  0.47990  0.91620  Biso   1.000  H
  H28      1.0000 0.52730  0.52010  0.41620  Biso   1.000  H
  C29      1.0000 0.01380  0.10920  0.54092  Biso   1.000  C
  C30      1.0000 0.48620  0.89080  0.04092  Biso   1.000  C
  C31      1.0000 0.98620  0.60920  0.95908  Biso   1.000  C
  C32      1.0000 0.51380  0.39080  0.45908  Biso   1.000  C
  H29      1.0000 0.02420  0.09080  0.49380  Biso   1.000  H
  H30      1.0000 0.47580  0.90920  0.99380  Biso   1.000  H
  H31      1.0000 0.97580  0.59080  0.00620  Biso   1.000  H
  H32      1.0000 0.52420  0.40920  0.50620  Biso   1.000  H
  C33      1.0000 0.99780  0.20360  0.55864  Biso   1.000  C
  C34      1.0000 0.50220  0.79640  0.05864  Biso   1.000  C
  C35      1.0000 0.00220  0.70360  0.94136  Biso   1.000  C
  C36      1.0000 0.49780  0.29640  0.44136  Biso   1.000  C
  C37      1.0000 0.00560  0.28074  0.50681  Biso   1.000  C
  C38      1.0000 0.49440  0.71926  0.00681  Biso   1.000  C
  C39      1.0000 0.99440  0.78074  0.99319  Biso   1.000  C
  C40      1.0000 0.50560  0.21926  0.49319  Biso   1.000  C
  C41      1.0000 0.99650  0.26880  0.43374  Biso   1.000  C
  C42      1.0000 0.50350  0.73120  0.93374  Biso   1.000  C
  C43      1.0000 0.00350  0.76880  0.06626  Biso   1.000  C
  C44      1.0000 0.49650  0.23120  0.56626  Biso   1.000  C
  H33      1.0000 0.98770  0.20910  0.41410  Biso   1.000  H
  H34      1.0000 0.51230  0.79090  0.91410  Biso   1.000  H
  H35      1.0000 0.01230  0.70910  0.08590  Biso   1.000  H
  H36      1.0000 0.48770  0.29090  0.58590  Biso   1.000  H
  C45      1.0000 0.00070  0.34730  0.39093  Biso   1.000  C
  C46      1.0000 0.49930  0.65270  0.89093  Biso   1.000  C
  C47      1.0000 0.99930  0.84730  0.10907  Biso   1.000  C
  C48      1.0000 0.50070  0.15270  0.60907  Biso   1.000  C
  H37      1.0000 0.99250  0.34110  0.34190  Biso   1.000  H
  H38      1.0000 0.50750  0.65890  0.84190  Biso   1.000  H
  H39      1.0000 0.00750  0.84110  0.15810  Biso   1.000  H
  H40      1.0000 0.49250  0.15890  0.65810  Biso   1.000  H
  C49      1.0000 0.01700  0.43490  0.42118  Biso   1.000  C
  C50      1.0000 0.48300  0.56510  0.92118  Biso   1.000  C
  C51      1.0000 0.98300  0.93490  0.07882  Biso   1.000  C
  C52      1.0000 0.51700  0.06510  0.57882  Biso   1.000  C
  H41      1.0000 0.02090  0.48840  0.39300  Biso   1.000  H
  H42      1.0000 0.47910  0.51160  0.89300  Biso   1.000  H
  H43      1.0000 0.97910  0.98840  0.10700  Biso   1.000  H
  H44      1.0000 0.52090  0.01160  0.60700  Biso   1.000  H
  C53      1.0000 0.02750  0.44200  0.49437  Biso   1.000  C
  C54      1.0000 0.47250  0.55800  0.99437  Biso   1.000  C
  C55      1.0000 0.97250  0.94200  0.00563  Biso   1.000  C
  C56      1.0000 0.52750  0.05800  0.50563  Biso   1.000  C
  H45      1.0000 0.04040  0.50110  0.51480  Biso   1.000  H
  H46      1.0000 0.45960  0.49890  0.01480  Biso   1.000  H
  H47      1.0000 0.95960  0.00110  0.98520  Biso   1.000  H
  H48      1.0000 0.54040  0.99890  0.48520  Biso   1.000  H
  Cu1      1.0000 0.99357  0.37034  0.64221  Biso   1.000  Cu
  Cu2      1.0000 0.50643  0.62966  0.14221  Biso   1.000  Cu
  Cu3      1.0000 0.00643  0.87034  0.85779  Biso   1.000  Cu
  Cu4      1.0000 0.49357  0.12966  0.35779  Biso   1.000  Cu
  N1       1.0000 0.97890  0.23135  0.62707  Biso   1.000  N
  N2       1.0000 0.52110  0.76865  0.12707  Biso   1.000  N
  N3       1.0000 0.02110  0.73135  0.87293  Biso   1.000  N
  N4       1.0000 0.47890  0.26865  0.37293  Biso   1.000  N
  N5       1.0000 0.01970  0.36708  0.53651  Biso   1.000  N
  N6       1.0000 0.48030  0.63292  0.03651  Biso   1.000  N
  N7       1.0000 0.98030  0.86708  0.96349  Biso   1.000  N
  N8       1.0000 0.51970  0.13292  0.46349  Biso   1.000  N
  O25      1.0000 0.02000  0.74365  0.63996  Biso   1.000  O
  O26      1.0000 0.48000  0.25635  0.13996  Biso   1.000  O
  O27      1.0000 0.98000  0.24365  0.86004  Biso   1.000  O
  O28      1.0000 0.52000  0.75635  0.36004  Biso   1.000  O
  H49      1.0000 0.06500  0.78300  0.66940  Biso   1.000  H
  H50      1.0000 0.43500  0.21700  0.16940  Biso   1.000  H
  H51      1.0000 0.93500  0.28300  0.83060  Biso   1.000  H
  H52      1.0000 0.56500  0.71700  0.33060  Biso   1.000  H
  H53      1.0000 0.10000  0.69800  0.64100  Biso   1.000  H
  H54      1.0000 0.40000  0.30200  0.14100  Biso   1.000  H
  H55      1.0000 0.90000  0.19800  0.85900  Biso   1.000  H
  H56      1.0000 0.60000  0.80200  0.35900  Biso   1.000  H
  O29      1.0000 0.34060  0.67143  0.47624  Biso   1.000  O
  O30      1.0000 0.15940  0.32857  0.97624  Biso   1.000  O
  O31      1.0000 0.65940  0.17143  0.02376  Biso   1.000  O
  O32      1.0000 0.84060  0.82857  0.52376  Biso   1.000  O
  H57      1.0000 0.21600  0.66800  0.47200  Biso   1.000  H
  H58      1.0000 0.28400  0.33200  0.97200  Biso   1.000  H
  H59      1.0000 0.78400  0.16800  0.02800  Biso   1.000  H
  H60      1.0000 0.71600  0.83200  0.52800  Biso   1.000  H
  H61      1.0000 0.38200  0.70500  0.44200  Biso   1.000  H
  H62      1.0000 0.11800  0.29500  0.94200  Biso   1.000  H
  H63      1.0000 0.61800  0.20500  0.05800  Biso   1.000  H
  H64      1.0000 0.88200  0.79500  0.55800  Biso   1.000  H
  O33      1.0000 0.42650  0.83608  0.54711  Biso   1.000  O
  O34      1.0000 0.07350  0.16392  0.04711  Biso   1.000  O
  O35      1.0000 0.57350  0.33608  0.95289  Biso   1.000  O
  O36      1.0000 0.92650  0.66392  0.45289  Biso   1.000  O
  H65      1.0000 0.38400  0.84700  0.58810  Biso   1.000  H
  H66      1.0000 0.11600  0.15300  0.08810  Biso   1.000  H
  H67      1.0000 0.61600  0.34700  0.91190  Biso   1.000  H
  H68      1.0000 0.88400  0.65300  0.41190  Biso   1.000  H
  H69      1.0000 0.40300  0.78170  0.53600  Biso   1.000  H
  H70      1.0000 0.09700  0.21830  0.03600  Biso   1.000  H
  H71      1.0000 0.59700  0.28170  0.96400  Biso   1.000  H
  H72      1.0000 0.90300  0.71830  0.46400  Biso   1.000  H
  O37      1.0000 0.65670  0.59445  0.55701  Biso   1.000  O
  O38      1.0000 0.84330  0.40555  0.05701  Biso   1.000  O
  O39      1.0000 0.34330  0.09445  0.94299  Biso   1.000  O
  O40      1.0000 0.15670  0.90555  0.44299  Biso   1.000  O
  H73      1.0000 0.54900  0.61000  0.53700  Biso   1.000  H
  H74      1.0000 0.95100  0.39000  0.03700  Biso   1.000  H
  H75      1.0000 0.45100  0.11000  0.96300  Biso   1.000  H
  H76      1.0000 0.04900  0.89000  0.46300  Biso   1.000  H
  H77      1.0000 0.74700  0.61100  0.52820  Biso   1.000  H
  H78      1.0000 0.75300  0.38900  0.02820  Biso   1.000  H
  H79      1.0000 0.25300  0.11100  0.97180  Biso   1.000  H
  H80      1.0000 0.24700  0.88900  0.47180  Biso   1.000  H
  O41      1.0000 0.34810  0.21669  0.78482  Biso   1.000  O
  O42      1.0000 0.15190  0.78331  0.28482  Biso   1.000  O
  O43      1.0000 0.65190  0.71669  0.71518  Biso   1.000  O
  O44      1.0000 0.84810  0.28331  0.21518  Biso   1.000  O
  H81      1.0000 0.25300  0.21900  0.81270  Biso   1.000  H
  H82      1.0000 0.24700  0.78100  0.31270  Biso   1.000  H
  H83      1.0000 0.74700  0.71900  0.68730  Biso   1.000  H
  H84      1.0000 0.75300  0.28100  0.18730  Biso   1.000  H
  H85      1.0000 0.44700  0.18700  0.79860  Biso   1.000  H
  H86      1.0000 0.05300  0.81300  0.29860  Biso   1.000  H
  H87      1.0000 0.55300  0.68700  0.70140  Biso   1.000  H
  H88      1.0000 0.94700  0.31300  0.20140  Biso   1.000  H
