data_image0
_cell_length_a       6.6556
_cell_length_b       14.3048
_cell_length_c       19.047
_cell_angle_alpha    90
_cell_angle_beta     90
_cell_angle_gamma    90

_symmetry_space_group_name_H-M    "P 1"
_symmetry_int_tables_number       1

loop_
  _symmetry_equiv_pos_as_xyz
  'x, y, z'

loop_
  _atom_site_label
  _atom_site_occupancy
  _atom_site_fract_x
  _atom_site_fract_y
  _atom_site_fract_z
  _atom_site_thermal_displace_type
  _atom_site_B_iso_or_equiv
  _atom_site_type_symbol
  N1       1.0000 0.50140  0.23900  0.12460  Biso   1.000  N
  N2       1.0000 0.99860  0.76100  0.62460  Biso   1.000  N
  N3       1.0000 0.49860  0.73900  0.37540  Biso   1.000  N
  N4       1.0000 0.00140  0.26100  0.87540  Biso   1.000  N
  C1       1.0000 0.49280  0.21010  0.05500  Biso   1.000  C
  C2       1.0000 0.00720  0.78990  0.55500  Biso   1.000  C
  C3       1.0000 0.50720  0.71010  0.44500  Biso   1.000  C
  C4       1.0000 0.99280  0.28990  0.94500  Biso   1.000  C
  C5       1.0000 0.49160  0.11530  0.03900  Biso   1.000  C
  C6       1.0000 0.00840  0.88470  0.53900  Biso   1.000  C
  C7       1.0000 0.50840  0.61530  0.46100  Biso   1.000  C
  C8       1.0000 0.99160  0.38470  0.96100  Biso   1.000  C
  H1       1.0000 0.48590  0.09590  0.99240  Biso   1.000  H
  H2       1.0000 0.01410  0.90410  0.49240  Biso   1.000  H
  H3       1.0000 0.51410  0.59590  0.50760  Biso   1.000  H
  H4       1.0000 0.98590  0.40410  0.00760  Biso   1.000  H
  C9       1.0000 0.49900  0.04940  0.09260  Biso   1.000  C
  C10      1.0000 0.00100  0.95060  0.59260  Biso   1.000  C
  C11      1.0000 0.50100  0.54940  0.40740  Biso   1.000  C
  C12      1.0000 0.99900  0.45060  0.90740  Biso   1.000  C
  H5       1.0000 0.49820  0.98600  0.08190  Biso   1.000  H
  H6       1.0000 0.00180  0.01400  0.58190  Biso   1.000  H
  H7       1.0000 0.50180  0.48600  0.41810  Biso   1.000  H
  H8       1.0000 0.99820  0.51400  0.91810  Biso   1.000  H
  C13      1.0000 0.50760  0.07840  0.16220  Biso   1.000  C
  C14      1.0000 0.99240  0.92160  0.66220  Biso   1.000  C
  C15      1.0000 0.49240  0.57840  0.33780  Biso   1.000  C
  C16      1.0000 0.00760  0.42160  0.83780  Biso   1.000  C
  H9       1.0000 0.51260  0.03430  0.19800  Biso   1.000  H
  H10      1.0000 0.98740  0.96570  0.69800  Biso   1.000  H
  H11      1.0000 0.48740  0.53430  0.30200  Biso   1.000  H
  H12      1.0000 0.01260  0.46570  0.80200  Biso   1.000  H
  C17      1.0000 0.50880  0.17320  0.17820  Biso   1.000  C
  C18      1.0000 0.99120  0.82680  0.67820  Biso   1.000  C
  C19      1.0000 0.49120  0.67320  0.32180  Biso   1.000  C
  C20      1.0000 0.00880  0.32680  0.82180  Biso   1.000  C
  H13      1.0000 0.51460  0.19250  0.22480  Biso   1.000  H
  H14      1.0000 0.98540  0.80750  0.72480  Biso   1.000  H
  H15      1.0000 0.48540  0.69250  0.27520  Biso   1.000  H
  H16      1.0000 0.01460  0.30750  0.77520  Biso   1.000  H
  N5       1.0000 0.48870  0.36280  0.04000  Biso   1.000  N
  N6       1.0000 0.01130  0.63720  0.54000  Biso   1.000  N
  N7       1.0000 0.51130  0.86280  0.46000  Biso   1.000  N
  N8       1.0000 0.98870  0.13720  0.96000  Biso   1.000  N
  C21      1.0000 0.48570  0.44380  0.99230  Biso   1.000  C
  C22      1.0000 0.01430  0.55620  0.49230  Biso   1.000  C
  C23      1.0000 0.51430  0.94380  0.50770  Biso   1.000  C
  C24      1.0000 0.98570  0.05620  0.00770  Biso   1.000  C
  H17      1.0000 0.49900  0.50330  0.01140  Biso   1.000  H
  H18      1.0000 0.00100  0.49670  0.51140  Biso   1.000  H
  H19      1.0000 0.50100  0.00330  0.48860  Biso   1.000  H
  H20      1.0000 0.99900  0.99670  0.98860  Biso   1.000  H
  C25      1.0000 0.46620  0.43610  0.92740  Biso   1.000  C
  C26      1.0000 0.03380  0.56390  0.42740  Biso   1.000  C
  C27      1.0000 0.53380  0.93610  0.57260  Biso   1.000  C
  C28      1.0000 0.96620  0.06390  0.07260  Biso   1.000  C
  H21      1.0000 0.42910  0.48720  0.90020  Biso   1.000  H
  H22      1.0000 0.07090  0.51280  0.40020  Biso   1.000  H
  H23      1.0000 0.57090  0.98720  0.59980  Biso   1.000  H
  H24      1.0000 0.92910  0.01280  0.09980  Biso   1.000  H
  C29      1.0000 0.50070  0.35000  0.89690  Biso   1.000  C
  C30      1.0000 0.99930  0.65000  0.39690  Biso   1.000  C
  C31      1.0000 0.49930  0.85000  0.60310  Biso   1.000  C
  C32      1.0000 0.00070  0.15000  0.10310  Biso   1.000  C
  H25      1.0000 0.53590  0.34600  0.84970  Biso   1.000  H
  H26      1.0000 0.96410  0.65400  0.34970  Biso   1.000  H
  H27      1.0000 0.46410  0.84600  0.65030  Biso   1.000  H
  H28      1.0000 0.03590  0.15400  0.15030  Biso   1.000  H
  C33      1.0000 0.48200  0.26720  0.93830  Biso   1.000  C
  C34      1.0000 0.01800  0.73280  0.43830  Biso   1.000  C
  C35      1.0000 0.51800  0.76720  0.56170  Biso   1.000  C
  C36      1.0000 0.98200  0.23280  0.06170  Biso   1.000  C
  H29      1.0000 0.46430  0.20760  0.91980  Biso   1.000  H
  H30      1.0000 0.03570  0.79240  0.41980  Biso   1.000  H
  H31      1.0000 0.53570  0.70760  0.58020  Biso   1.000  H
  H32      1.0000 0.96430  0.29240  0.08020  Biso   1.000  H
  C37      1.0000 0.49360  0.28690  0.00910  Biso   1.000  C
  C38      1.0000 0.00640  0.71310  0.50910  Biso   1.000  C
  C39      1.0000 0.50640  0.78690  0.49090  Biso   1.000  C
  C40      1.0000 0.99360  0.21310  0.99090  Biso   1.000  C
  Cu1      1.0000 0.50340  0.37430  0.14329  Biso   1.000  Cu
  Cu2      1.0000 0.99660  0.62570  0.64329  Biso   1.000  Cu
  Cu3      1.0000 0.49660  0.87430  0.35671  Biso   1.000  Cu
  Cu4      1.0000 0.00340  0.12570  0.85671  Biso   1.000  Cu
  O1       1.0000 0.18560  0.36070  0.18890  Biso   1.000  O
  O2       1.0000 0.31440  0.63930  0.68890  Biso   1.000  O
  O3       1.0000 0.81440  0.86070  0.31110  Biso   1.000  O
  O4       1.0000 0.68560  0.13930  0.81110  Biso   1.000  O
  H33      1.0000 0.11220  0.30550  0.19190  Biso   1.000  H
  H34      1.0000 0.38780  0.69450  0.69190  Biso   1.000  H
  H35      1.0000 0.88780  0.80550  0.30810  Biso   1.000  H
  H36      1.0000 0.61220  0.19450  0.80810  Biso   1.000  H
  O5       1.0000 0.40620  0.50480  0.14780  Biso   1.000  O
  O6       1.0000 0.09380  0.49520  0.64780  Biso   1.000  O
  O7       1.0000 0.59380  0.00480  0.35220  Biso   1.000  O
  O8       1.0000 0.90620  0.99520  0.85220  Biso   1.000  O
  C41      1.0000 0.11800  0.45090  0.21200  Biso   1.000  C
  C42      1.0000 0.38200  0.54910  0.71200  Biso   1.000  C
  C43      1.0000 0.88200  0.95090  0.28800  Biso   1.000  C
  C44      1.0000 0.61800  0.04910  0.78800  Biso   1.000  C
  H37      1.0000 0.14750  0.45520  0.26230  Biso   1.000  H
  H38      1.0000 0.35250  0.54480  0.76230  Biso   1.000  H
  H39      1.0000 0.85250  0.95520  0.23770  Biso   1.000  H
  H40      1.0000 0.64750  0.04480  0.73770  Biso   1.000  H
  C45      1.0000 0.24500  0.52630  0.17500  Biso   1.000  C
  C46      1.0000 0.25500  0.47370  0.67500  Biso   1.000  C
  C47      1.0000 0.75500  0.02630  0.32500  Biso   1.000  C
  C48      1.0000 0.74500  0.97370  0.82500  Biso   1.000  C
  O9       1.0000 0.17930  0.60940  0.17810  Biso   1.000  O
  O10      1.0000 0.32070  0.39060  0.67810  Biso   1.000  O
  O11      1.0000 0.82070  0.10940  0.32190  Biso   1.000  O
  O12      1.0000 0.67930  0.89060  0.82190  Biso   1.000  O
  C49      1.0000 0.89400  0.46080  0.20380  Biso   1.000  C
  C50      1.0000 0.60600  0.53920  0.70380  Biso   1.000  C
  C51      1.0000 0.10600  0.96080  0.29620  Biso   1.000  C
  C52      1.0000 0.39400  0.03920  0.79620  Biso   1.000  C
  H41      1.0000 0.85900  0.52680  0.21030  Biso   1.000  H
  H42      1.0000 0.64100  0.47320  0.71030  Biso   1.000  H
  H43      1.0000 0.14100  0.02680  0.28970  Biso   1.000  H
  H44      1.0000 0.35900  0.97320  0.78970  Biso   1.000  H
  C53      1.0000 0.77500  0.40250  0.25850  Biso   1.000  C
  C54      1.0000 0.72500  0.59750  0.75850  Biso   1.000  C
  C55      1.0000 0.22500  0.90250  0.24150  Biso   1.000  C
  C56      1.0000 0.27500  0.09750  0.74150  Biso   1.000  C
  O13      1.0000 0.84930  0.39710  0.31740  Biso   1.000  O
  O14      1.0000 0.65070  0.60290  0.81740  Biso   1.000  O
  O15      1.0000 0.15070  0.89710  0.18260  Biso   1.000  O
  O16      1.0000 0.34930  0.10290  0.68260  Biso   1.000  O
  O17      1.0000 0.82170  0.43230  0.13890  Biso   1.000  O
  O18      1.0000 0.67830  0.56770  0.63890  Biso   1.000  O
  O19      1.0000 0.17830  0.93230  0.36110  Biso   1.000  O
  O20      1.0000 0.32170  0.06770  0.86110  Biso   1.000  O
  O21      1.0000 0.61510  0.36570  0.24030  Biso   1.000  O
  O22      1.0000 0.88490  0.63430  0.74030  Biso   1.000  O
  O23      1.0000 0.38490  0.86570  0.25970  Biso   1.000  O
  O24      1.0000 0.11510  0.13430  0.75970  Biso   1.000  O
  O25      1.0000 0.48100  0.74530  0.13960  Biso   1.000  O
  O26      1.0000 0.01900  0.25470  0.63960  Biso   1.000  O
  O27      1.0000 0.51900  0.24530  0.36040  Biso   1.000  O
  O28      1.0000 0.98100  0.75470  0.86040  Biso   1.000  O
  O29      1.0000 0.67810  0.82840  0.02400  Biso   1.000  O
  O30      1.0000 0.82190  0.17160  0.52400  Biso   1.000  O
  O31      1.0000 0.32190  0.32840  0.47600  Biso   1.000  O
  O32      1.0000 0.17810  0.67160  0.97600  Biso   1.000  O
  O33      1.0000 0.84550  0.72250  0.21680  Biso   1.000  O
  O34      1.0000 0.65450  0.27750  0.71680  Biso   1.000  O
  O35      1.0000 0.15450  0.22250  0.28320  Biso   1.000  O
  O36      1.0000 0.34550  0.77750  0.78320  Biso   1.000  O
  O37      1.0000 0.91640  0.33560  0.45210  Biso   1.000  O
  O38      1.0000 0.58360  0.66440  0.95210  Biso   1.000  O
  O39      1.0000 0.08360  0.83560  0.04790  Biso   1.000  O
  O40      1.0000 0.41640  0.16440  0.54790  Biso   1.000  O
  O41      1.0000 0.83860  0.59290  0.05350  Biso   1.000  O
  O42      1.0000 0.66140  0.40710  0.55350  Biso   1.000  O
  O43      1.0000 0.16140  0.09290  0.44650  Biso   1.000  O
  O44      1.0000 0.33860  0.90710  0.94650  Biso   1.000  O
  H45      1.0000 0.01600  0.31740  0.42860  Biso   1.000  H
  H46      1.0000 0.48400  0.68260  0.92860  Biso   1.000  H
  H47      1.0000 0.98400  0.81740  0.07140  Biso   1.000  H
  H48      1.0000 0.51600  0.18260  0.57140  Biso   1.000  H
  H49      1.0000 0.88510  0.38370  0.42490  Biso   1.000  H
  H50      1.0000 0.61490  0.61630  0.92490  Biso   1.000  H
  H51      1.0000 0.11490  0.88370  0.07510  Biso   1.000  H
  H52      1.0000 0.38510  0.11630  0.57510  Biso   1.000  H
  H53      1.0000 0.48160  0.70750  0.17220  Biso   1.000  H
  H54      1.0000 0.01840  0.29250  0.67220  Biso   1.000  H
  H55      1.0000 0.51840  0.20750  0.32780  Biso   1.000  H
  H56      1.0000 0.98160  0.79250  0.82780  Biso   1.000  H
  H57      1.0000 0.90660  0.75720  0.24610  Biso   1.000  H
  H58      1.0000 0.59340  0.24280  0.74610  Biso   1.000  H
  H59      1.0000 0.09340  0.25720  0.25390  Biso   1.000  H
  H60      1.0000 0.40660  0.74280  0.75390  Biso   1.000  H
  H61      1.0000 0.81030  0.76390  0.18710  Biso   1.000  H
  H62      1.0000 0.68970  0.23610  0.68710  Biso   1.000  H
  H63      1.0000 0.18970  0.26390  0.31290  Biso   1.000  H
  H64      1.0000 0.31030  0.73610  0.81290  Biso   1.000  H
  H65      1.0000 0.53530  0.79270  0.16000  Biso   1.000  H
  H66      1.0000 0.96470  0.20730  0.66000  Biso   1.000  H
  H67      1.0000 0.46470  0.29270  0.34000  Biso   1.000  H
  H68      1.0000 0.03530  0.70730  0.84000  Biso   1.000  H
  H69      1.0000 0.96650  0.59870  0.05410  Biso   1.000  H
  H70      1.0000 0.53350  0.40130  0.55410  Biso   1.000  H
  H71      1.0000 0.03350  0.09870  0.44590  Biso   1.000  H
  H72      1.0000 0.46650  0.90130  0.94590  Biso   1.000  H
  H73      1.0000 0.82110  0.59750  0.00940  Biso   1.000  H
  H74      1.0000 0.67890  0.40250  0.50940  Biso   1.000  H
  H75      1.0000 0.17890  0.09750  0.49060  Biso   1.000  H
  H76      1.0000 0.32110  0.90250  0.99060  Biso   1.000  H
  H77      1.0000 0.73860  0.80760  0.98780  Biso   1.000  H
  H78      1.0000 0.76140  0.19240  0.48780  Biso   1.000  H
  H79      1.0000 0.26140  0.30760  0.51220  Biso   1.000  H
  H80      1.0000 0.23860  0.69240  0.01220  Biso   1.000  H
  H81      1.0000 0.76000  0.84040  0.05700  Biso   1.000  H
  H82      1.0000 0.74000  0.15960  0.55700  Biso   1.000  H
  H83      1.0000 0.24000  0.34040  0.44300  Biso   1.000  H
  H84      1.0000 0.26000  0.65960  0.94300  Biso   1.000  H
  H85      1.0000 0.84930  0.47510  0.11270  Biso   1.000  H
  H86      1.0000 0.65070  0.52490  0.61270  Biso   1.000  H
  H87      1.0000 0.15070  0.97510  0.38730  Biso   1.000  H
  H88      1.0000 0.34930  0.02490  0.88730  Biso   1.000  H
