data_image0
_cell_length_a       8.234
_cell_length_b       15.708
_cell_length_c       9.889
_cell_angle_alpha    90
_cell_angle_beta     105.009
_cell_angle_gamma    90

_symmetry_space_group_name_H-M    "P 1"
_symmetry_int_tables_number       1

loop_
  _symmetry_equiv_pos_as_xyz
  'x, y, z'

loop_
  _atom_site_label
  _atom_site_occupancy
  _atom_site_fract_x
  _atom_site_fract_y
  _atom_site_fract_z
  _atom_site_thermal_displace_type
  _atom_site_B_iso_or_equiv
  _atom_site_type_symbol
  Cu1      1.0000 0.64538  0.18458  0.86207  Biso   1.000  Cu
  Cu2      1.0000 0.35462  0.68458  0.63793  Biso   1.000  Cu
  Cu3      1.0000 0.35462  0.81542  0.13793  Biso   1.000  Cu
  Cu4      1.0000 0.64538  0.31542  0.36207  Biso   1.000  Cu
  C1       1.0000 0.13560  0.95637  0.87160  Biso   1.000  C
  C2       1.0000 0.86440  0.45637  0.62840  Biso   1.000  C
  C3       1.0000 0.86440  0.04363  0.12840  Biso   1.000  C
  C4       1.0000 0.13560  0.54363  0.37160  Biso   1.000  C
  H1       1.0000 0.04010  0.97620  0.79680  Biso   1.000  H
  H2       1.0000 0.95990  0.47620  0.70320  Biso   1.000  H
  H3       1.0000 0.95990  0.02380  0.20320  Biso   1.000  H
  H4       1.0000 0.04010  0.52380  0.29680  Biso   1.000  H
  H5       1.0000 0.09550  0.93790  0.95200  Biso   1.000  H
  H6       1.0000 0.90450  0.43790  0.54800  Biso   1.000  H
  H7       1.0000 0.90450  0.06210  0.04800  Biso   1.000  H
  H8       1.0000 0.09550  0.56210  0.45200  Biso   1.000  H
  H9       1.0000 0.19020  0.90850  0.83740  Biso   1.000  H
  H10      1.0000 0.80980  0.40850  0.66260  Biso   1.000  H
  H11      1.0000 0.80980  0.09150  0.16260  Biso   1.000  H
  H12      1.0000 0.19020  0.59150  0.33740  Biso   1.000  H
  C5       1.0000 0.25840  0.02698  0.91500  Biso   1.000  C
  C6       1.0000 0.74160  0.52698  0.58500  Biso   1.000  C
  C7       1.0000 0.74160  0.97302  0.08500  Biso   1.000  C
  C8       1.0000 0.25840  0.47302  0.41500  Biso   1.000  C
  C9       1.0000 0.29260  0.08038  0.03000  Biso   1.000  C
  C10      1.0000 0.70740  0.58038  0.47000  Biso   1.000  C
  C11      1.0000 0.70740  0.91962  0.97000  Biso   1.000  C
  C12      1.0000 0.29260  0.41962  0.53000  Biso   1.000  C
  H13      1.0000 0.24080  0.08000  0.10540  Biso   1.000  H
  H14      1.0000 0.75920  0.58000  0.39460  Biso   1.000  H
  H15      1.0000 0.75920  0.92000  0.89460  Biso   1.000  H
  H16      1.0000 0.24080  0.42000  0.60540  Biso   1.000  H
  C13      1.0000 0.41890  0.13472  0.01230  Biso   1.000  C
  C14      1.0000 0.58110  0.63472  0.48770  Biso   1.000  C
  C15      1.0000 0.58110  0.86528  0.98770  Biso   1.000  C
  C16      1.0000 0.41890  0.36528  0.51230  Biso   1.000  C
  C17      1.0000 0.51740  0.20624  0.09370  Biso   1.000  C
  C18      1.0000 0.48260  0.70624  0.40630  Biso   1.000  C
  C19      1.0000 0.48260  0.79376  0.90630  Biso   1.000  C
  C20      1.0000 0.51740  0.29376  0.59370  Biso   1.000  C
  C21      1.0000 0.24250  0.36382  0.91590  Biso   1.000  C
  C22      1.0000 0.75750  0.86382  0.58410  Biso   1.000  C
  C23      1.0000 0.75750  0.63618  0.08410  Biso   1.000  C
  C24      1.0000 0.24250  0.13618  0.41590  Biso   1.000  C
  H17      1.0000 0.19560  0.42130  0.89740  Biso   1.000  H
  H18      1.0000 0.80440  0.92130  0.60260  Biso   1.000  H
  H19      1.0000 0.80440  0.57870  0.10260  Biso   1.000  H
  H20      1.0000 0.19560  0.07870  0.39740  Biso   1.000  H
  H21      1.0000 0.32940  0.35540  0.86560  Biso   1.000  H
  H22      1.0000 0.67060  0.85540  0.63440  Biso   1.000  H
  H23      1.0000 0.67060  0.64460  0.13440  Biso   1.000  H
  H24      1.0000 0.32940  0.14460  0.36560  Biso   1.000  H
  H25      1.0000 0.29220  0.35680  0.01670  Biso   1.000  H
  H26      1.0000 0.70780  0.85680  0.48330  Biso   1.000  H
  H27      1.0000 0.70780  0.64320  0.98330  Biso   1.000  H
  H28      1.0000 0.29220  0.14320  0.51670  Biso   1.000  H
  C25      1.0000 0.10590  0.29973  0.86730  Biso   1.000  C
  C26      1.0000 0.89410  0.79973  0.63270  Biso   1.000  C
  C27      1.0000 0.89410  0.70027  0.13270  Biso   1.000  C
  C28      1.0000 0.10590  0.20027  0.36730  Biso   1.000  C
  C29      1.0000 0.08840  0.23411  0.77010  Biso   1.000  C
  C30      1.0000 0.91160  0.73411  0.72990  Biso   1.000  C
  C31      1.0000 0.91160  0.76589  0.22990  Biso   1.000  C
  C32      1.0000 0.08840  0.26589  0.27010  Biso   1.000  C
  H29      1.0000 0.16360  0.21920  0.71550  Biso   1.000  H
  H30      1.0000 0.83640  0.71920  0.78450  Biso   1.000  H
  H31      1.0000 0.83640  0.78080  0.28450  Biso   1.000  H
  H32      1.0000 0.16360  0.28080  0.21550  Biso   1.000  H
  C33      1.0000 0.93610  0.19489  0.77030  Biso   1.000  C
  C34      1.0000 0.06390  0.69489  0.72970  Biso   1.000  C
  C35      1.0000 0.06390  0.80511  0.22970  Biso   1.000  C
  C36      1.0000 0.93610  0.30511  0.27030  Biso   1.000  C
  C37      1.0000 0.83740  0.12306  0.69270  Biso   1.000  C
  C38      1.0000 0.16260  0.62306  0.80730  Biso   1.000  C
  C39      1.0000 0.16260  0.87694  0.30730  Biso   1.000  C
  C40      1.0000 0.83740  0.37694  0.19270  Biso   1.000  C
  N1       1.0000 0.36220  0.05109  0.83548  Biso   1.000  N
  N2       1.0000 0.63780  0.55109  0.66452  Biso   1.000  N
  N3       1.0000 0.63780  0.94891  0.16452  Biso   1.000  N
  N4       1.0000 0.36220  0.44891  0.33548  Biso   1.000  N
  H33      1.0000 0.36490  0.02690  0.75580  Biso   1.000  H
  H34      1.0000 0.63510  0.52690  0.74420  Biso   1.000  H
  H35      1.0000 0.63510  0.97310  0.24420  Biso   1.000  H
  H36      1.0000 0.36490  0.47310  0.25580  Biso   1.000  H
  N5       1.0000 0.46000  0.11634  0.89384  Biso   1.000  N
  N6       1.0000 0.54000  0.61634  0.60616  Biso   1.000  N
  N7       1.0000 0.54000  0.88366  0.10616  Biso   1.000  N
  N8       1.0000 0.46000  0.38366  0.39384  Biso   1.000  N
  N9       1.0000 0.97010  0.29720  0.91815  Biso   1.000  N
  N10      1.0000 0.02990  0.79720  0.58185  Biso   1.000  N
  N11      1.0000 0.02990  0.70280  0.08185  Biso   1.000  N
  N12      1.0000 0.97010  0.20280  0.41815  Biso   1.000  N
  H37      1.0000 0.95170  0.33280  0.98120  Biso   1.000  H
  H38      1.0000 0.04830  0.83280  0.51880  Biso   1.000  H
  H39      1.0000 0.04830  0.66720  0.01880  Biso   1.000  H
  H40      1.0000 0.95170  0.16720  0.48120  Biso   1.000  H
  N13      1.0000 0.86500  0.23336  0.86086  Biso   1.000  N
  N14      1.0000 0.13500  0.73336  0.63914  Biso   1.000  N
  N15      1.0000 0.13500  0.76664  0.13914  Biso   1.000  N
  N16      1.0000 0.86500  0.26664  0.36086  Biso   1.000  N
  O1       1.0000 0.49140  0.22726  0.20782  Biso   1.000  O
  O2       1.0000 0.50860  0.72726  0.29218  Biso   1.000  O
  O3       1.0000 0.50860  0.77274  0.79218  Biso   1.000  O
  O4       1.0000 0.49140  0.27274  0.70782  Biso   1.000  O
  O5       1.0000 0.62461  0.24008  0.03752  Biso   1.000  O
  O6       1.0000 0.37539  0.74008  0.46248  Biso   1.000  O
  O7       1.0000 0.37539  0.75992  0.96248  Biso   1.000  O
  O8       1.0000 0.62461  0.25992  0.53752  Biso   1.000  O
  O9       1.0000 0.88192  0.08836  0.59439  Biso   1.000  O
  O10      1.0000 0.11808  0.58836  0.90561  Biso   1.000  O
  O11      1.0000 0.11808  0.91164  0.40561  Biso   1.000  O
  O12      1.0000 0.88192  0.41164  0.09439  Biso   1.000  O
  O13      1.0000 0.70868  0.10119  0.73378  Biso   1.000  O
  O14      1.0000 0.29132  0.60119  0.76622  Biso   1.000  O
  O15      1.0000 0.29132  0.89881  0.26622  Biso   1.000  O
  O16      1.0000 0.70868  0.39881  0.23378  Biso   1.000  O
  O17      1.0000 0.40220  0.96331  0.60810  Biso   1.000  O
  O18      1.0000 0.59780  0.46331  0.89190  Biso   1.000  O
  O19      1.0000 0.59780  0.03669  0.39190  Biso   1.000  O
  O20      1.0000 0.40220  0.53669  0.10810  Biso   1.000  O
  H41      1.0000 0.41300  0.91610  0.64800  Biso   1.000  H
  H42      1.0000 0.58700  0.41610  0.85200  Biso   1.000  H
  H43      1.0000 0.58700  0.08390  0.35200  Biso   1.000  H
  H44      1.0000 0.41300  0.58390  0.14800  Biso   1.000  H
  H45      1.0000 0.32300  0.95200  0.53800  Biso   1.000  H
  H46      1.0000 0.67700  0.45200  0.96200  Biso   1.000  H
  H47      1.0000 0.67700  0.04800  0.46200  Biso   1.000  H
  H48      1.0000 0.32300  0.54800  0.03800  Biso   1.000  H
