data_image0
_cell_length_a       8.2338
_cell_length_b       15.6694
_cell_length_c       9.8905
_cell_angle_alpha    90
_cell_angle_beta     105.31
_cell_angle_gamma    90

_symmetry_space_group_name_H-M    "P 1"
_symmetry_int_tables_number       1

loop_
  _symmetry_equiv_pos_as_xyz
  'x, y, z'

loop_
  _atom_site_label
  _atom_site_occupancy
  _atom_site_fract_x
  _atom_site_fract_y
  _atom_site_fract_z
  _atom_site_thermal_displace_type
  _atom_site_B_iso_or_equiv
  _atom_site_type_symbol
  Cu1      1.0000 0.85652  0.18436  0.13723  Biso   1.000  Cu
  Cu2      1.0000 0.14348  0.68436  0.36277  Biso   1.000  Cu
  Cu3      1.0000 0.14348  0.81564  0.86277  Biso   1.000  Cu
  Cu4      1.0000 0.85652  0.31564  0.63723  Biso   1.000  Cu
  O1       1.0000 0.87680  0.23988  0.96150  Biso   1.000  O
  O2       1.0000 0.12320  0.73988  0.53850  Biso   1.000  O
  O3       1.0000 0.12320  0.76012  0.03850  Biso   1.000  O
  O4       1.0000 0.87680  0.26012  0.46150  Biso   1.000  O
  O5       1.0000 0.01130  0.22773  0.79250  Biso   1.000  O
  O6       1.0000 0.98870  0.72773  0.70750  Biso   1.000  O
  O7       1.0000 0.98870  0.77227  0.20750  Biso   1.000  O
  O8       1.0000 0.01130  0.27227  0.29250  Biso   1.000  O
  O9       1.0000 0.79400  0.10061  0.26650  Biso   1.000  O
  O10      1.0000 0.20600  0.60061  0.23350  Biso   1.000  O
  O11      1.0000 0.20600  0.89939  0.73350  Biso   1.000  O
  O12      1.0000 0.79400  0.39939  0.76650  Biso   1.000  O
  O13      1.0000 0.62170  0.08798  0.40600  Biso   1.000  O
  O14      1.0000 0.37830  0.58798  0.09400  Biso   1.000  O
  O15      1.0000 0.37830  0.91202  0.59400  Biso   1.000  O
  O16      1.0000 0.62170  0.41202  0.90600  Biso   1.000  O
  N1       1.0000 0.04150  0.11597  0.10590  Biso   1.000  N
  N2       1.0000 0.95850  0.61597  0.39410  Biso   1.000  N
  N3       1.0000 0.95850  0.88403  0.89410  Biso   1.000  N
  N4       1.0000 0.04150  0.38403  0.60590  Biso   1.000  N
  N5       1.0000 0.14050  0.05033  0.16450  Biso   1.000  N
  N6       1.0000 0.85950  0.55033  0.33550  Biso   1.000  N
  N7       1.0000 0.85950  0.94967  0.83550  Biso   1.000  N
  N8       1.0000 0.14050  0.44967  0.66450  Biso   1.000  N
  H1       1.0000 0.13850  0.02600  0.24420  Biso   1.000  H
  H2       1.0000 0.86150  0.52600  0.25580  Biso   1.000  H
  H3       1.0000 0.86150  0.97400  0.75580  Biso   1.000  H
  H4       1.0000 0.13850  0.47400  0.74420  Biso   1.000  H
  N9       1.0000 0.63710  0.23330  0.13820  Biso   1.000  N
  N10      1.0000 0.36290  0.73330  0.36180  Biso   1.000  N
  N11      1.0000 0.36290  0.76670  0.86180  Biso   1.000  N
  N12      1.0000 0.63710  0.26670  0.63820  Biso   1.000  N
  N13      1.0000 0.53220  0.29699  0.08100  Biso   1.000  N
  N14      1.0000 0.46780  0.79699  0.41900  Biso   1.000  N
  N15      1.0000 0.46780  0.70301  0.91900  Biso   1.000  N
  N16      1.0000 0.53220  0.20301  0.58100  Biso   1.000  N
  H5       1.0000 0.55050  0.33280  0.01810  Biso   1.000  H
  H6       1.0000 0.44950  0.83280  0.48190  Biso   1.000  H
  H7       1.0000 0.44950  0.66720  0.98190  Biso   1.000  H
  H8       1.0000 0.55050  0.16720  0.51810  Biso   1.000  H
  C1       1.0000 0.98530  0.20620  0.90600  Biso   1.000  C
  C2       1.0000 0.01470  0.70620  0.59400  Biso   1.000  C
  C3       1.0000 0.01470  0.79380  0.09400  Biso   1.000  C
  C4       1.0000 0.98530  0.29380  0.40600  Biso   1.000  C
  C5       1.0000 0.08350  0.13450  0.98740  Biso   1.000  C
  C6       1.0000 0.91650  0.63450  0.51260  Biso   1.000  C
  C7       1.0000 0.91650  0.86550  0.01260  Biso   1.000  C
  C8       1.0000 0.08350  0.36550  0.48740  Biso   1.000  C
  C9       1.0000 0.20860  0.07980  0.96910  Biso   1.000  C
  C10      1.0000 0.79140  0.57980  0.53090  Biso   1.000  C
  C11      1.0000 0.79140  0.92020  0.03090  Biso   1.000  C
  C12      1.0000 0.20860  0.42020  0.46910  Biso   1.000  C
  H9       1.0000 0.25950  0.07900  0.89340  Biso   1.000  H
  H10      1.0000 0.74050  0.57900  0.60660  Biso   1.000  H
  H11      1.0000 0.74050  0.92100  0.10660  Biso   1.000  H
  H12      1.0000 0.25950  0.42100  0.39340  Biso   1.000  H
  C13      1.0000 0.24320  0.02660  0.08530  Biso   1.000  C
  C14      1.0000 0.75680  0.52660  0.41470  Biso   1.000  C
  C15      1.0000 0.75680  0.97340  0.91470  Biso   1.000  C
  C16      1.0000 0.24320  0.47340  0.58530  Biso   1.000  C
  C17      1.0000 0.36650  0.95520  0.12810  Biso   1.000  C
  C18      1.0000 0.63350  0.45520  0.37190  Biso   1.000  C
  C19      1.0000 0.63350  0.04480  0.87190  Biso   1.000  C
  C20      1.0000 0.36650  0.54480  0.62810  Biso   1.000  C
  H13      1.0000 0.31210  0.90730  0.16270  Biso   1.000  H
  H14      1.0000 0.68790  0.40730  0.33730  Biso   1.000  H
  H15      1.0000 0.68790  0.09270  0.83730  Biso   1.000  H
  H16      1.0000 0.31210  0.59270  0.66270  Biso   1.000  H
  H17      1.0000 0.46310  0.97480  0.20250  Biso   1.000  H
  H18      1.0000 0.53690  0.47480  0.29750  Biso   1.000  H
  H19      1.0000 0.53690  0.02520  0.79750  Biso   1.000  H
  H20      1.0000 0.46310  0.52520  0.70250  Biso   1.000  H
  H21      1.0000 0.40490  0.93650  0.04720  Biso   1.000  H
  H22      1.0000 0.59510  0.43650  0.45280  Biso   1.000  H
  H23      1.0000 0.59510  0.06350  0.95280  Biso   1.000  H
  H24      1.0000 0.40490  0.56350  0.54720  Biso   1.000  H
  C21      1.0000 0.66570  0.12271  0.30710  Biso   1.000  C
  C22      1.0000 0.33430  0.62271  0.19290  Biso   1.000  C
  C23      1.0000 0.33430  0.87729  0.69290  Biso   1.000  C
  C24      1.0000 0.66570  0.37729  0.80710  Biso   1.000  C
  C25      1.0000 0.56530  0.19483  0.22910  Biso   1.000  C
  C26      1.0000 0.43470  0.69483  0.27090  Biso   1.000  C
  C27      1.0000 0.43470  0.80517  0.77090  Biso   1.000  C
  C28      1.0000 0.56530  0.30517  0.72910  Biso   1.000  C
  C29      1.0000 0.41380  0.23370  0.22950  Biso   1.000  C
  C30      1.0000 0.58620  0.73370  0.27050  Biso   1.000  C
  C31      1.0000 0.58620  0.76630  0.77050  Biso   1.000  C
  C32      1.0000 0.41380  0.26630  0.72950  Biso   1.000  C
  H25      1.0000 0.33940  0.21870  0.28440  Biso   1.000  H
  H26      1.0000 0.66060  0.71870  0.21560  Biso   1.000  H
  H27      1.0000 0.66060  0.78130  0.71560  Biso   1.000  H
  H28      1.0000 0.33940  0.28130  0.78440  Biso   1.000  H
  C33      1.0000 0.39460  0.29940  0.13210  Biso   1.000  C
  C34      1.0000 0.60540  0.79940  0.36790  Biso   1.000  C
  C35      1.0000 0.60540  0.70060  0.86790  Biso   1.000  C
  C36      1.0000 0.39460  0.20060  0.63210  Biso   1.000  C
  C37      1.0000 0.25840  0.36350  0.08290  Biso   1.000  C
  C38      1.0000 0.74160  0.86350  0.41710  Biso   1.000  C
  C39      1.0000 0.74160  0.63650  0.91710  Biso   1.000  C
  C40      1.0000 0.25840  0.13650  0.58290  Biso   1.000  C
  H29      1.0000 0.30610  0.42110  0.09850  Biso   1.000  H
  H30      1.0000 0.69390  0.92110  0.40150  Biso   1.000  H
  H31      1.0000 0.69390  0.57890  0.90150  Biso   1.000  H
  H32      1.0000 0.30610  0.07890  0.59850  Biso   1.000  H
  H33      1.0000 0.17330  0.35640  0.13500  Biso   1.000  H
  H34      1.0000 0.82670  0.85640  0.36500  Biso   1.000  H
  H35      1.0000 0.82670  0.64360  0.86500  Biso   1.000  H
  H36      1.0000 0.17330  0.14360  0.63500  Biso   1.000  H
  H37      1.0000 0.20600  0.35510  0.98260  Biso   1.000  H
  H38      1.0000 0.79400  0.85510  0.51740  Biso   1.000  H
  H39      1.0000 0.79400  0.64490  0.01740  Biso   1.000  H
  H40      1.0000 0.20600  0.14490  0.48260  Biso   1.000  H
  O17      1.0000 0.09640  0.96290  0.38950  Biso   1.000  O
  O18      1.0000 0.90360  0.46290  0.11050  Biso   1.000  O
  O19      1.0000 0.90360  0.03710  0.61050  Biso   1.000  O
  O20      1.0000 0.09640  0.53710  0.88950  Biso   1.000  O
