data_image0
_cell_length_a       8.4341
_cell_length_b       10.1027
_cell_length_c       20.9444
_cell_angle_alpha    90
_cell_angle_beta     97.449
_cell_angle_gamma    90

_symmetry_space_group_name_H-M    "P 1"
_symmetry_int_tables_number       1

loop_
  _symmetry_equiv_pos_as_xyz
  'x, y, z'

loop_
  _atom_site_label
  _atom_site_occupancy
  _atom_site_fract_x
  _atom_site_fract_y
  _atom_site_fract_z
  _atom_site_thermal_displace_type
  _atom_site_B_iso_or_equiv
  _atom_site_type_symbol
  Cu1      1.0000 0.97530  0.61065  0.45464  Biso   1.000  Cu
  Cu2      1.0000 0.02470  0.11065  0.54536  Biso   1.000  Cu
  Cu3      1.0000 0.02180  0.48811  0.04224  Biso   1.000  Cu
  Cu4      1.0000 0.97820  0.98811  0.95776  Biso   1.000  Cu
  O1       1.0000 0.44400  0.72400  0.52050  Biso   1.000  O
  O2       1.0000 0.55600  0.22400  0.47950  Biso   1.000  O
  O3       1.0000 0.80800  0.54760  0.09030  Biso   1.000  O
  O4       1.0000 0.19200  0.04760  0.90970  Biso   1.000  O
  H1       1.0000 0.77100  0.48210  0.10620  Biso   1.000  H
  H2       1.0000 0.22900  0.98210  0.89380  Biso   1.000  H
  O5       1.0000 0.65000  0.82900  0.57160  Biso   1.000  O
  O6       1.0000 0.35000  0.32900  0.42840  Biso   1.000  O
  O7       1.0000 0.69790  0.65500  0.51300  Biso   1.000  O
  O8       1.0000 0.30210  0.15500  0.48700  Biso   1.000  O
  O9       1.0000 0.17440  0.55970  0.39280  Biso   1.000  O
  O10      1.0000 0.82560  0.05970  0.60720  Biso   1.000  O
  H3       1.0000 0.21970  0.62790  0.38400  Biso   1.000  H
  H4       1.0000 0.78030  0.12790  0.61600  Biso   1.000  H
  O11      1.0000 0.60300  0.84600  0.45940  Biso   1.000  O
  O12      1.0000 0.39700  0.34600  0.54060  Biso   1.000  O
  O13      1.0000 0.30000  0.47600  0.97000  Biso   1.000  O
  O14      1.0000 0.70000  0.97600  0.03000  Biso   1.000  O
  O15      1.0000 0.26300  0.35200  0.87870  Biso   1.000  O
  O16      1.0000 0.73700  0.85200  0.12130  Biso   1.000  O
  O17      1.0000 0.38100  0.30000  0.97860  Biso   1.000  O
  O18      1.0000 0.61900  0.80000  0.02140  Biso   1.000  O
  O19      1.0000 0.53400  0.38900  0.93750  Biso   1.000  O
  O20      1.0000 0.46600  0.88900  0.06250  Biso   1.000  O
  O21      1.0000 0.96510  0.42340  0.48300  Biso   1.000  O
  O22      1.0000 0.03490  0.92340  0.51700  Biso   1.000  O
  O23      1.0000 0.01700  0.29780  0.56960  Biso   1.000  O
  O24      1.0000 0.98300  0.79780  0.43040  Biso   1.000  O
  O25      1.0000 0.33700  0.83700  0.85290  Biso   1.000  O
  O26      1.0000 0.66300  0.33700  0.14710  Biso   1.000  O
  H5       1.0000 0.28930  0.89820  0.86790  Biso   1.000  H
  H6       1.0000 0.71070  0.39820  0.13210  Biso   1.000  H
  O27      1.0000 0.65270  0.27900  0.64530  Biso   1.000  O
  O28      1.0000 0.34730  0.77900  0.35470  Biso   1.000  O
  H7       1.0000 0.71970  0.22070  0.64390  Biso   1.000  H
  H8       1.0000 0.28030  0.72070  0.35610  Biso   1.000  H
  O29      1.0000 0.03260  0.67400  0.01290  Biso   1.000  O
  O30      1.0000 0.96740  0.17400  0.98710  Biso   1.000  O
  O31      1.0000 0.98680  0.80300  0.92770  Biso   1.000  O
  O32      1.0000 0.01320  0.30300  0.07230  Biso   1.000  O
  N1       1.0000 0.80780  0.58990  0.37950  Biso   1.000  N
  N2       1.0000 0.19220  0.08990  0.62050  Biso   1.000  N
  N3       1.0000 0.18790  0.52520  0.11960  Biso   1.000  N
  N4       1.0000 0.81210  0.02520  0.88040  Biso   1.000  N
  N5       1.0000 0.90300  0.46810  0.95330  Biso   1.000  N
  N6       1.0000 0.09700  0.96810  0.04670  Biso   1.000  N
  H9       1.0000 0.83800  0.40420  0.94190  Biso   1.000  H
  H10      1.0000 0.16200  0.90420  0.05810  Biso   1.000  H
  N7       1.0000 0.10720  0.63800  0.53840  Biso   1.000  N
  N8       1.0000 0.89280  0.13800  0.46160  Biso   1.000  N
  H11      1.0000 0.16770  0.70540  0.54830  Biso   1.000  H
  H12      1.0000 0.83230  0.20540  0.45170  Biso   1.000  H
  Cl1      1.0000 0.59290  0.75770  0.51550  Biso   1.000  Cl
  Cl2      1.0000 0.40710  0.25770  0.48450  Biso   1.000  Cl
  Cl3      1.0000 0.36680  0.39220  0.93660  Biso   1.000  Cl
  Cl4      1.0000 0.63320  0.89220  0.06340  Biso   1.000  Cl
  C1       1.0000 0.69000  0.49900  0.38160  Biso   1.000  C
  C2       1.0000 0.31000  0.99900  0.61840  Biso   1.000  C
  H13      1.0000 0.69240  0.44470  0.41750  Biso   1.000  H
  H14      1.0000 0.30760  0.94470  0.58250  Biso   1.000  H
  C3       1.0000 0.56550  0.48500  0.33080  Biso   1.000  C
  C4       1.0000 0.43450  0.98500  0.66920  Biso   1.000  C
  H15      1.0000 0.48640  0.42230  0.33380  Biso   1.000  H
  H16      1.0000 0.51360  0.92230  0.66620  Biso   1.000  H
  C5       1.0000 0.55800  0.56360  0.27680  Biso   1.000  C
  C6       1.0000 0.44200  0.06360  0.72320  Biso   1.000  C
  C7       1.0000 0.67800  0.65380  0.27670  Biso   1.000  C
  C8       1.0000 0.32200  0.15380  0.72330  Biso   1.000  C
  H17      1.0000 0.68180  0.70850  0.24120  Biso   1.000  H
  H18      1.0000 0.31820  0.20850  0.75880  Biso   1.000  H
  C9       1.0000 0.79100  0.66400  0.32800  Biso   1.000  C
  C10      1.0000 0.20900  0.16400  0.67200  Biso   1.000  C
  H19      1.0000 0.86600  0.73130  0.32660  Biso   1.000  H
  H20      1.0000 0.13400  0.23130  0.67340  Biso   1.000  H
  C11      1.0000 0.17300  0.46600  0.17500  Biso   1.000  C
  C12      1.0000 0.82700  0.96600  0.82500  Biso   1.000  C
  H21      1.0000 0.08360  0.41340  0.17840  Biso   1.000  H
  H22      1.0000 0.91640  0.91340  0.82160  Biso   1.000  H
  C13      1.0000 0.28400  0.48000  0.22570  Biso   1.000  C
  C14      1.0000 0.71600  0.98000  0.77430  Biso   1.000  C
  H23      1.0000 0.26880  0.44020  0.26450  Biso   1.000  H
  H24      1.0000 0.73120  0.94020  0.73550  Biso   1.000  H
  C15      1.0000 0.42440  0.55190  0.22220  Biso   1.000  C
  C16      1.0000 0.57560  0.05190  0.77780  Biso   1.000  C
  C17      1.0000 0.43250  0.61500  0.16410  Biso   1.000  C
  C18      1.0000 0.56750  0.11500  0.83590  Biso   1.000  C
  H25      1.0000 0.52050  0.66790  0.15930  Biso   1.000  H
  H26      1.0000 0.47950  0.16790  0.84070  Biso   1.000  H
  C19      1.0000 0.31580  0.60100  0.11480  Biso   1.000  C
  C20      1.0000 0.68420  0.10100  0.88520  Biso   1.000  C
  H27      1.0000 0.32370  0.64570  0.07640  Biso   1.000  H
  H28      1.0000 0.67630  0.14570  0.92360  Biso   1.000  H
  C21      1.0000 0.01790  0.40570  0.54090  Biso   1.000  C
  C22      1.0000 0.98210  0.90570  0.45910  Biso   1.000  C
  C23      1.0000 0.08600  0.52150  0.58290  Biso   1.000  C
  C24      1.0000 0.91400  0.02150  0.41710  Biso   1.000  C
  H29      1.0000 0.19170  0.49580  0.60440  Biso   1.000  H
  H30      1.0000 0.80830  0.99580  0.39560  Biso   1.000  H
  C25      1.0000 0.98540  0.55280  0.63190  Biso   1.000  C
  C26      1.0000 0.01460  0.05280  0.36810  Biso   1.000  C
  H31      1.0000 0.94880  0.47070  0.64900  Biso   1.000  H
  H32      1.0000 0.05120  0.97070  0.35100  Biso   1.000  H
  H33      1.0000 0.89200  0.60020  0.61190  Biso   1.000  H
  H34      1.0000 0.10800  0.10020  0.38810  Biso   1.000  H
  C27      1.0000 0.06600  0.63480  0.68700  Biso   1.000  C
  C28      1.0000 0.93400  0.13480  0.31300  Biso   1.000  C
  C29      1.0000 0.04500  0.77100  0.69180  Biso   1.000  C
  C30      1.0000 0.95500  0.27100  0.30820  Biso   1.000  C
  H35      1.0000 0.97810  0.81740  0.66070  Biso   1.000  H
  H36      1.0000 0.02190  0.31740  0.33930  Biso   1.000  H
  C31      1.0000 0.12700  0.83700  0.74420  Biso   1.000  C
  C32      1.0000 0.87300  0.33700  0.25580  Biso   1.000  C
  H37      1.0000 0.10600  0.92610  0.74900  Biso   1.000  H
  H38      1.0000 0.89400  0.42610  0.25100  Biso   1.000  H
  C33      1.0000 0.22900  0.78300  0.78600  Biso   1.000  C
  C34      1.0000 0.77100  0.28300  0.21400  Biso   1.000  C
  C35      1.0000 0.25500  0.64600  0.78690  Biso   1.000  C
  C36      1.0000 0.74500  0.14600  0.21310  Biso   1.000  C
  H39      1.0000 0.36890  0.62980  0.78780  Biso   1.000  H
  H40      1.0000 0.63110  0.12980  0.21220  Biso   1.000  H
  H41      1.0000 0.22360  0.61040  0.82640  Biso   1.000  H
  H42      1.0000 0.77640  0.11040  0.17360  Biso   1.000  H
  C37      1.0000 0.17400  0.57900  0.73540  Biso   1.000  C
  C38      1.0000 0.82600  0.07900  0.26460  Biso   1.000  C
  H43      1.0000 0.19330  0.48840  0.73270  Biso   1.000  H
  H44      1.0000 0.80670  0.98840  0.26730  Biso   1.000  H
  C39      1.0000 0.98900  0.69600  0.95480  Biso   1.000  C
  C40      1.0000 0.01100  0.19600  0.04520  Biso   1.000  C
  C41      1.0000 0.93800  0.56930  0.91220  Biso   1.000  C
  C42      1.0000 0.06200  0.06930  0.08780  Biso   1.000  C
  H45      1.0000 0.03080  0.54120  0.89200  Biso   1.000  H
  H46      1.0000 0.96920  0.04120  0.10800  Biso   1.000  H
  C43      1.0000 0.80700  0.60900  0.85810  Biso   1.000  C
  C44      1.0000 0.19300  0.10900  0.14190  Biso   1.000  C
  H47      1.0000 0.71190  0.63070  0.87750  Biso   1.000  H
  H48      1.0000 0.28810  0.13070  0.12250  Biso   1.000  H
  H49      1.0000 0.84130  0.69030  0.83900  Biso   1.000  H
  H50      1.0000 0.15870  0.19030  0.16100  Biso   1.000  H
  C45      1.0000 0.76100  0.51300  0.80500  Biso   1.000  C
  C46      1.0000 0.23900  0.01300  0.19500  Biso   1.000  C
  C47      1.0000 0.84100  0.39800  0.79550  Biso   1.000  C
  C48      1.0000 0.15900  0.89800  0.20450  Biso   1.000  C
  H51      1.0000 0.92360  0.37390  0.82710  Biso   1.000  H
  H52      1.0000 0.07640  0.87390  0.17290  Biso   1.000  H
  C49      1.0000 0.80870  0.31310  0.74190  Biso   1.000  C
  C50      1.0000 0.19130  0.81310  0.25810  Biso   1.000  C
  H53      1.0000 0.86520  0.23530  0.73750  Biso   1.000  H
  H54      1.0000 0.13480  0.73530  0.26250  Biso   1.000  H
  C51      1.0000 0.69200  0.35400  0.69890  Biso   1.000  C
  C52      1.0000 0.30800  0.85400  0.30110  Biso   1.000  C
  C53      1.0000 0.60600  0.47200  0.70380  Biso   1.000  C
  C54      1.0000 0.39400  0.97200  0.29620  Biso   1.000  C
  H55      1.0000 0.52510  0.49890  0.67200  Biso   1.000  H
  H56      1.0000 0.47490  0.99890  0.32800  Biso   1.000  H
  C55      1.0000 0.64800  0.54200  0.75740  Biso   1.000  C
  C56      1.0000 0.35200  0.04200  0.24260  Biso   1.000  C
  H57      1.0000 0.59190  0.62010  0.76160  Biso   1.000  H
  H58      1.0000 0.40810  0.12010  0.23840  Biso   1.000  H
