data_image0
_cell_length_a       21.224
_cell_length_b       7.045
_cell_length_c       17.72
_cell_angle_alpha    90
_cell_angle_beta     90
_cell_angle_gamma    90

_symmetry_space_group_name_H-M    "P 1"
_symmetry_int_tables_number       1

loop_
  _symmetry_equiv_pos_as_xyz
  'x, y, z'

loop_
  _atom_site_label
  _atom_site_occupancy
  _atom_site_fract_x
  _atom_site_fract_y
  _atom_site_fract_z
  _atom_site_thermal_displace_type
  _atom_site_B_iso_or_equiv
  _atom_site_type_symbol
  Cu1      1.0000 0.50000  0.08940  0.56364  Biso   1.000  Cu
  Cu2      1.0000 0.50000  0.41060  0.06364  Biso   1.000  Cu
  Cu3      1.0000 0.50000  0.58940  0.93636  Biso   1.000  Cu
  Cu4      1.0000 0.00000  0.58940  0.56364  Biso   1.000  Cu
  Cu5      1.0000 0.00000  0.91060  0.06364  Biso   1.000  Cu
  Cu6      1.0000 0.00000  0.08940  0.93636  Biso   1.000  Cu
  Cu7      1.0000 0.50000  0.91060  0.43636  Biso   1.000  Cu
  Cu8      1.0000 0.00000  0.41060  0.43636  Biso   1.000  Cu
  O1       1.0000 0.43590  0.90890  0.59610  Biso   1.000  O
  O2       1.0000 0.43590  0.59110  0.09610  Biso   1.000  O
  O3       1.0000 0.43590  0.40890  0.90390  Biso   1.000  O
  O4       1.0000 0.56410  0.90890  0.59610  Biso   1.000  O
  O5       1.0000 0.93590  0.40890  0.59610  Biso   1.000  O
  O6       1.0000 0.93590  0.09110  0.09610  Biso   1.000  O
  O7       1.0000 0.93590  0.90890  0.90390  Biso   1.000  O
  O8       1.0000 0.06410  0.40890  0.59610  Biso   1.000  O
  O9       1.0000 0.56410  0.09110  0.40390  Biso   1.000  O
  O10      1.0000 0.56410  0.40890  0.90390  Biso   1.000  O
  O11      1.0000 0.56410  0.59110  0.09610  Biso   1.000  O
  O12      1.0000 0.43590  0.09110  0.40390  Biso   1.000  O
  O13      1.0000 0.06410  0.59110  0.40390  Biso   1.000  O
  O14      1.0000 0.06410  0.90890  0.90390  Biso   1.000  O
  O15      1.0000 0.06410  0.09110  0.09610  Biso   1.000  O
  O16      1.0000 0.93590  0.59110  0.40390  Biso   1.000  O
  O17      1.0000 0.43590  0.75520  0.48560  Biso   1.000  O
  O18      1.0000 0.43590  0.74480  0.98560  Biso   1.000  O
  O19      1.0000 0.43590  0.25520  0.01440  Biso   1.000  O
  O20      1.0000 0.56410  0.75520  0.48560  Biso   1.000  O
  O21      1.0000 0.93590  0.25520  0.48560  Biso   1.000  O
  O22      1.0000 0.93590  0.24480  0.98560  Biso   1.000  O
  O23      1.0000 0.93590  0.75520  0.01440  Biso   1.000  O
  O24      1.0000 0.06410  0.25520  0.48560  Biso   1.000  O
  O25      1.0000 0.56410  0.24480  0.51440  Biso   1.000  O
  O26      1.0000 0.56410  0.25520  0.01440  Biso   1.000  O
  O27      1.0000 0.56410  0.74480  0.98560  Biso   1.000  O
  O28      1.0000 0.43590  0.24480  0.51440  Biso   1.000  O
  O29      1.0000 0.06410  0.74480  0.51440  Biso   1.000  O
  O30      1.0000 0.06410  0.75520  0.01440  Biso   1.000  O
  O31      1.0000 0.06410  0.24480  0.98560  Biso   1.000  O
  O32      1.0000 0.93590  0.74480  0.51440  Biso   1.000  O
  O33      1.0000 0.50000  0.28000  0.66370  Biso   1.000  O
  O34      1.0000 0.50000  0.22000  0.16370  Biso   1.000  O
  O35      1.0000 0.50000  0.78000  0.83630  Biso   1.000  O
  O36      1.0000 0.00000  0.78000  0.66370  Biso   1.000  O
  O37      1.0000 0.00000  0.72000  0.16370  Biso   1.000  O
  O38      1.0000 0.00000  0.28000  0.83630  Biso   1.000  O
  O39      1.0000 0.50000  0.72000  0.33630  Biso   1.000  O
  O40      1.0000 0.00000  0.22000  0.33630  Biso   1.000  O
  C1       1.0000 0.41880  0.77650  0.55280  Biso   1.000  C
  C2       1.0000 0.41880  0.72350  0.05280  Biso   1.000  C
  C3       1.0000 0.41880  0.27650  0.94720  Biso   1.000  C
  C4       1.0000 0.58120  0.77650  0.55280  Biso   1.000  C
  C5       1.0000 0.91880  0.27650  0.55280  Biso   1.000  C
  C6       1.0000 0.91880  0.22350  0.05280  Biso   1.000  C
  C7       1.0000 0.91880  0.77650  0.94720  Biso   1.000  C
  C8       1.0000 0.08120  0.27650  0.55280  Biso   1.000  C
  C9       1.0000 0.58120  0.22350  0.44720  Biso   1.000  C
  C10      1.0000 0.58120  0.27650  0.94720  Biso   1.000  C
  C11      1.0000 0.58120  0.72350  0.05280  Biso   1.000  C
  C12      1.0000 0.41880  0.22350  0.44720  Biso   1.000  C
  C13      1.0000 0.08120  0.72350  0.44720  Biso   1.000  C
  C14      1.0000 0.08120  0.77650  0.94720  Biso   1.000  C
  C15      1.0000 0.08120  0.22350  0.05280  Biso   1.000  C
  C16      1.0000 0.91880  0.72350  0.44720  Biso   1.000  C
  C17      1.0000 0.37510  0.63030  0.58650  Biso   1.000  C
  C18      1.0000 0.37510  0.86970  0.08650  Biso   1.000  C
  C19      1.0000 0.37510  0.13030  0.91350  Biso   1.000  C
  C20      1.0000 0.62490  0.63030  0.58650  Biso   1.000  C
  C21      1.0000 0.87510  0.13030  0.58650  Biso   1.000  C
  C22      1.0000 0.87510  0.36970  0.08650  Biso   1.000  C
  C23      1.0000 0.87510  0.63030  0.91350  Biso   1.000  C
  C24      1.0000 0.12490  0.13030  0.58650  Biso   1.000  C
  C25      1.0000 0.62490  0.36970  0.41350  Biso   1.000  C
  C26      1.0000 0.62490  0.13030  0.91350  Biso   1.000  C
  C27      1.0000 0.62490  0.86970  0.08650  Biso   1.000  C
  C28      1.0000 0.37510  0.36970  0.41350  Biso   1.000  C
  C29      1.0000 0.12490  0.86970  0.41350  Biso   1.000  C
  C30      1.0000 0.12490  0.63030  0.91350  Biso   1.000  C
  C31      1.0000 0.12490  0.36970  0.08650  Biso   1.000  C
  C32      1.0000 0.87510  0.86970  0.41350  Biso   1.000  C
  C33      1.0000 0.37060  0.62150  0.66470  Biso   1.000  C
  C34      1.0000 0.37060  0.87850  0.16470  Biso   1.000  C
  C35      1.0000 0.37060  0.12150  0.83530  Biso   1.000  C
  C36      1.0000 0.62940  0.62150  0.66470  Biso   1.000  C
  C37      1.0000 0.87060  0.12150  0.66470  Biso   1.000  C
  C38      1.0000 0.87060  0.37850  0.16470  Biso   1.000  C
  C39      1.0000 0.87060  0.62150  0.83530  Biso   1.000  C
  C40      1.0000 0.12940  0.12150  0.66470  Biso   1.000  C
  C41      1.0000 0.62940  0.37850  0.33530  Biso   1.000  C
  C42      1.0000 0.62940  0.12150  0.83530  Biso   1.000  C
  C43      1.0000 0.62940  0.87850  0.16470  Biso   1.000  C
  C44      1.0000 0.37060  0.37850  0.33530  Biso   1.000  C
  C45      1.0000 0.12940  0.87850  0.33530  Biso   1.000  C
  C46      1.0000 0.12940  0.62150  0.83530  Biso   1.000  C
  C47      1.0000 0.12940  0.37850  0.16470  Biso   1.000  C
  C48      1.0000 0.87060  0.87850  0.33530  Biso   1.000  C
  C49      1.0000 0.33450  0.48730  0.70000  Biso   1.000  C
  C50      1.0000 0.33450  0.01270  0.20000  Biso   1.000  C
  C51      1.0000 0.33450  0.98730  0.80000  Biso   1.000  C
  C52      1.0000 0.66550  0.48730  0.70000  Biso   1.000  C
  C53      1.0000 0.83450  0.98730  0.70000  Biso   1.000  C
  C54      1.0000 0.83450  0.51270  0.20000  Biso   1.000  C
  C55      1.0000 0.83450  0.48730  0.80000  Biso   1.000  C
  C56      1.0000 0.16550  0.98730  0.70000  Biso   1.000  C
  C57      1.0000 0.66550  0.51270  0.30000  Biso   1.000  C
  C58      1.0000 0.66550  0.98730  0.80000  Biso   1.000  C
  C59      1.0000 0.66550  0.01270  0.20000  Biso   1.000  C
  C60      1.0000 0.33450  0.51270  0.30000  Biso   1.000  C
  C61      1.0000 0.16550  0.01270  0.30000  Biso   1.000  C
  C62      1.0000 0.16550  0.48730  0.80000  Biso   1.000  C
  C63      1.0000 0.16550  0.51270  0.20000  Biso   1.000  C
  C64      1.0000 0.83450  0.01270  0.30000  Biso   1.000  C
  C65      1.0000 0.30120  0.36000  0.65700  Biso   1.000  C
  C66      1.0000 0.30120  0.14000  0.15700  Biso   1.000  C
  C67      1.0000 0.30120  0.86000  0.84300  Biso   1.000  C
  C68      1.0000 0.69880  0.36000  0.65700  Biso   1.000  C
  C69      1.0000 0.80120  0.86000  0.65700  Biso   1.000  C
  C70      1.0000 0.80120  0.64000  0.15700  Biso   1.000  C
  C71      1.0000 0.80120  0.36000  0.84300  Biso   1.000  C
  C72      1.0000 0.19880  0.86000  0.65700  Biso   1.000  C
  C73      1.0000 0.69880  0.64000  0.34300  Biso   1.000  C
  C74      1.0000 0.69880  0.86000  0.84300  Biso   1.000  C
  C75      1.0000 0.69880  0.14000  0.15700  Biso   1.000  C
  C76      1.0000 0.30120  0.64000  0.34300  Biso   1.000  C
  C77      1.0000 0.19880  0.14000  0.34300  Biso   1.000  C
  C78      1.0000 0.19880  0.36000  0.84300  Biso   1.000  C
  C79      1.0000 0.19880  0.64000  0.15700  Biso   1.000  C
  C80      1.0000 0.80120  0.14000  0.34300  Biso   1.000  C
  C81      1.0000 0.30500  0.36480  0.57990  Biso   1.000  C
  C82      1.0000 0.30500  0.13520  0.07990  Biso   1.000  C
  C83      1.0000 0.30500  0.86480  0.92010  Biso   1.000  C
  C84      1.0000 0.69500  0.36480  0.57990  Biso   1.000  C
  C85      1.0000 0.80500  0.86480  0.57990  Biso   1.000  C
  C86      1.0000 0.80500  0.63520  0.07990  Biso   1.000  C
  C87      1.0000 0.80500  0.36480  0.92010  Biso   1.000  C
  C88      1.0000 0.19500  0.86480  0.57990  Biso   1.000  C
  C89      1.0000 0.69500  0.63520  0.42010  Biso   1.000  C
  C90      1.0000 0.69500  0.86480  0.92010  Biso   1.000  C
  C91      1.0000 0.69500  0.13520  0.07990  Biso   1.000  C
  C92      1.0000 0.30500  0.63520  0.42010  Biso   1.000  C
  C93      1.0000 0.19500  0.13520  0.42010  Biso   1.000  C
  C94      1.0000 0.19500  0.36480  0.92010  Biso   1.000  C
  C95      1.0000 0.19500  0.63520  0.07990  Biso   1.000  C
  C96      1.0000 0.80500  0.13520  0.42010  Biso   1.000  C
  C97      1.0000 0.34240  0.49950  0.54250  Biso   1.000  C
  C98      1.0000 0.34240  0.00050  0.04250  Biso   1.000  C
  C99      1.0000 0.34240  0.99950  0.95750  Biso   1.000  C
  C100     1.0000 0.65760  0.49950  0.54250  Biso   1.000  C
  C101     1.0000 0.84240  0.99950  0.54250  Biso   1.000  C
  C102     1.0000 0.84240  0.50050  0.04250  Biso   1.000  C
  C103     1.0000 0.84240  0.49950  0.95750  Biso   1.000  C
  C104     1.0000 0.15760  0.99950  0.54250  Biso   1.000  C
  C105     1.0000 0.65760  0.50050  0.45750  Biso   1.000  C
  C106     1.0000 0.65760  0.99950  0.95750  Biso   1.000  C
  C107     1.0000 0.65760  0.00050  0.04250  Biso   1.000  C
  C108     1.0000 0.34240  0.50050  0.45750  Biso   1.000  C
  C109     1.0000 0.15760  0.00050  0.45750  Biso   1.000  C
  C110     1.0000 0.15760  0.49950  0.95750  Biso   1.000  C
  C111     1.0000 0.15760  0.50050  0.04250  Biso   1.000  C
  C112     1.0000 0.84240  0.00050  0.45750  Biso   1.000  C
  H1       1.0000 0.39170  0.71470  0.69640  Biso   1.000  H
  H2       1.0000 0.39170  0.78530  0.19640  Biso   1.000  H
  H3       1.0000 0.39170  0.21470  0.80360  Biso   1.000  H
  H4       1.0000 0.60830  0.71470  0.69640  Biso   1.000  H
  H5       1.0000 0.89170  0.21470  0.69640  Biso   1.000  H
  H6       1.0000 0.89170  0.28530  0.19640  Biso   1.000  H
  H7       1.0000 0.89170  0.71470  0.80360  Biso   1.000  H
  H8       1.0000 0.10830  0.21470  0.69640  Biso   1.000  H
  H9       1.0000 0.60830  0.28530  0.30360  Biso   1.000  H
  H10      1.0000 0.60830  0.21470  0.80360  Biso   1.000  H
  H11      1.0000 0.60830  0.78530  0.19640  Biso   1.000  H
  H12      1.0000 0.39170  0.28530  0.30360  Biso   1.000  H
  H13      1.0000 0.10830  0.78530  0.30360  Biso   1.000  H
  H14      1.0000 0.10830  0.71470  0.80360  Biso   1.000  H
  H15      1.0000 0.10830  0.28530  0.19640  Biso   1.000  H
  H16      1.0000 0.89170  0.78530  0.30360  Biso   1.000  H
  H17      1.0000 0.32990  0.46630  0.75340  Biso   1.000  H
  H18      1.0000 0.32990  0.03370  0.25340  Biso   1.000  H
  H19      1.0000 0.32990  0.96630  0.74660  Biso   1.000  H
  H20      1.0000 0.67010  0.46630  0.75340  Biso   1.000  H
  H21      1.0000 0.82990  0.96630  0.75340  Biso   1.000  H
  H22      1.0000 0.82990  0.53370  0.25340  Biso   1.000  H
  H23      1.0000 0.82990  0.46630  0.74660  Biso   1.000  H
  H24      1.0000 0.17010  0.96630  0.75340  Biso   1.000  H
  H25      1.0000 0.67010  0.53370  0.24660  Biso   1.000  H
  H26      1.0000 0.67010  0.96630  0.74660  Biso   1.000  H
  H27      1.0000 0.67010  0.03370  0.25340  Biso   1.000  H
  H28      1.0000 0.32990  0.53370  0.24660  Biso   1.000  H
  H29      1.0000 0.17010  0.03370  0.24660  Biso   1.000  H
  H30      1.0000 0.17010  0.46630  0.74660  Biso   1.000  H
  H31      1.0000 0.17010  0.53370  0.25340  Biso   1.000  H
  H32      1.0000 0.82990  0.03370  0.24660  Biso   1.000  H
  H33      1.0000 0.27400  0.26470  0.68100  Biso   1.000  H
  H34      1.0000 0.27400  0.23530  0.18100  Biso   1.000  H
  H35      1.0000 0.27400  0.76470  0.81900  Biso   1.000  H
  H36      1.0000 0.72600  0.26470  0.68100  Biso   1.000  H
  H37      1.0000 0.77400  0.76470  0.68100  Biso   1.000  H
  H38      1.0000 0.77400  0.73530  0.18100  Biso   1.000  H
  H39      1.0000 0.77400  0.26470  0.81900  Biso   1.000  H
  H40      1.0000 0.22600  0.76470  0.68100  Biso   1.000  H
  H41      1.0000 0.72600  0.73530  0.31900  Biso   1.000  H
  H42      1.0000 0.72600  0.76470  0.81900  Biso   1.000  H
  H43      1.0000 0.72600  0.23530  0.18100  Biso   1.000  H
  H44      1.0000 0.27400  0.73530  0.31900  Biso   1.000  H
  H45      1.0000 0.22600  0.23530  0.31900  Biso   1.000  H
  H46      1.0000 0.22600  0.26470  0.81900  Biso   1.000  H
  H47      1.0000 0.22600  0.73530  0.18100  Biso   1.000  H
  H48      1.0000 0.77400  0.23530  0.31900  Biso   1.000  H
  H49      1.0000 0.28280  0.25700  0.54180  Biso   1.000  H
  H50      1.0000 0.28280  0.24300  0.04180  Biso   1.000  H
  H51      1.0000 0.28280  0.75700  0.95820  Biso   1.000  H
  H52      1.0000 0.71720  0.25700  0.54180  Biso   1.000  H
  H53      1.0000 0.78280  0.75700  0.54180  Biso   1.000  H
  H54      1.0000 0.78280  0.74300  0.04180  Biso   1.000  H
  H55      1.0000 0.78280  0.25700  0.95820  Biso   1.000  H
  H56      1.0000 0.21720  0.75700  0.54180  Biso   1.000  H
  H57      1.0000 0.71720  0.74300  0.45820  Biso   1.000  H
  H58      1.0000 0.71720  0.75700  0.95820  Biso   1.000  H
  H59      1.0000 0.71720  0.24300  0.04180  Biso   1.000  H
  H60      1.0000 0.28280  0.74300  0.45820  Biso   1.000  H
  H61      1.0000 0.21720  0.24300  0.45820  Biso   1.000  H
  H62      1.0000 0.21720  0.25700  0.95820  Biso   1.000  H
  H63      1.0000 0.21720  0.74300  0.04180  Biso   1.000  H
  H64      1.0000 0.78280  0.24300  0.45820  Biso   1.000  H
  H65      1.0000 0.50000  0.16670  0.70370  Biso   1.000  H
  H66      1.0000 0.50000  0.33330  0.20370  Biso   1.000  H
  H67      1.0000 0.50000  0.66670  0.79630  Biso   1.000  H
  H68      1.0000 0.00000  0.66670  0.70370  Biso   1.000  H
  H69      1.0000 0.00000  0.83330  0.20370  Biso   1.000  H
  H70      1.0000 0.00000  0.16670  0.79630  Biso   1.000  H
  H71      1.0000 0.50000  0.83330  0.29630  Biso   1.000  H
  H72      1.0000 0.00000  0.33330  0.29630  Biso   1.000  H
  H73      1.0000 0.50000  0.39700  0.69730  Biso   1.000  H
  H74      1.0000 0.50000  0.10300  0.19730  Biso   1.000  H
  H75      1.0000 0.50000  0.89700  0.80270  Biso   1.000  H
  H76      1.0000 0.00000  0.89700  0.69730  Biso   1.000  H
  H77      1.0000 0.00000  0.60300  0.19730  Biso   1.000  H
  H78      1.0000 0.00000  0.39700  0.80270  Biso   1.000  H
  H79      1.0000 0.50000  0.60300  0.30270  Biso   1.000  H
  H80      1.0000 0.00000  0.10300  0.30270  Biso   1.000  H
