data_image0
_cell_length_a       11.09
_cell_length_b       8.0686
_cell_length_c       21.934
_cell_angle_alpha    90
_cell_angle_beta     90
_cell_angle_gamma    90

_symmetry_space_group_name_H-M    "P 1"
_symmetry_int_tables_number       1

loop_
  _symmetry_equiv_pos_as_xyz
  'x, y, z'

loop_
  _atom_site_label
  _atom_site_occupancy
  _atom_site_fract_x
  _atom_site_fract_y
  _atom_site_fract_z
  _atom_site_thermal_displace_type
  _atom_site_B_iso_or_equiv
  _atom_site_type_symbol
  Cl1      1.0000 0.09928  0.77404  0.37592  Biso   1.000  Cl
  Cl2      1.0000 0.40072  0.22596  0.37592  Biso   1.000  Cl
  Cl3      1.0000 0.90072  0.77404  0.12408  Biso   1.000  Cl
  Cl4      1.0000 0.59928  0.22596  0.12408  Biso   1.000  Cl
  Cl5      1.0000 0.90072  0.22596  0.62408  Biso   1.000  Cl
  Cl6      1.0000 0.59928  0.77404  0.62408  Biso   1.000  Cl
  Cl7      1.0000 0.09928  0.22596  0.87592  Biso   1.000  Cl
  Cl8      1.0000 0.40072  0.77404  0.87592  Biso   1.000  Cl
  Cu1      1.0000 0.25000  0.50000  0.36461  Biso   1.000  Cu
  Cu2      1.0000 0.75000  0.50000  0.13539  Biso   1.000  Cu
  Cu3      1.0000 0.75000  0.50000  0.63539  Biso   1.000  Cu
  Cu4      1.0000 0.25000  0.50000  0.86461  Biso   1.000  Cu
  N1       1.0000 0.10783  0.34370  0.38053  Biso   1.000  N
  N2       1.0000 0.39217  0.65630  0.38053  Biso   1.000  N
  N3       1.0000 0.89217  0.34370  0.11947  Biso   1.000  N
  N4       1.0000 0.60783  0.65630  0.11947  Biso   1.000  N
  N5       1.0000 0.89217  0.65630  0.61947  Biso   1.000  N
  N6       1.0000 0.60783  0.34370  0.61947  Biso   1.000  N
  N7       1.0000 0.10783  0.65630  0.88053  Biso   1.000  N
  N8       1.0000 0.39217  0.34370  0.88053  Biso   1.000  N
  N9       1.0000 0.25000  0.50000  0.45270  Biso   1.000  N
  N10      1.0000 0.75000  0.50000  0.04730  Biso   1.000  N
  N11      1.0000 0.75000  0.50000  0.54730  Biso   1.000  N
  N12      1.0000 0.25000  0.50000  0.95270  Biso   1.000  N
  C1       1.0000 0.04075  0.26350  0.33974  Biso   1.000  C
  C2       1.0000 0.45925  0.73650  0.33974  Biso   1.000  C
  C3       1.0000 0.95925  0.26350  0.16026  Biso   1.000  C
  C4       1.0000 0.54075  0.73650  0.16026  Biso   1.000  C
  C5       1.0000 0.95925  0.73650  0.66026  Biso   1.000  C
  C6       1.0000 0.54075  0.26350  0.66026  Biso   1.000  C
  C7       1.0000 0.04075  0.73650  0.83974  Biso   1.000  C
  C8       1.0000 0.45925  0.26350  0.83974  Biso   1.000  C
  H1       1.0000 0.05800  0.27830  0.29810  Biso   1.000  H
  H2       1.0000 0.44200  0.72170  0.29810  Biso   1.000  H
  H3       1.0000 0.94200  0.27830  0.20190  Biso   1.000  H
  H4       1.0000 0.55800  0.72170  0.20190  Biso   1.000  H
  H5       1.0000 0.94200  0.72170  0.70190  Biso   1.000  H
  H6       1.0000 0.55800  0.27830  0.70190  Biso   1.000  H
  H7       1.0000 0.05800  0.72170  0.79810  Biso   1.000  H
  H8       1.0000 0.44200  0.27830  0.79810  Biso   1.000  H
  C9       1.0000 0.94699  0.15950  0.35576  Biso   1.000  C
  C10      1.0000 0.55301  0.84050  0.35576  Biso   1.000  C
  C11      1.0000 0.05301  0.15950  0.14424  Biso   1.000  C
  C12      1.0000 0.44699  0.84050  0.14424  Biso   1.000  C
  C13      1.0000 0.05301  0.84050  0.64424  Biso   1.000  C
  C14      1.0000 0.44699  0.15950  0.64424  Biso   1.000  C
  C15      1.0000 0.94699  0.84050  0.85576  Biso   1.000  C
  C16      1.0000 0.55301  0.15950  0.85576  Biso   1.000  C
  H9       1.0000 0.90090  0.10550  0.32580  Biso   1.000  H
  H10      1.0000 0.59910  0.89450  0.32580  Biso   1.000  H
  H11      1.0000 0.09910  0.10550  0.17420  Biso   1.000  H
  H12      1.0000 0.40090  0.89450  0.17420  Biso   1.000  H
  H13      1.0000 0.09910  0.89450  0.67420  Biso   1.000  H
  H14      1.0000 0.40090  0.10550  0.67420  Biso   1.000  H
  H15      1.0000 0.90090  0.89450  0.82580  Biso   1.000  H
  H16      1.0000 0.59910  0.10550  0.82580  Biso   1.000  H
  C17      1.0000 0.92271  0.13680  0.41723  Biso   1.000  C
  C18      1.0000 0.57729  0.86320  0.41723  Biso   1.000  C
  C19      1.0000 0.07729  0.13680  0.08277  Biso   1.000  C
  C20      1.0000 0.42271  0.86320  0.08277  Biso   1.000  C
  C21      1.0000 0.07729  0.86320  0.58277  Biso   1.000  C
  C22      1.0000 0.42271  0.13680  0.58277  Biso   1.000  C
  C23      1.0000 0.92271  0.86320  0.91723  Biso   1.000  C
  C24      1.0000 0.57729  0.13680  0.91723  Biso   1.000  C
  H17      1.0000 0.85970  0.06650  0.42960  Biso   1.000  H
  H18      1.0000 0.64030  0.93350  0.42960  Biso   1.000  H
  H19      1.0000 0.14030  0.06650  0.07040  Biso   1.000  H
  H20      1.0000 0.35970  0.93350  0.07040  Biso   1.000  H
  H21      1.0000 0.14030  0.93350  0.57040  Biso   1.000  H
  H22      1.0000 0.35970  0.06650  0.57040  Biso   1.000  H
  H23      1.0000 0.85970  0.93350  0.92960  Biso   1.000  H
  H24      1.0000 0.64030  0.06650  0.92960  Biso   1.000  H
  N13      1.0000 0.25000  0.50000  0.77354  Biso   1.000  N
  N14      1.0000 0.75000  0.50000  0.72646  Biso   1.000  N
  N15      1.0000 0.75000  0.50000  0.22646  Biso   1.000  N
  N16      1.0000 0.25000  0.50000  0.27354  Biso   1.000  N
  C25      1.0000 0.99234  0.21880  0.46026  Biso   1.000  C
  C26      1.0000 0.50766  0.78120  0.46026  Biso   1.000  C
  C27      1.0000 0.00766  0.21880  0.03974  Biso   1.000  C
  C28      1.0000 0.49234  0.78120  0.03974  Biso   1.000  C
  C29      1.0000 0.00766  0.78120  0.53974  Biso   1.000  C
  C30      1.0000 0.49234  0.21880  0.53974  Biso   1.000  C
  C31      1.0000 0.99234  0.78120  0.96026  Biso   1.000  C
  C32      1.0000 0.50766  0.21880  0.96026  Biso   1.000  C
  H25      1.0000 0.97690  0.20540  0.50210  Biso   1.000  H
  H26      1.0000 0.52310  0.79460  0.50210  Biso   1.000  H
  H27      1.0000 0.02310  0.20540  0.99790  Biso   1.000  H
  H28      1.0000 0.47690  0.79460  0.99790  Biso   1.000  H
  H29      1.0000 0.02310  0.79460  0.49790  Biso   1.000  H
  H30      1.0000 0.47690  0.20540  0.49790  Biso   1.000  H
  H31      1.0000 0.97690  0.79460  0.00210  Biso   1.000  H
  H32      1.0000 0.52310  0.20540  0.00210  Biso   1.000  H
  C33      1.0000 0.08462  0.32040  0.44069  Biso   1.000  C
  C34      1.0000 0.41538  0.67960  0.44069  Biso   1.000  C
  C35      1.0000 0.91538  0.32040  0.05931  Biso   1.000  C
  C36      1.0000 0.58462  0.67960  0.05931  Biso   1.000  C
  C37      1.0000 0.91538  0.67960  0.55931  Biso   1.000  C
  C38      1.0000 0.58462  0.32040  0.55931  Biso   1.000  C
  C39      1.0000 0.08462  0.67960  0.94069  Biso   1.000  C
  C40      1.0000 0.41538  0.32040  0.94069  Biso   1.000  C
  C41      1.0000 0.16698  0.41070  0.48222  Biso   1.000  C
  C42      1.0000 0.33302  0.58930  0.48222  Biso   1.000  C
  C43      1.0000 0.83302  0.41070  0.01778  Biso   1.000  C
  C44      1.0000 0.66698  0.58930  0.01778  Biso   1.000  C
  C45      1.0000 0.83302  0.58930  0.51778  Biso   1.000  C
  C46      1.0000 0.66698  0.41070  0.51778  Biso   1.000  C
  C47      1.0000 0.16698  0.58930  0.98222  Biso   1.000  C
  C48      1.0000 0.33302  0.41070  0.98222  Biso   1.000  C
  C49      1.0000 0.16449  0.40780  0.54556  Biso   1.000  C
  C50      1.0000 0.33551  0.59220  0.54556  Biso   1.000  C
  C51      1.0000 0.83551  0.40780  0.95444  Biso   1.000  C
  C52      1.0000 0.66449  0.59220  0.95444  Biso   1.000  C
  C53      1.0000 0.83551  0.59220  0.45444  Biso   1.000  C
  C54      1.0000 0.66449  0.40780  0.45444  Biso   1.000  C
  C55      1.0000 0.16449  0.59220  0.04556  Biso   1.000  C
  C56      1.0000 0.33551  0.40780  0.04556  Biso   1.000  C
  H33      1.0000 0.10620  0.34490  0.56640  Biso   1.000  H
  H34      1.0000 0.39380  0.65510  0.56640  Biso   1.000  H
  H35      1.0000 0.89380  0.34490  0.93360  Biso   1.000  H
  H36      1.0000 0.60620  0.65510  0.93360  Biso   1.000  H
  H37      1.0000 0.89380  0.65510  0.43360  Biso   1.000  H
  H38      1.0000 0.60620  0.34490  0.43360  Biso   1.000  H
  H39      1.0000 0.10620  0.65510  0.06640  Biso   1.000  H
  H40      1.0000 0.39380  0.34490  0.06640  Biso   1.000  H
  C57      1.0000 0.25000  0.50000  0.57781  Biso   1.000  C
  C58      1.0000 0.75000  0.50000  0.92219  Biso   1.000  C
  C59      1.0000 0.75000  0.50000  0.42219  Biso   1.000  C
  C60      1.0000 0.25000  0.50000  0.07781  Biso   1.000  C
  C61      1.0000 0.25000  0.50000  0.64580  Biso   1.000  C
  C62      1.0000 0.75000  0.50000  0.85420  Biso   1.000  C
  C63      1.0000 0.75000  0.50000  0.35420  Biso   1.000  C
  C64      1.0000 0.25000  0.50000  0.14580  Biso   1.000  C
  C65      1.0000 0.17230  0.40030  0.67882  Biso   1.000  C
  C66      1.0000 0.32770  0.59970  0.67882  Biso   1.000  C
  C67      1.0000 0.82770  0.40030  0.82118  Biso   1.000  C
  C68      1.0000 0.67230  0.59970  0.82118  Biso   1.000  C
  C69      1.0000 0.82770  0.59970  0.32118  Biso   1.000  C
  C70      1.0000 0.67230  0.40030  0.32118  Biso   1.000  C
  C71      1.0000 0.17230  0.59970  0.17882  Biso   1.000  C
  C72      1.0000 0.32770  0.40030  0.17882  Biso   1.000  C
  H41      1.0000 0.11800  0.33010  0.65840  Biso   1.000  H
  H42      1.0000 0.38200  0.66990  0.65840  Biso   1.000  H
  H43      1.0000 0.88200  0.33010  0.84160  Biso   1.000  H
  H44      1.0000 0.61800  0.66990  0.84160  Biso   1.000  H
  H45      1.0000 0.88200  0.66990  0.34160  Biso   1.000  H
  H46      1.0000 0.61800  0.33010  0.34160  Biso   1.000  H
  H47      1.0000 0.11800  0.66990  0.15840  Biso   1.000  H
  H48      1.0000 0.38200  0.33010  0.15840  Biso   1.000  H
  C73      1.0000 0.17460  0.40380  0.74202  Biso   1.000  C
  C74      1.0000 0.32540  0.59620  0.74202  Biso   1.000  C
  C75      1.0000 0.82540  0.40380  0.75798  Biso   1.000  C
  C76      1.0000 0.67460  0.59620  0.75798  Biso   1.000  C
  C77      1.0000 0.82540  0.59620  0.25798  Biso   1.000  C
  C78      1.0000 0.67460  0.40380  0.25798  Biso   1.000  C
  C79      1.0000 0.17460  0.59620  0.24202  Biso   1.000  C
  C80      1.0000 0.32540  0.40380  0.24202  Biso   1.000  C
  H49      1.0000 0.12070  0.33560  0.76360  Biso   1.000  H
  H50      1.0000 0.37930  0.66440  0.76360  Biso   1.000  H
  H51      1.0000 0.87930  0.33560  0.73640  Biso   1.000  H
  H52      1.0000 0.62070  0.66440  0.73640  Biso   1.000  H
  H53      1.0000 0.87930  0.66440  0.23640  Biso   1.000  H
  H54      1.0000 0.62070  0.33560  0.23640  Biso   1.000  H
  H55      1.0000 0.12070  0.66440  0.26360  Biso   1.000  H
  H56      1.0000 0.37930  0.33560  0.26360  Biso   1.000  H
  O1       1.0000 0.25000  0.00000  0.47106  Biso   1.000  O
  O2       1.0000 0.75000  0.00000  0.02894  Biso   1.000  O
  O3       1.0000 0.75000  0.00000  0.52894  Biso   1.000  O
  O4       1.0000 0.25000  0.00000  0.97106  Biso   1.000  O
  H57      1.0000 0.21100  0.94900  0.44630  Biso   1.000  H
  H58      1.0000 0.28900  0.05100  0.44630  Biso   1.000  H
  H59      1.0000 0.78900  0.94900  0.05370  Biso   1.000  H
  H60      1.0000 0.71100  0.05100  0.05370  Biso   1.000  H
  H61      1.0000 0.78900  0.05100  0.55370  Biso   1.000  H
  H62      1.0000 0.71100  0.94900  0.55370  Biso   1.000  H
  H63      1.0000 0.21100  0.05100  0.94630  Biso   1.000  H
  H64      1.0000 0.28900  0.94900  0.94630  Biso   1.000  H
  O5       1.0000 0.25000  0.00000  0.27506  Biso   1.000  O
  O6       1.0000 0.75000  0.00000  0.22494  Biso   1.000  O
  O7       1.0000 0.75000  0.00000  0.72494  Biso   1.000  O
  O8       1.0000 0.25000  0.00000  0.77506  Biso   1.000  O
  H65      1.0000 0.20200  0.95600  0.29780  Biso   1.000  H
  H66      1.0000 0.29800  0.04400  0.29780  Biso   1.000  H
  H67      1.0000 0.79800  0.95600  0.20220  Biso   1.000  H
  H68      1.0000 0.70200  0.04400  0.20220  Biso   1.000  H
  H69      1.0000 0.79800  0.04400  0.70220  Biso   1.000  H
  H70      1.0000 0.70200  0.95600  0.70220  Biso   1.000  H
  H71      1.0000 0.20200  0.04400  0.79780  Biso   1.000  H
  H72      1.0000 0.29800  0.95600  0.79780  Biso   1.000  H
