data_image0
_cell_length_a       21.073
_cell_length_b       7.118
_cell_length_c       17.67
_cell_angle_alpha    90
_cell_angle_beta     90
_cell_angle_gamma    90

_symmetry_space_group_name_H-M    "P 1"
_symmetry_int_tables_number       1

loop_
  _symmetry_equiv_pos_as_xyz
  'x, y, z'

loop_
  _atom_site_label
  _atom_site_occupancy
  _atom_site_fract_x
  _atom_site_fract_y
  _atom_site_fract_z
  _atom_site_thermal_displace_type
  _atom_site_B_iso_or_equiv
  _atom_site_type_symbol
  Cu1      1.0000 0.50000  0.08840  0.56441  Biso   1.000  Cu
  Cu2      1.0000 0.00000  0.58840  0.56441  Biso   1.000  Cu
  Cu3      1.0000 0.50000  0.58840  0.93559  Biso   1.000  Cu
  Cu4      1.0000 0.50000  0.41160  0.06441  Biso   1.000  Cu
  Cu5      1.0000 0.00000  0.08840  0.93559  Biso   1.000  Cu
  Cu6      1.0000 0.00000  0.91160  0.06441  Biso   1.000  Cu
  Cu7      1.0000 0.50000  0.91160  0.43559  Biso   1.000  Cu
  Cu8      1.0000 0.00000  0.41160  0.43559  Biso   1.000  Cu
  O1       1.0000 0.43582  0.24430  0.51458  Biso   1.000  O
  O2       1.0000 0.93582  0.74430  0.51458  Biso   1.000  O
  O3       1.0000 0.43582  0.74430  0.98542  Biso   1.000  O
  O4       1.0000 0.43582  0.25570  0.01458  Biso   1.000  O
  O5       1.0000 0.56418  0.24430  0.51458  Biso   1.000  O
  O6       1.0000 0.93582  0.24430  0.98542  Biso   1.000  O
  O7       1.0000 0.93582  0.75570  0.01458  Biso   1.000  O
  O8       1.0000 0.06418  0.74430  0.51458  Biso   1.000  O
  O9       1.0000 0.56418  0.75570  0.48542  Biso   1.000  O
  O10      1.0000 0.06418  0.25570  0.48542  Biso   1.000  O
  O11      1.0000 0.56418  0.25570  0.01458  Biso   1.000  O
  O12      1.0000 0.56418  0.74430  0.98542  Biso   1.000  O
  O13      1.0000 0.43582  0.75570  0.48542  Biso   1.000  O
  O14      1.0000 0.06418  0.75570  0.01458  Biso   1.000  O
  O15      1.0000 0.06418  0.24430  0.98542  Biso   1.000  O
  O16      1.0000 0.93582  0.25570  0.48542  Biso   1.000  O
  O17      1.0000 0.43573  0.09180  0.40380  Biso   1.000  O
  O18      1.0000 0.93573  0.59180  0.40380  Biso   1.000  O
  O19      1.0000 0.43573  0.59180  0.09620  Biso   1.000  O
  O20      1.0000 0.43573  0.40820  0.90380  Biso   1.000  O
  O21      1.0000 0.56427  0.09180  0.40380  Biso   1.000  O
  O22      1.0000 0.93573  0.09180  0.09620  Biso   1.000  O
  O23      1.0000 0.93573  0.90820  0.90380  Biso   1.000  O
  O24      1.0000 0.06427  0.59180  0.40380  Biso   1.000  O
  O25      1.0000 0.56427  0.90820  0.59620  Biso   1.000  O
  O26      1.0000 0.06427  0.40820  0.59620  Biso   1.000  O
  O27      1.0000 0.56427  0.40820  0.90380  Biso   1.000  O
  O28      1.0000 0.56427  0.59180  0.09620  Biso   1.000  O
  O29      1.0000 0.43573  0.90820  0.59620  Biso   1.000  O
  O30      1.0000 0.06427  0.90820  0.90380  Biso   1.000  O
  O31      1.0000 0.06427  0.09180  0.09620  Biso   1.000  O
  O32      1.0000 0.93573  0.40820  0.59620  Biso   1.000  O
  O33      1.0000 0.50000  0.27720  0.66670  Biso   1.000  O
  O34      1.0000 0.00000  0.77720  0.66670  Biso   1.000  O
  O35      1.0000 0.50000  0.77720  0.83330  Biso   1.000  O
  O36      1.0000 0.50000  0.22280  0.16670  Biso   1.000  O
  O37      1.0000 0.00000  0.27720  0.83330  Biso   1.000  O
  O38      1.0000 0.00000  0.72280  0.16670  Biso   1.000  O
  O39      1.0000 0.50000  0.72280  0.33330  Biso   1.000  O
  O40      1.0000 0.00000  0.22280  0.33330  Biso   1.000  O
  C1       1.0000 0.34190  0.50100  0.45740  Biso   1.000  C
  C2       1.0000 0.84190  0.00100  0.45740  Biso   1.000  C
  C3       1.0000 0.34190  0.00100  0.04260  Biso   1.000  C
  C4       1.0000 0.34190  0.99900  0.95740  Biso   1.000  C
  C5       1.0000 0.65810  0.50100  0.45740  Biso   1.000  C
  C6       1.0000 0.84190  0.50100  0.04260  Biso   1.000  C
  C7       1.0000 0.84190  0.49900  0.95740  Biso   1.000  C
  C8       1.0000 0.15810  0.00100  0.45740  Biso   1.000  C
  C9       1.0000 0.65810  0.49900  0.54260  Biso   1.000  C
  C10      1.0000 0.15810  0.99900  0.54260  Biso   1.000  C
  C11      1.0000 0.65810  0.99900  0.95740  Biso   1.000  C
  C12      1.0000 0.65810  0.00100  0.04260  Biso   1.000  C
  C13      1.0000 0.34190  0.49900  0.54260  Biso   1.000  C
  C14      1.0000 0.15810  0.49900  0.95740  Biso   1.000  C
  C15      1.0000 0.15810  0.50100  0.04260  Biso   1.000  C
  C16      1.0000 0.84190  0.99900  0.54260  Biso   1.000  C
  C17      1.0000 0.37510  0.37110  0.41310  Biso   1.000  C
  C18      1.0000 0.87510  0.87110  0.41310  Biso   1.000  C
  C19      1.0000 0.37510  0.87110  0.08690  Biso   1.000  C
  C20      1.0000 0.37510  0.12890  0.91310  Biso   1.000  C
  C21      1.0000 0.62490  0.37110  0.41310  Biso   1.000  C
  C22      1.0000 0.87510  0.37110  0.08690  Biso   1.000  C
  C23      1.0000 0.87510  0.62890  0.91310  Biso   1.000  C
  C24      1.0000 0.12490  0.87110  0.41310  Biso   1.000  C
  C25      1.0000 0.62490  0.62890  0.58690  Biso   1.000  C
  C26      1.0000 0.12490  0.12890  0.58690  Biso   1.000  C
  C27      1.0000 0.62490  0.12890  0.91310  Biso   1.000  C
  C28      1.0000 0.62490  0.87110  0.08690  Biso   1.000  C
  C29      1.0000 0.37510  0.62890  0.58690  Biso   1.000  C
  C30      1.0000 0.12490  0.62890  0.91310  Biso   1.000  C
  C31      1.0000 0.12490  0.37110  0.08690  Biso   1.000  C
  C32      1.0000 0.87510  0.12890  0.58690  Biso   1.000  C
  C33      1.0000 0.37170  0.38180  0.33420  Biso   1.000  C
  C34      1.0000 0.87170  0.88180  0.33420  Biso   1.000  C
  C35      1.0000 0.37170  0.88180  0.16580  Biso   1.000  C
  C36      1.0000 0.37170  0.11820  0.83420  Biso   1.000  C
  C37      1.0000 0.62830  0.38180  0.33420  Biso   1.000  C
  C38      1.0000 0.87170  0.38180  0.16580  Biso   1.000  C
  C39      1.0000 0.87170  0.61820  0.83420  Biso   1.000  C
  C40      1.0000 0.12830  0.88180  0.33420  Biso   1.000  C
  C41      1.0000 0.62830  0.61820  0.66580  Biso   1.000  C
  C42      1.0000 0.12830  0.11820  0.66580  Biso   1.000  C
  C43      1.0000 0.62830  0.11820  0.83420  Biso   1.000  C
  C44      1.0000 0.62830  0.88180  0.16580  Biso   1.000  C
  C45      1.0000 0.37170  0.61820  0.66580  Biso   1.000  C
  C46      1.0000 0.12830  0.61820  0.83420  Biso   1.000  C
  C47      1.0000 0.12830  0.38180  0.16580  Biso   1.000  C
  C48      1.0000 0.87170  0.11820  0.66580  Biso   1.000  C
  H1       1.0000 0.39450  0.29480  0.30490  Biso   1.000  H
  H2       1.0000 0.89450  0.79480  0.30490  Biso   1.000  H
  H3       1.0000 0.39450  0.79480  0.19510  Biso   1.000  H
  H4       1.0000 0.39450  0.20520  0.80490  Biso   1.000  H
  H5       1.0000 0.60550  0.29480  0.30490  Biso   1.000  H
  H6       1.0000 0.89450  0.29480  0.19510  Biso   1.000  H
  H7       1.0000 0.89450  0.70520  0.80490  Biso   1.000  H
  H8       1.0000 0.10550  0.79480  0.30490  Biso   1.000  H
  H9       1.0000 0.60550  0.70520  0.69510  Biso   1.000  H
  H10      1.0000 0.10550  0.20520  0.69510  Biso   1.000  H
  H11      1.0000 0.60550  0.20520  0.80490  Biso   1.000  H
  H12      1.0000 0.60550  0.79480  0.19510  Biso   1.000  H
  H13      1.0000 0.39450  0.70520  0.69510  Biso   1.000  H
  H14      1.0000 0.10550  0.70520  0.80490  Biso   1.000  H
  H15      1.0000 0.10550  0.29480  0.19510  Biso   1.000  H
  H16      1.0000 0.89450  0.20520  0.69510  Biso   1.000  H
  C49      1.0000 0.33560  0.51740  0.29830  Biso   1.000  C
  C50      1.0000 0.83560  0.01740  0.29830  Biso   1.000  C
  C51      1.0000 0.33560  0.01740  0.20170  Biso   1.000  C
  C52      1.0000 0.33560  0.98260  0.79830  Biso   1.000  C
  C53      1.0000 0.66440  0.51740  0.29830  Biso   1.000  C
  C54      1.0000 0.83560  0.51740  0.20170  Biso   1.000  C
  C55      1.0000 0.83560  0.48260  0.79830  Biso   1.000  C
  C56      1.0000 0.16440  0.01740  0.29830  Biso   1.000  C
  C57      1.0000 0.66440  0.48260  0.70170  Biso   1.000  C
  C58      1.0000 0.16440  0.98260  0.70170  Biso   1.000  C
  C59      1.0000 0.66440  0.98260  0.79830  Biso   1.000  C
  C60      1.0000 0.66440  0.01740  0.20170  Biso   1.000  C
  C61      1.0000 0.33560  0.48260  0.70170  Biso   1.000  C
  C62      1.0000 0.16440  0.48260  0.79830  Biso   1.000  C
  C63      1.0000 0.16440  0.51740  0.20170  Biso   1.000  C
  C64      1.0000 0.83560  0.98260  0.70170  Biso   1.000  C
  H17      1.0000 0.33440  0.52380  0.24520  Biso   1.000  H
  H18      1.0000 0.83440  0.02380  0.24520  Biso   1.000  H
  H19      1.0000 0.33440  0.02380  0.25480  Biso   1.000  H
  H20      1.0000 0.33440  0.97620  0.74520  Biso   1.000  H
  H21      1.0000 0.66560  0.52380  0.24520  Biso   1.000  H
  H22      1.0000 0.83440  0.52380  0.25480  Biso   1.000  H
  H23      1.0000 0.83440  0.47620  0.74520  Biso   1.000  H
  H24      1.0000 0.16560  0.02380  0.24520  Biso   1.000  H
  H25      1.0000 0.66560  0.47620  0.75480  Biso   1.000  H
  H26      1.0000 0.16560  0.97620  0.75480  Biso   1.000  H
  H27      1.0000 0.66560  0.97620  0.74520  Biso   1.000  H
  H28      1.0000 0.66560  0.02380  0.25480  Biso   1.000  H
  H29      1.0000 0.33440  0.47620  0.75480  Biso   1.000  H
  H30      1.0000 0.16560  0.47620  0.74520  Biso   1.000  H
  H31      1.0000 0.16560  0.52380  0.25480  Biso   1.000  H
  H32      1.0000 0.83440  0.97620  0.75480  Biso   1.000  H
  C65      1.0000 0.30130  0.64340  0.34170  Biso   1.000  C
  C66      1.0000 0.80130  0.14340  0.34170  Biso   1.000  C
  C67      1.0000 0.30130  0.14340  0.15830  Biso   1.000  C
  C68      1.0000 0.30130  0.85660  0.84170  Biso   1.000  C
  C69      1.0000 0.69870  0.64340  0.34170  Biso   1.000  C
  C70      1.0000 0.80130  0.64340  0.15830  Biso   1.000  C
  C71      1.0000 0.80130  0.35660  0.84170  Biso   1.000  C
  C72      1.0000 0.19870  0.14340  0.34170  Biso   1.000  C
  C73      1.0000 0.69870  0.35660  0.65830  Biso   1.000  C
  C74      1.0000 0.19870  0.85660  0.65830  Biso   1.000  C
  C75      1.0000 0.69870  0.85660  0.84170  Biso   1.000  C
  C76      1.0000 0.69870  0.14340  0.15830  Biso   1.000  C
  C77      1.0000 0.30130  0.35660  0.65830  Biso   1.000  C
  C78      1.0000 0.19870  0.35660  0.84170  Biso   1.000  C
  C79      1.0000 0.19870  0.64340  0.15830  Biso   1.000  C
  C80      1.0000 0.80130  0.85660  0.65830  Biso   1.000  C
  H33      1.0000 0.27570  0.73450  0.31820  Biso   1.000  H
  H34      1.0000 0.77570  0.23450  0.31820  Biso   1.000  H
  H35      1.0000 0.27570  0.23450  0.18180  Biso   1.000  H
  H36      1.0000 0.27570  0.76550  0.81820  Biso   1.000  H
  H37      1.0000 0.72430  0.73450  0.31820  Biso   1.000  H
  H38      1.0000 0.77570  0.73450  0.18180  Biso   1.000  H
  H39      1.0000 0.77570  0.26550  0.81820  Biso   1.000  H
  H40      1.0000 0.22430  0.23450  0.31820  Biso   1.000  H
  H41      1.0000 0.72430  0.26550  0.68180  Biso   1.000  H
  H42      1.0000 0.22430  0.76550  0.68180  Biso   1.000  H
  H43      1.0000 0.72430  0.76550  0.81820  Biso   1.000  H
  H44      1.0000 0.72430  0.23450  0.18180  Biso   1.000  H
  H45      1.0000 0.27570  0.26550  0.68180  Biso   1.000  H
  H46      1.0000 0.22430  0.26550  0.81820  Biso   1.000  H
  H47      1.0000 0.22430  0.73450  0.18180  Biso   1.000  H
  H48      1.0000 0.77570  0.76550  0.68180  Biso   1.000  H
  C81      1.0000 0.30470  0.63520  0.41970  Biso   1.000  C
  C82      1.0000 0.80470  0.13520  0.41970  Biso   1.000  C
  C83      1.0000 0.30470  0.13520  0.08030  Biso   1.000  C
  C84      1.0000 0.30470  0.86480  0.91970  Biso   1.000  C
  C85      1.0000 0.69530  0.63520  0.41970  Biso   1.000  C
  C86      1.0000 0.80470  0.63520  0.08030  Biso   1.000  C
  C87      1.0000 0.80470  0.36480  0.91970  Biso   1.000  C
  C88      1.0000 0.19530  0.13520  0.41970  Biso   1.000  C
  C89      1.0000 0.69530  0.36480  0.58030  Biso   1.000  C
  C90      1.0000 0.19530  0.86480  0.58030  Biso   1.000  C
  C91      1.0000 0.69530  0.86480  0.91970  Biso   1.000  C
  C92      1.0000 0.69530  0.13520  0.08030  Biso   1.000  C
  C93      1.0000 0.30470  0.36480  0.58030  Biso   1.000  C
  C94      1.0000 0.19530  0.36480  0.91970  Biso   1.000  C
  C95      1.0000 0.19530  0.63520  0.08030  Biso   1.000  C
  C96      1.0000 0.80470  0.86480  0.58030  Biso   1.000  C
  H49      1.0000 0.28140  0.72230  0.44840  Biso   1.000  H
  H50      1.0000 0.78140  0.22230  0.44840  Biso   1.000  H
  H51      1.0000 0.28140  0.22230  0.05160  Biso   1.000  H
  H52      1.0000 0.28140  0.77770  0.94840  Biso   1.000  H
  H53      1.0000 0.71860  0.72230  0.44840  Biso   1.000  H
  H54      1.0000 0.78140  0.72230  0.05160  Biso   1.000  H
  H55      1.0000 0.78140  0.27770  0.94840  Biso   1.000  H
  H56      1.0000 0.21860  0.22230  0.44840  Biso   1.000  H
  H57      1.0000 0.71860  0.27770  0.55160  Biso   1.000  H
  H58      1.0000 0.21860  0.77770  0.55160  Biso   1.000  H
  H59      1.0000 0.71860  0.77770  0.94840  Biso   1.000  H
  H60      1.0000 0.71860  0.22230  0.05160  Biso   1.000  H
  H61      1.0000 0.28140  0.27770  0.55160  Biso   1.000  H
  H62      1.0000 0.21860  0.27770  0.94840  Biso   1.000  H
  H63      1.0000 0.21860  0.72230  0.05160  Biso   1.000  H
  H64      1.0000 0.78140  0.77770  0.55160  Biso   1.000  H
  C97      1.0000 0.41840  0.22420  0.44740  Biso   1.000  C
  C98      1.0000 0.91840  0.72420  0.44740  Biso   1.000  C
  C99      1.0000 0.41840  0.72420  0.05260  Biso   1.000  C
  C100     1.0000 0.41840  0.27580  0.94740  Biso   1.000  C
  C101     1.0000 0.58160  0.22420  0.44740  Biso   1.000  C
  C102     1.0000 0.91840  0.22420  0.05260  Biso   1.000  C
  C103     1.0000 0.91840  0.77580  0.94740  Biso   1.000  C
  C104     1.0000 0.08160  0.72420  0.44740  Biso   1.000  C
  C105     1.0000 0.58160  0.77580  0.55260  Biso   1.000  C
  C106     1.0000 0.08160  0.27580  0.55260  Biso   1.000  C
  C107     1.0000 0.58160  0.27580  0.94740  Biso   1.000  C
  C108     1.0000 0.58160  0.72420  0.05260  Biso   1.000  C
  C109     1.0000 0.41840  0.77580  0.55260  Biso   1.000  C
  C110     1.0000 0.08160  0.77580  0.94740  Biso   1.000  C
  C111     1.0000 0.08160  0.22420  0.05260  Biso   1.000  C
  C112     1.0000 0.91840  0.27580  0.55260  Biso   1.000  C
