data_image0
_cell_length_a       25.187
_cell_length_b       10.8273
_cell_length_c       21.822
_cell_angle_alpha    90
_cell_angle_beta     93.36
_cell_angle_gamma    90

_symmetry_space_group_name_H-M    "P 1"
_symmetry_int_tables_number       1

loop_
  _symmetry_equiv_pos_as_xyz
  'x, y, z'

loop_
  _atom_site_label
  _atom_site_occupancy
  _atom_site_fract_x
  _atom_site_fract_y
  _atom_site_fract_z
  _atom_site_thermal_displace_type
  _atom_site_B_iso_or_equiv
  _atom_site_type_symbol
  Cu1      1.0000 0.07915  0.28340  0.34197  Biso   1.000  Cu
  Cu2      1.0000 0.92085  0.78340  0.15803  Biso   1.000  Cu
  Cu3      1.0000 0.92085  0.71660  0.65803  Biso   1.000  Cu
  Cu4      1.0000 0.07915  0.21660  0.84197  Biso   1.000  Cu
  Cu5      1.0000 0.41757  0.25404  0.39811  Biso   1.000  Cu
  Cu6      1.0000 0.58243  0.75404  0.10189  Biso   1.000  Cu
  Cu7      1.0000 0.58243  0.74596  0.60189  Biso   1.000  Cu
  Cu8      1.0000 0.41757  0.24596  0.89811  Biso   1.000  Cu
  Cu9      1.0000 0.75311  0.26987  0.38055  Biso   1.000  Cu
  Cu10     1.0000 0.24689  0.76987  0.11945  Biso   1.000  Cu
  Cu11     1.0000 0.24689  0.73013  0.61945  Biso   1.000  Cu
  Cu12     1.0000 0.75311  0.23013  0.88055  Biso   1.000  Cu
  N1       1.0000 0.00750  0.36370  0.35790  Biso   1.000  N
  N2       1.0000 0.99250  0.86370  0.14210  Biso   1.000  N
  N3       1.0000 0.99250  0.63630  0.64210  Biso   1.000  N
  N4       1.0000 0.00750  0.13630  0.85790  Biso   1.000  N
  N5       1.0000 0.07710  0.25710  0.42820  Biso   1.000  N
  N6       1.0000 0.92290  0.75710  0.07180  Biso   1.000  N
  N7       1.0000 0.92290  0.74290  0.57180  Biso   1.000  N
  N8       1.0000 0.07710  0.24290  0.92820  Biso   1.000  N
  N9       1.0000 0.14990  0.19380  0.35810  Biso   1.000  N
  N10      1.0000 0.85010  0.69380  0.14190  Biso   1.000  N
  N11      1.0000 0.85010  0.80620  0.64190  Biso   1.000  N
  N12      1.0000 0.14990  0.30620  0.85810  Biso   1.000  N
  N13      1.0000 0.07730  0.19800  0.75220  Biso   1.000  N
  N14      1.0000 0.92270  0.69800  0.74780  Biso   1.000  N
  N15      1.0000 0.92270  0.80200  0.24780  Biso   1.000  N
  N16      1.0000 0.07730  0.30200  0.25220  Biso   1.000  N
  N17      1.0000 0.10820  0.53920  0.41000  Biso   1.000  N
  N18      1.0000 0.89180  0.03920  0.09000  Biso   1.000  N
  N19      1.0000 0.89180  0.46080  0.59000  Biso   1.000  N
  N20      1.0000 0.10820  0.96080  0.91000  Biso   1.000  N
  N21      1.0000 0.05670  0.98580  0.35780  Biso   1.000  N
  N22      1.0000 0.94330  0.48580  0.14220  Biso   1.000  N
  N23      1.0000 0.94330  0.01420  0.64220  Biso   1.000  N
  N24      1.0000 0.05670  0.51420  0.85780  Biso   1.000  N
  N25      1.0000 0.34230  0.31680  0.41090  Biso   1.000  N
  N26      1.0000 0.65770  0.81680  0.08910  Biso   1.000  N
  N27      1.0000 0.65770  0.68320  0.58910  Biso   1.000  N
  N28      1.0000 0.34230  0.18320  0.91090  Biso   1.000  N
  N29      1.0000 0.41680  0.23800  0.48600  Biso   1.000  N
  N30      1.0000 0.58320  0.73800  0.01400  Biso   1.000  N
  N31      1.0000 0.58320  0.76200  0.51400  Biso   1.000  N
  N32      1.0000 0.41680  0.26200  0.98600  Biso   1.000  N
  N33      1.0000 0.49290  0.18670  0.41770  Biso   1.000  N
  N34      1.0000 0.50710  0.68670  0.08230  Biso   1.000  N
  N35      1.0000 0.50710  0.81330  0.58230  Biso   1.000  N
  N36      1.0000 0.49290  0.31330  0.91770  Biso   1.000  N
  N37      1.0000 0.41810  0.23120  0.80740  Biso   1.000  N
  N38      1.0000 0.58190  0.73120  0.69260  Biso   1.000  N
  N39      1.0000 0.58190  0.76880  0.19260  Biso   1.000  N
  N40      1.0000 0.41810  0.26880  0.30740  Biso   1.000  N
  N41      1.0000 0.44530  0.55530  0.38360  Biso   1.000  N
  N42      1.0000 0.55470  0.05530  0.11640  Biso   1.000  N
  N43      1.0000 0.55470  0.44470  0.61640  Biso   1.000  N
  N44      1.0000 0.44530  0.94470  0.88360  Biso   1.000  N
  N45      1.0000 0.38910  0.97230  0.34740  Biso   1.000  N
  N46      1.0000 0.61090  0.47230  0.15260  Biso   1.000  N
  N47      1.0000 0.61090  0.02770  0.65260  Biso   1.000  N
  N48      1.0000 0.38910  0.52770  0.84740  Biso   1.000  N
  N49      1.0000 0.67950  0.34030  0.39140  Biso   1.000  N
  N50      1.0000 0.32050  0.84030  0.10860  Biso   1.000  N
  N51      1.0000 0.32050  0.65970  0.60860  Biso   1.000  N
  N52      1.0000 0.67950  0.15970  0.89140  Biso   1.000  N
  N53      1.0000 0.75360  0.26840  0.46880  Biso   1.000  N
  N54      1.0000 0.24640  0.76840  0.03120  Biso   1.000  N
  N55      1.0000 0.24640  0.73160  0.53120  Biso   1.000  N
  N56      1.0000 0.75360  0.23160  0.96880  Biso   1.000  N
  N57      1.0000 0.82860  0.20260  0.40080  Biso   1.000  N
  N58      1.0000 0.17140  0.70260  0.09920  Biso   1.000  N
  N59      1.0000 0.17140  0.79740  0.59920  Biso   1.000  N
  N60      1.0000 0.82860  0.29740  0.90080  Biso   1.000  N
  N61      1.0000 0.75190  0.23610  0.79070  Biso   1.000  N
  N62      1.0000 0.24810  0.73610  0.70930  Biso   1.000  N
  N63      1.0000 0.24810  0.76390  0.20930  Biso   1.000  N
  N64      1.0000 0.75190  0.26390  0.29070  Biso   1.000  N
  N65      1.0000 0.77450  0.57080  0.35390  Biso   1.000  N
  N66      1.0000 0.22550  0.07080  0.14610  Biso   1.000  N
  N67      1.0000 0.22550  0.42920  0.64610  Biso   1.000  N
  N68      1.0000 0.77450  0.92920  0.85390  Biso   1.000  N
  N69      1.0000 0.73130  0.98320  0.41570  Biso   1.000  N
  N70      1.0000 0.26870  0.48320  0.08430  Biso   1.000  N
  N71      1.0000 0.26870  0.01680  0.58430  Biso   1.000  N
  N72      1.0000 0.73130  0.51680  0.91570  Biso   1.000  N
  C1       1.0000 0.97330  0.41890  0.31770  Biso   1.000  C
  C2       1.0000 0.02670  0.91890  0.18230  Biso   1.000  C
  C3       1.0000 0.02670  0.58110  0.68230  Biso   1.000  C
  C4       1.0000 0.97330  0.08110  0.81770  Biso   1.000  C
  C5       1.0000 0.92540  0.46720  0.33450  Biso   1.000  C
  C6       1.0000 0.07460  0.96720  0.16550  Biso   1.000  C
  C7       1.0000 0.07460  0.53280  0.66550  Biso   1.000  C
  C8       1.0000 0.92540  0.03280  0.83450  Biso   1.000  C
  C9       1.0000 0.91280  0.46350  0.39580  Biso   1.000  C
  C10      1.0000 0.08720  0.96350  0.10420  Biso   1.000  C
  C11      1.0000 0.08720  0.53650  0.60420  Biso   1.000  C
  C12      1.0000 0.91280  0.03650  0.89580  Biso   1.000  C
  C13      1.0000 0.94880  0.40860  0.43800  Biso   1.000  C
  C14      1.0000 0.05120  0.90860  0.06200  Biso   1.000  C
  C15      1.0000 0.05120  0.59140  0.56200  Biso   1.000  C
  C16      1.0000 0.94880  0.09140  0.93800  Biso   1.000  C
  C17      1.0000 0.99570  0.35810  0.41810  Biso   1.000  C
  C18      1.0000 0.00430  0.85810  0.08190  Biso   1.000  C
  C19      1.0000 0.00430  0.64190  0.58190  Biso   1.000  C
  C20      1.0000 0.99570  0.14190  0.91810  Biso   1.000  C
  C21      1.0000 0.03530  0.29580  0.45910  Biso   1.000  C
  C22      1.0000 0.96470  0.79580  0.04090  Biso   1.000  C
  C23      1.0000 0.96470  0.70420  0.54090  Biso   1.000  C
  C24      1.0000 0.03530  0.20420  0.95910  Biso   1.000  C
  C25      1.0000 0.03340  0.27770  0.52160  Biso   1.000  C
  C26      1.0000 0.96660  0.77770  0.97840  Biso   1.000  C
  C27      1.0000 0.96660  0.72230  0.47840  Biso   1.000  C
  C28      1.0000 0.03340  0.22230  0.02160  Biso   1.000  C
  C29      1.0000 0.07680  0.22220  0.55450  Biso   1.000  C
  C30      1.0000 0.92320  0.72220  0.94550  Biso   1.000  C
  C31      1.0000 0.92320  0.77780  0.44550  Biso   1.000  C
  C32      1.0000 0.07680  0.27780  0.05450  Biso   1.000  C
  C33      1.0000 0.12060  0.18450  0.52190  Biso   1.000  C
  C34      1.0000 0.87940  0.68450  0.97810  Biso   1.000  C
  C35      1.0000 0.87940  0.81550  0.47810  Biso   1.000  C
  C36      1.0000 0.12060  0.31550  0.02190  Biso   1.000  C
  C37      1.0000 0.11900  0.20400  0.45990  Biso   1.000  C
  C38      1.0000 0.88100  0.70400  0.04010  Biso   1.000  C
  C39      1.0000 0.88100  0.79600  0.54010  Biso   1.000  C
  C40      1.0000 0.11900  0.29600  0.95990  Biso   1.000  C
  C41      1.0000 0.16110  0.16590  0.41820  Biso   1.000  C
  C42      1.0000 0.83890  0.66590  0.08180  Biso   1.000  C
  C43      1.0000 0.83890  0.83410  0.58180  Biso   1.000  C
  C44      1.0000 0.16110  0.33410  0.91820  Biso   1.000  C
  C45      1.0000 0.20770  0.10650  0.43770  Biso   1.000  C
  C46      1.0000 0.79230  0.60650  0.06230  Biso   1.000  C
  C47      1.0000 0.79230  0.89350  0.56230  Biso   1.000  C
  C48      1.0000 0.20770  0.39350  0.93770  Biso   1.000  C
  C49      1.0000 0.24500  0.07600  0.39620  Biso   1.000  C
  C50      1.0000 0.75500  0.57600  0.10380  Biso   1.000  C
  C51      1.0000 0.75500  0.92400  0.60380  Biso   1.000  C
  C52      1.0000 0.24500  0.42400  0.89620  Biso   1.000  C
  C53      1.0000 0.23270  0.10450  0.33450  Biso   1.000  C
  C54      1.0000 0.76730  0.60450  0.16550  Biso   1.000  C
  C55      1.0000 0.76730  0.89550  0.66550  Biso   1.000  C
  C56      1.0000 0.23270  0.39550  0.83450  Biso   1.000  C
  C57      1.0000 0.18590  0.16100  0.31760  Biso   1.000  C
  C58      1.0000 0.81410  0.66100  0.18240  Biso   1.000  C
  C59      1.0000 0.81410  0.83900  0.68240  Biso   1.000  C
  C60      1.0000 0.18590  0.33900  0.81760  Biso   1.000  C
  C61      1.0000 0.07610  0.20870  0.62290  Biso   1.000  C
  C62      1.0000 0.92390  0.70870  0.87710  Biso   1.000  C
  C63      1.0000 0.92390  0.79130  0.37710  Biso   1.000  C
  C64      1.0000 0.07610  0.29130  0.12290  Biso   1.000  C
  C65      1.0000 0.03370  0.25090  0.65530  Biso   1.000  C
  C66      1.0000 0.96630  0.75090  0.84470  Biso   1.000  C
  C67      1.0000 0.96630  0.74910  0.34470  Biso   1.000  C
  C68      1.0000 0.03370  0.24910  0.15530  Biso   1.000  C
  C69      1.0000 0.03520  0.24630  0.71900  Biso   1.000  C
  C70      1.0000 0.96480  0.74630  0.78100  Biso   1.000  C
  C71      1.0000 0.96480  0.75370  0.28100  Biso   1.000  C
  C72      1.0000 0.03520  0.25370  0.21900  Biso   1.000  C
  C73      1.0000 0.11750  0.15240  0.72160  Biso   1.000  C
  C74      1.0000 0.88250  0.65240  0.77840  Biso   1.000  C
  C75      1.0000 0.88250  0.84760  0.27840  Biso   1.000  C
  C76      1.0000 0.11750  0.34760  0.22160  Biso   1.000  C
  C77      1.0000 0.11880  0.15770  0.65770  Biso   1.000  C
  C78      1.0000 0.88120  0.65770  0.84230  Biso   1.000  C
  C79      1.0000 0.88120  0.84230  0.34230  Biso   1.000  C
  C80      1.0000 0.11880  0.34230  0.15770  Biso   1.000  C
  C81      1.0000 0.30610  0.36450  0.36940  Biso   1.000  C
  C82      1.0000 0.69390  0.86450  0.13060  Biso   1.000  C
  C83      1.0000 0.69390  0.63550  0.63060  Biso   1.000  C
  C84      1.0000 0.30610  0.13550  0.86940  Biso   1.000  C
  C85      1.0000 0.25640  0.40770  0.38530  Biso   1.000  C
  C86      1.0000 0.74360  0.90770  0.11470  Biso   1.000  C
  C87      1.0000 0.74360  0.59230  0.61470  Biso   1.000  C
  C88      1.0000 0.25640  0.09230  0.88530  Biso   1.000  C
  C89      1.0000 0.24420  0.40340  0.44570  Biso   1.000  C
  C90      1.0000 0.75580  0.90340  0.05430  Biso   1.000  C
  C91      1.0000 0.75580  0.59660  0.55430  Biso   1.000  C
  C92      1.0000 0.24420  0.09660  0.94570  Biso   1.000  C
  C93      1.0000 0.28080  0.35750  0.48960  Biso   1.000  C
  C94      1.0000 0.71920  0.85750  0.01040  Biso   1.000  C
  C95      1.0000 0.71920  0.64250  0.51040  Biso   1.000  C
  C96      1.0000 0.28080  0.14250  0.98960  Biso   1.000  C
  C97      1.0000 0.32920  0.31400  0.47020  Biso   1.000  C
  C98      1.0000 0.67080  0.81400  0.02980  Biso   1.000  C
  C99      1.0000 0.67080  0.68600  0.52980  Biso   1.000  C
  C100     1.0000 0.32920  0.18600  0.97020  Biso   1.000  C
  C101     1.0000 0.37230  0.26650  0.51450  Biso   1.000  C
  C102     1.0000 0.62770  0.76650  0.98550  Biso   1.000  C
  C103     1.0000 0.62770  0.73350  0.48550  Biso   1.000  C
  C104     1.0000 0.37230  0.23350  0.01450  Biso   1.000  C
  C105     1.0000 0.36980  0.25640  0.57730  Biso   1.000  C
  C106     1.0000 0.63020  0.75640  0.92270  Biso   1.000  C
  C107     1.0000 0.63020  0.74360  0.42270  Biso   1.000  C
  C108     1.0000 0.36980  0.24360  0.07730  Biso   1.000  C
  C109     1.0000 0.41650  0.22300  0.61270  Biso   1.000  C
  C110     1.0000 0.58350  0.72300  0.88730  Biso   1.000  C
  C111     1.0000 0.58350  0.77700  0.38730  Biso   1.000  C
  C112     1.0000 0.41650  0.27700  0.11270  Biso   1.000  C
  C113     1.0000 0.46190  0.19400  0.58210  Biso   1.000  C
  C114     1.0000 0.53810  0.69400  0.91790  Biso   1.000  C
  C115     1.0000 0.53810  0.80600  0.41790  Biso   1.000  C
  C116     1.0000 0.46190  0.30600  0.08210  Biso   1.000  C
  C117     1.0000 0.46060  0.20040  0.51850  Biso   1.000  C
  C118     1.0000 0.53940  0.70040  0.98150  Biso   1.000  C
  C119     1.0000 0.53940  0.79960  0.48150  Biso   1.000  C
  C120     1.0000 0.46060  0.29960  0.01850  Biso   1.000  C
  C121     1.0000 0.50510  0.17050  0.47880  Biso   1.000  C
  C122     1.0000 0.49490  0.67050  0.02120  Biso   1.000  C
  C123     1.0000 0.49490  0.82950  0.52120  Biso   1.000  C
  C124     1.0000 0.50510  0.32950  0.97880  Biso   1.000  C
  C125     1.0000 0.55240  0.12180  0.50120  Biso   1.000  C
  C126     1.0000 0.44760  0.62180  0.99880  Biso   1.000  C
  C127     1.0000 0.44760  0.87820  0.49880  Biso   1.000  C
  C128     1.0000 0.55240  0.37820  0.00120  Biso   1.000  C
  C129     1.0000 0.59090  0.09340  0.46010  Biso   1.000  C
  C130     1.0000 0.40910  0.59340  0.03990  Biso   1.000  C
  C131     1.0000 0.40910  0.90660  0.53990  Biso   1.000  C
  C132     1.0000 0.59090  0.40660  0.96010  Biso   1.000  C
  C133     1.0000 0.57920  0.11150  0.39800  Biso   1.000  C
  C134     1.0000 0.42080  0.61150  0.10200  Biso   1.000  C
  C135     1.0000 0.42080  0.88850  0.60200  Biso   1.000  C
  C136     1.0000 0.57920  0.38850  0.89800  Biso   1.000  C
  C137     1.0000 0.52960  0.15760  0.37870  Biso   1.000  C
  C138     1.0000 0.47040  0.65760  0.12130  Biso   1.000  C
  C139     1.0000 0.47040  0.84240  0.62130  Biso   1.000  C
  C140     1.0000 0.52960  0.34240  0.87870  Biso   1.000  C
  C141     1.0000 0.41720  0.22030  0.67810  Biso   1.000  C
  C142     1.0000 0.58280  0.72030  0.82190  Biso   1.000  C
  C143     1.0000 0.58280  0.77970  0.32190  Biso   1.000  C
  C144     1.0000 0.41720  0.27970  0.17810  Biso   1.000  C
  C145     1.0000 0.37810  0.28670  0.70970  Biso   1.000  C
  C146     1.0000 0.62190  0.78670  0.79030  Biso   1.000  C
  C147     1.0000 0.62190  0.71330  0.29030  Biso   1.000  C
  C148     1.0000 0.37810  0.21330  0.20970  Biso   1.000  C
  C149     1.0000 0.37900  0.29020  0.77410  Biso   1.000  C
  C150     1.0000 0.62100  0.79020  0.72590  Biso   1.000  C
  C151     1.0000 0.62100  0.70980  0.22590  Biso   1.000  C
  C152     1.0000 0.37900  0.20980  0.27410  Biso   1.000  C
  C153     1.0000 0.45390  0.16440  0.77950  Biso   1.000  C
  C154     1.0000 0.54610  0.66440  0.72050  Biso   1.000  C
  C155     1.0000 0.54610  0.83560  0.22050  Biso   1.000  C
  C156     1.0000 0.45390  0.33560  0.27950  Biso   1.000  C
  C157     1.0000 0.45460  0.15870  0.71620  Biso   1.000  C
  C158     1.0000 0.54540  0.65870  0.78380  Biso   1.000  C
  C159     1.0000 0.54540  0.84130  0.28380  Biso   1.000  C
  C160     1.0000 0.45460  0.34130  0.21620  Biso   1.000  C
  C161     1.0000 0.64400  0.38470  0.34830  Biso   1.000  C
  C162     1.0000 0.35600  0.88470  0.15170  Biso   1.000  C
  C163     1.0000 0.35600  0.61530  0.65170  Biso   1.000  C
  C164     1.0000 0.64400  0.11530  0.84830  Biso   1.000  C
  C165     1.0000 0.59600  0.43690  0.36230  Biso   1.000  C
  C166     1.0000 0.40400  0.93690  0.13770  Biso   1.000  C
  C167     1.0000 0.40400  0.56310  0.63770  Biso   1.000  C
  C168     1.0000 0.59600  0.06310  0.86230  Biso   1.000  C
  C169     1.0000 0.58400  0.44490  0.42380  Biso   1.000  C
  C170     1.0000 0.41600  0.94490  0.07620  Biso   1.000  C
  C171     1.0000 0.41600  0.55510  0.57620  Biso   1.000  C
  C172     1.0000 0.58400  0.05510  0.92380  Biso   1.000  C
  C173     1.0000 0.62020  0.40170  0.46950  Biso   1.000  C
  C174     1.0000 0.37980  0.90170  0.03050  Biso   1.000  C
  C175     1.0000 0.37980  0.59830  0.53050  Biso   1.000  C
  C176     1.0000 0.62020  0.09830  0.96950  Biso   1.000  C
  C177     1.0000 0.66720  0.35050  0.45180  Biso   1.000  C
  C178     1.0000 0.33280  0.85050  0.04820  Biso   1.000  C
  C179     1.0000 0.33280  0.64950  0.54820  Biso   1.000  C
  C180     1.0000 0.66720  0.14950  0.95180  Biso   1.000  C
  C181     1.0000 0.70950  0.30320  0.49550  Biso   1.000  C
  C182     1.0000 0.29050  0.80320  0.00450  Biso   1.000  C
  C183     1.0000 0.29050  0.69680  0.50450  Biso   1.000  C
  C184     1.0000 0.70950  0.19680  0.99550  Biso   1.000  C
  C185     1.0000 0.70760  0.29770  0.55880  Biso   1.000  C
  C186     1.0000 0.29240  0.79770  0.94120  Biso   1.000  C
  C187     1.0000 0.29240  0.70230  0.44120  Biso   1.000  C
  C188     1.0000 0.70760  0.20230  0.05880  Biso   1.000  C
  C189     1.0000 0.75330  0.25950  0.59470  Biso   1.000  C
  C190     1.0000 0.24670  0.75950  0.90530  Biso   1.000  C
  C191     1.0000 0.24670  0.74050  0.40530  Biso   1.000  C
  C192     1.0000 0.75330  0.24050  0.09470  Biso   1.000  C
  C193     1.0000 0.79860  0.22440  0.56550  Biso   1.000  C
  C194     1.0000 0.20140  0.72440  0.93450  Biso   1.000  C
  C195     1.0000 0.20140  0.77560  0.43450  Biso   1.000  C
  C196     1.0000 0.79860  0.27560  0.06550  Biso   1.000  C
  C197     1.0000 0.79720  0.23070  0.50180  Biso   1.000  C
  C198     1.0000 0.20280  0.73070  0.99820  Biso   1.000  C
  C199     1.0000 0.20280  0.76930  0.49820  Biso   1.000  C
  C200     1.0000 0.79720  0.26930  0.00180  Biso   1.000  C
  C201     1.0000 0.83990  0.18970  0.46260  Biso   1.000  C
  C202     1.0000 0.16010  0.68970  0.03740  Biso   1.000  C
  C203     1.0000 0.16010  0.81030  0.53740  Biso   1.000  C
  C204     1.0000 0.83990  0.31030  0.96260  Biso   1.000  C
  C205     1.0000 0.88790  0.14140  0.48620  Biso   1.000  C
  C206     1.0000 0.11210  0.64140  0.01380  Biso   1.000  C
  C207     1.0000 0.11210  0.85860  0.51380  Biso   1.000  C
  C208     1.0000 0.88790  0.35860  0.98620  Biso   1.000  C
  C209     1.0000 0.92590  0.10440  0.44500  Biso   1.000  C
  C210     1.0000 0.07410  0.60440  0.05500  Biso   1.000  C
  C211     1.0000 0.07410  0.89560  0.55500  Biso   1.000  C
  C212     1.0000 0.92590  0.39560  0.94500  Biso   1.000  C
  C213     1.0000 0.91440  0.11890  0.38260  Biso   1.000  C
  C214     1.0000 0.08560  0.61890  0.11740  Biso   1.000  C
  C215     1.0000 0.08560  0.88110  0.61740  Biso   1.000  C
  C216     1.0000 0.91440  0.38110  0.88260  Biso   1.000  C
  C217     1.0000 0.86520  0.16660  0.36260  Biso   1.000  C
  C218     1.0000 0.13480  0.66660  0.13740  Biso   1.000  C
  C219     1.0000 0.13480  0.83340  0.63740  Biso   1.000  C
  C220     1.0000 0.86520  0.33340  0.86260  Biso   1.000  C
  C221     1.0000 0.75200  0.25150  0.66300  Biso   1.000  C
  C222     1.0000 0.24800  0.75150  0.83700  Biso   1.000  C
  C223     1.0000 0.24800  0.74850  0.33700  Biso   1.000  C
  C224     1.0000 0.75200  0.24850  0.16300  Biso   1.000  C
  C225     1.0000 0.71370  0.31150  0.69480  Biso   1.000  C
  C226     1.0000 0.28630  0.81150  0.80520  Biso   1.000  C
  C227     1.0000 0.28630  0.68850  0.30520  Biso   1.000  C
  C228     1.0000 0.71370  0.18850  0.19480  Biso   1.000  C
  C229     1.0000 0.71420  0.30200  0.75770  Biso   1.000  C
  C230     1.0000 0.28580  0.80200  0.74230  Biso   1.000  C
  C231     1.0000 0.28580  0.69800  0.24230  Biso   1.000  C
  C232     1.0000 0.71420  0.19800  0.25770  Biso   1.000  C
  C233     1.0000 0.78840  0.17590  0.75980  Biso   1.000  C
  C234     1.0000 0.21160  0.67590  0.74020  Biso   1.000  C
  C235     1.0000 0.21160  0.82410  0.24020  Biso   1.000  C
  C236     1.0000 0.78840  0.32410  0.25980  Biso   1.000  C
  C237     1.0000 0.79020  0.18280  0.69700  Biso   1.000  C
  C238     1.0000 0.20980  0.68280  0.80300  Biso   1.000  C
  C239     1.0000 0.20980  0.81720  0.30300  Biso   1.000  C
  C240     1.0000 0.79020  0.31720  0.19700  Biso   1.000  C
  O1       1.0000 0.12140  0.48620  0.36040  Biso   1.000  O
  O2       1.0000 0.87860  0.98620  0.13960  Biso   1.000  O
  O3       1.0000 0.87860  0.51380  0.63960  Biso   1.000  O
  O4       1.0000 0.12140  0.01380  0.86040  Biso   1.000  O
  O5       1.0000 0.12760  0.50230  0.46070  Biso   1.000  O
  O6       1.0000 0.87240  0.00230  0.03930  Biso   1.000  O
  O7       1.0000 0.87240  0.49770  0.53930  Biso   1.000  O
  O8       1.0000 0.12760  0.99770  0.96070  Biso   1.000  O
  O9       1.0000 0.07660  0.62740  0.40720  Biso   1.000  O
  O10      1.0000 0.92340  0.12740  0.09280  Biso   1.000  O
  O11      1.0000 0.92340  0.37260  0.59280  Biso   1.000  O
  O12      1.0000 0.07660  0.87260  0.90720  Biso   1.000  O
  O13      1.0000 0.04020  0.06790  0.31990  Biso   1.000  O
  O14      1.0000 0.95980  0.56790  0.18010  Biso   1.000  O
  O15      1.0000 0.95980  0.93210  0.68010  Biso   1.000  O
  O16      1.0000 0.04020  0.43210  0.81990  Biso   1.000  O
  O17      1.0000 0.09250  0.91220  0.34500  Biso   1.000  O
  O18      1.0000 0.90750  0.41220  0.15500  Biso   1.000  O
  O19      1.0000 0.90750  0.08780  0.65500  Biso   1.000  O
  O20      1.0000 0.09250  0.58780  0.84500  Biso   1.000  O
  O21      1.0000 0.03740  0.98040  0.40930  Biso   1.000  O
  O22      1.0000 0.96260  0.48040  0.09070  Biso   1.000  O
  O23      1.0000 0.96260  0.01960  0.59070  Biso   1.000  O
  O24      1.0000 0.03740  0.51960  0.90930  Biso   1.000  O
  O25      1.0000 0.45150  0.46520  0.41850  Biso   1.000  O
  O26      1.0000 0.54850  0.96520  0.08150  Biso   1.000  O
  O27      1.0000 0.54850  0.53480  0.58150  Biso   1.000  O
  O28      1.0000 0.45150  0.03480  0.91850  Biso   1.000  O
  O29      1.0000 0.40390  0.61890  0.38440  Biso   1.000  O
  O30      1.0000 0.59610  0.11890  0.11560  Biso   1.000  O
  O31      1.0000 0.59610  0.38110  0.61560  Biso   1.000  O
  O32      1.0000 0.40390  0.88110  0.88440  Biso   1.000  O
  O33      1.0000 0.48000  0.58490  0.34740  Biso   1.000  O
  O34      1.0000 0.52000  0.08490  0.15260  Biso   1.000  O
  O35      1.0000 0.52000  0.41510  0.65260  Biso   1.000  O
  O36      1.0000 0.48000  0.91510  0.84740  Biso   1.000  O
  O37      1.0000 0.37730  0.04510  0.38960  Biso   1.000  O
  O38      1.0000 0.62270  0.54510  0.11040  Biso   1.000  O
  O39      1.0000 0.62270  0.95490  0.61040  Biso   1.000  O
  O40      1.0000 0.37730  0.45490  0.88960  Biso   1.000  O
  O41      1.0000 0.35350  0.92990  0.31250  Biso   1.000  O
  O42      1.0000 0.64650  0.42990  0.18750  Biso   1.000  O
  O43      1.0000 0.64650  0.07010  0.68750  Biso   1.000  O
  O44      1.0000 0.35350  0.57010  0.81250  Biso   1.000  O
  O45      1.0000 0.43640  0.94730  0.34110  Biso   1.000  O
  O46      1.0000 0.56360  0.44730  0.15890  Biso   1.000  O
  O47      1.0000 0.56360  0.05270  0.65890  Biso   1.000  O
  O48      1.0000 0.43640  0.55270  0.84110  Biso   1.000  O
  O49      1.0000 0.78310  0.48490  0.39180  Biso   1.000  O
  O50      1.0000 0.21690  0.98490  0.10820  Biso   1.000  O
  O51      1.0000 0.21690  0.51510  0.60820  Biso   1.000  O
  O52      1.0000 0.78310  0.01510  0.89180  Biso   1.000  O
  O53      1.0000 0.73070  0.62160  0.35120  Biso   1.000  O
  O54      1.0000 0.26930  0.12160  0.14880  Biso   1.000  O
  O55      1.0000 0.26930  0.37840  0.64880  Biso   1.000  O
  O56      1.0000 0.73070  0.87840  0.85120  Biso   1.000  O
  O57      1.0000 0.81000  0.60570  0.32170  Biso   1.000  O
  O58      1.0000 0.19000  0.10570  0.17830  Biso   1.000  O
  O59      1.0000 0.19000  0.39430  0.67830  Biso   1.000  O
  O60      1.0000 0.81000  0.89430  0.82170  Biso   1.000  O
  O61      1.0000 0.71940  0.05180  0.37050  Biso   1.000  O
  O62      1.0000 0.28060  0.55180  0.12950  Biso   1.000  O
  O63      1.0000 0.28060  0.94820  0.62950  Biso   1.000  O
  O64      1.0000 0.71940  0.44820  0.87050  Biso   1.000  O
  O65      1.0000 0.76400  0.89850  0.41110  Biso   1.000  O
  O66      1.0000 0.23600  0.39850  0.08890  Biso   1.000  O
  O67      1.0000 0.23600  0.10150  0.58890  Biso   1.000  O
  O68      1.0000 0.76400  0.60150  0.91110  Biso   1.000  O
  O69      1.0000 0.71010  0.99950  0.46430  Biso   1.000  O
  O70      1.0000 0.28990  0.49950  0.03570  Biso   1.000  O
  O71      1.0000 0.28990  0.00050  0.53570  Biso   1.000  O
  O72      1.0000 0.71010  0.50050  0.96430  Biso   1.000  O
  O73      1.0000 0.09020  0.68340  0.27030  Biso   1.000  O
  O74      1.0000 0.90980  0.18340  0.22970  Biso   1.000  O
  O75      1.0000 0.90980  0.31660  0.72970  Biso   1.000  O
  O76      1.0000 0.09020  0.81660  0.77030  Biso   1.000  O
  O77      1.0000 0.41990  0.71830  0.25060  Biso   1.000  O
  O78      1.0000 0.58010  0.21830  0.24940  Biso   1.000  O
  O79      1.0000 0.58010  0.28170  0.74940  Biso   1.000  O
  O80      1.0000 0.41990  0.78170  0.75060  Biso   1.000  O
  O81      1.0000 0.74710  0.86570  0.27050  Biso   1.000  O
  O82      1.0000 0.25290  0.36570  0.22950  Biso   1.000  O
  O83      1.0000 0.25290  0.13430  0.72950  Biso   1.000  O
  O84      1.0000 0.74710  0.63430  0.77050  Biso   1.000  O
  H1       1.0000 0.09860  0.62670  0.29370  Biso   1.000  H
  H2       1.0000 0.90140  0.12670  0.20630  Biso   1.000  H
  H3       1.0000 0.90140  0.37330  0.70630  Biso   1.000  H
  H4       1.0000 0.09860  0.87330  0.79370  Biso   1.000  H
  H5       1.0000 0.09040  0.74860  0.28940  Biso   1.000  H
  H6       1.0000 0.90960  0.24860  0.21060  Biso   1.000  H
  H7       1.0000 0.90960  0.25140  0.71060  Biso   1.000  H
  H8       1.0000 0.09040  0.75140  0.78940  Biso   1.000  H
  H9       1.0000 0.43590  0.66760  0.27260  Biso   1.000  H
  H10      1.0000 0.56410  0.16760  0.22740  Biso   1.000  H
  H11      1.0000 0.56410  0.33240  0.72740  Biso   1.000  H
  H12      1.0000 0.43590  0.83240  0.77260  Biso   1.000  H
  H13      1.0000 0.42040  0.78560  0.26780  Biso   1.000  H
  H14      1.0000 0.57960  0.28560  0.23220  Biso   1.000  H
  H15      1.0000 0.57960  0.21440  0.73220  Biso   1.000  H
  H16      1.0000 0.42040  0.71440  0.76780  Biso   1.000  H
  H17      1.0000 0.74380  0.79800  0.28780  Biso   1.000  H
  H18      1.0000 0.25620  0.29800  0.21220  Biso   1.000  H
  H19      1.0000 0.25620  0.20200  0.71220  Biso   1.000  H
  H20      1.0000 0.74380  0.70200  0.78780  Biso   1.000  H
  H21      1.0000 0.74020  0.92220  0.29450  Biso   1.000  H
  H22      1.0000 0.25980  0.42220  0.20550  Biso   1.000  H
  H23      1.0000 0.25980  0.07780  0.70550  Biso   1.000  H
  H24      1.0000 0.74020  0.57780  0.79450  Biso   1.000  H
  H25      1.0000 0.98270  0.42680  0.27630  Biso   1.000  H
  H26      1.0000 0.01730  0.92680  0.22370  Biso   1.000  H
  H27      1.0000 0.01730  0.57320  0.72370  Biso   1.000  H
  H28      1.0000 0.98270  0.07320  0.77630  Biso   1.000  H
  H29      1.0000 0.90100  0.50230  0.30450  Biso   1.000  H
  H30      1.0000 0.09900  0.00230  0.19550  Biso   1.000  H
  H31      1.0000 0.09900  0.49770  0.69550  Biso   1.000  H
  H32      1.0000 0.90100  0.99770  0.80450  Biso   1.000  H
  H33      1.0000 0.88010  0.49580  0.40820  Biso   1.000  H
  H34      1.0000 0.11990  0.99580  0.09180  Biso   1.000  H
  H35      1.0000 0.11990  0.50420  0.59180  Biso   1.000  H
  H36      1.0000 0.88010  0.00420  0.90820  Biso   1.000  H
  H37      1.0000 0.94210  0.40710  0.48040  Biso   1.000  H
  H38      1.0000 0.05790  0.90710  0.01960  Biso   1.000  H
  H39      1.0000 0.05790  0.59290  0.51960  Biso   1.000  H
  H40      1.0000 0.94210  0.09290  0.98040  Biso   1.000  H
  H41      1.0000 0.00270  0.30220  0.54180  Biso   1.000  H
  H42      1.0000 0.99730  0.80220  0.95820  Biso   1.000  H
  H43      1.0000 0.99730  0.69780  0.45820  Biso   1.000  H
  H44      1.0000 0.00270  0.19780  0.04180  Biso   1.000  H
  H45      1.0000 0.15070  0.14650  0.54230  Biso   1.000  H
  H46      1.0000 0.84930  0.64650  0.95770  Biso   1.000  H
  H47      1.0000 0.84930  0.85350  0.45770  Biso   1.000  H
  H48      1.0000 0.15070  0.35350  0.04230  Biso   1.000  H
  H49      1.0000 0.21370  0.08580  0.47980  Biso   1.000  H
  H50      1.0000 0.78630  0.58580  0.02020  Biso   1.000  H
  H51      1.0000 0.78630  0.91420  0.52020  Biso   1.000  H
  H52      1.0000 0.21370  0.41420  0.97980  Biso   1.000  H
  H53      1.0000 0.27780  0.03820  0.40890  Biso   1.000  H
  H54      1.0000 0.72220  0.53820  0.09110  Biso   1.000  H
  H55      1.0000 0.72220  0.96180  0.59110  Biso   1.000  H
  H56      1.0000 0.27780  0.46180  0.90890  Biso   1.000  H
  H57      1.0000 0.25660  0.08370  0.30410  Biso   1.000  H
  H58      1.0000 0.74340  0.58370  0.19590  Biso   1.000  H
  H59      1.0000 0.74340  0.91630  0.69590  Biso   1.000  H
  H60      1.0000 0.25660  0.41630  0.80410  Biso   1.000  H
  H61      1.0000 0.17790  0.18050  0.27570  Biso   1.000  H
  H62      1.0000 0.82210  0.68050  0.22430  Biso   1.000  H
  H63      1.0000 0.82210  0.81950  0.72430  Biso   1.000  H
  H64      1.0000 0.17790  0.31950  0.77570  Biso   1.000  H
  H65      1.0000 0.00340  0.28490  0.63320  Biso   1.000  H
  H66      1.0000 0.99660  0.78490  0.86680  Biso   1.000  H
  H67      1.0000 0.99660  0.71510  0.36680  Biso   1.000  H
  H68      1.0000 0.00340  0.21510  0.13320  Biso   1.000  H
  H69      1.0000 0.00610  0.27840  0.73980  Biso   1.000  H
  H70      1.0000 0.99390  0.77840  0.76020  Biso   1.000  H
  H71      1.0000 0.99390  0.72160  0.26020  Biso   1.000  H
  H72      1.0000 0.00610  0.22160  0.23980  Biso   1.000  H
  H73      1.0000 0.14630  0.11460  0.74440  Biso   1.000  H
  H74      1.0000 0.85370  0.61460  0.75560  Biso   1.000  H
  H75      1.0000 0.85370  0.88540  0.25560  Biso   1.000  H
  H76      1.0000 0.14630  0.38540  0.24440  Biso   1.000  H
  H77      1.0000 0.14870  0.12670  0.63800  Biso   1.000  H
  H78      1.0000 0.85130  0.62670  0.86200  Biso   1.000  H
  H79      1.0000 0.85130  0.87330  0.36200  Biso   1.000  H
  H80      1.0000 0.14870  0.37330  0.13800  Biso   1.000  H
  H81      1.0000 0.31470  0.36640  0.32760  Biso   1.000  H
  H82      1.0000 0.68530  0.86640  0.17240  Biso   1.000  H
  H83      1.0000 0.68530  0.63360  0.67240  Biso   1.000  H
  H84      1.0000 0.31470  0.13360  0.82760  Biso   1.000  H
  H85      1.0000 0.23220  0.44080  0.35450  Biso   1.000  H
  H86      1.0000 0.76780  0.94080  0.14550  Biso   1.000  H
  H87      1.0000 0.76780  0.55920  0.64550  Biso   1.000  H
  H88      1.0000 0.23220  0.05920  0.85450  Biso   1.000  H
  H89      1.0000 0.21020  0.43090  0.45650  Biso   1.000  H
  H90      1.0000 0.78980  0.93090  0.04350  Biso   1.000  H
  H91      1.0000 0.78980  0.56910  0.54350  Biso   1.000  H
  H92      1.0000 0.21020  0.06910  0.95650  Biso   1.000  H
  H93      1.0000 0.27340  0.35630  0.53180  Biso   1.000  H
  H94      1.0000 0.72660  0.85630  0.96820  Biso   1.000  H
  H95      1.0000 0.72660  0.64370  0.46820  Biso   1.000  H
  H96      1.0000 0.27340  0.14370  0.03180  Biso   1.000  H
  H97      1.0000 0.33730  0.27060  0.59630  Biso   1.000  H
  H98      1.0000 0.66270  0.77060  0.90370  Biso   1.000  H
  H99      1.0000 0.66270  0.72940  0.40370  Biso   1.000  H
  H100     1.0000 0.33730  0.22940  0.09630  Biso   1.000  H
  H101     1.0000 0.49350  0.16900  0.60470  Biso   1.000  H
  H102     1.0000 0.50650  0.66900  0.89530  Biso   1.000  H
  H103     1.0000 0.50650  0.83100  0.39530  Biso   1.000  H
  H104     1.0000 0.49350  0.33100  0.10470  Biso   1.000  H
  H105     1.0000 0.55870  0.10760  0.54400  Biso   1.000  H
  H106     1.0000 0.44130  0.60760  0.95600  Biso   1.000  H
  H107     1.0000 0.44130  0.89240  0.45600  Biso   1.000  H
  H108     1.0000 0.55870  0.39240  0.04400  Biso   1.000  H
  H109     1.0000 0.62450  0.06120  0.47410  Biso   1.000  H
  H110     1.0000 0.37550  0.56120  0.02590  Biso   1.000  H
  H111     1.0000 0.37550  0.93880  0.52590  Biso   1.000  H
  H112     1.0000 0.62450  0.43880  0.97410  Biso   1.000  H
  H113     1.0000 0.60470  0.09190  0.36910  Biso   1.000  H
  H114     1.0000 0.39530  0.59190  0.13090  Biso   1.000  H
  H115     1.0000 0.39530  0.90810  0.63090  Biso   1.000  H
  H116     1.0000 0.60470  0.40810  0.86910  Biso   1.000  H
  H117     1.0000 0.52190  0.17070  0.33610  Biso   1.000  H
  H118     1.0000 0.47810  0.67070  0.16390  Biso   1.000  H
  H119     1.0000 0.47810  0.82930  0.66390  Biso   1.000  H
  H120     1.0000 0.52190  0.32930  0.83610  Biso   1.000  H
  H121     1.0000 0.35040  0.32890  0.68700  Biso   1.000  H
  H122     1.0000 0.64960  0.82890  0.81300  Biso   1.000  H
  H123     1.0000 0.64960  0.67110  0.31300  Biso   1.000  H
  H124     1.0000 0.35040  0.17110  0.18700  Biso   1.000  H
  H125     1.0000 0.35240  0.33350  0.79450  Biso   1.000  H
  H126     1.0000 0.64760  0.83350  0.70550  Biso   1.000  H
  H127     1.0000 0.64760  0.66650  0.20550  Biso   1.000  H
  H128     1.0000 0.35240  0.16650  0.29450  Biso   1.000  H
  H129     1.0000 0.47980  0.11900  0.80360  Biso   1.000  H
  H130     1.0000 0.52020  0.61900  0.69640  Biso   1.000  H
  H131     1.0000 0.52020  0.88100  0.19640  Biso   1.000  H
  H132     1.0000 0.47980  0.38100  0.30360  Biso   1.000  H
  H133     1.0000 0.48160  0.11130  0.69860  Biso   1.000  H
  H134     1.0000 0.51840  0.61130  0.80140  Biso   1.000  H
  H135     1.0000 0.51840  0.88870  0.30140  Biso   1.000  H
  H136     1.0000 0.48160  0.38870  0.19860  Biso   1.000  H
  H137     1.0000 0.65260  0.38100  0.30650  Biso   1.000  H
  H138     1.0000 0.34740  0.88100  0.19350  Biso   1.000  H
  H139     1.0000 0.34740  0.61900  0.69350  Biso   1.000  H
  H140     1.0000 0.65260  0.11900  0.80650  Biso   1.000  H
  H141     1.0000 0.57140  0.46520  0.33080  Biso   1.000  H
  H142     1.0000 0.42860  0.96520  0.16920  Biso   1.000  H
  H143     1.0000 0.42860  0.53480  0.66920  Biso   1.000  H
  H144     1.0000 0.57140  0.03480  0.83080  Biso   1.000  H
  H145     1.0000 0.55120  0.48040  0.43430  Biso   1.000  H
  H146     1.0000 0.44880  0.98040  0.06570  Biso   1.000  H
  H147     1.0000 0.44880  0.51960  0.56570  Biso   1.000  H
  H148     1.0000 0.55120  0.01960  0.93430  Biso   1.000  H
  H149     1.0000 0.61310  0.40820  0.51170  Biso   1.000  H
  H150     1.0000 0.38690  0.90820  0.98830  Biso   1.000  H
  H151     1.0000 0.38690  0.59180  0.48830  Biso   1.000  H
  H152     1.0000 0.61310  0.09180  0.01170  Biso   1.000  H
  H153     1.0000 0.67590  0.31850  0.57790  Biso   1.000  H
  H154     1.0000 0.32410  0.81850  0.92210  Biso   1.000  H
  H155     1.0000 0.32410  0.68150  0.42210  Biso   1.000  H
  H156     1.0000 0.67590  0.18150  0.07790  Biso   1.000  H
  H157     1.0000 0.82940  0.19520  0.58820  Biso   1.000  H
  H158     1.0000 0.17060  0.69520  0.91180  Biso   1.000  H
  H159     1.0000 0.17060  0.80480  0.41180  Biso   1.000  H
  H160     1.0000 0.82940  0.30480  0.08820  Biso   1.000  H
  H161     1.0000 0.89470  0.13300  0.52930  Biso   1.000  H
  H162     1.0000 0.10530  0.63300  0.97070  Biso   1.000  H
  H163     1.0000 0.10530  0.86700  0.47070  Biso   1.000  H
  H164     1.0000 0.89470  0.36700  0.02930  Biso   1.000  H
  H165     1.0000 0.95920  0.07130  0.45950  Biso   1.000  H
  H166     1.0000 0.04080  0.57130  0.04050  Biso   1.000  H
  H167     1.0000 0.04080  0.92870  0.54050  Biso   1.000  H
  H168     1.0000 0.95920  0.42870  0.95950  Biso   1.000  H
  H169     1.0000 0.93960  0.09660  0.35380  Biso   1.000  H
  H170     1.0000 0.06040  0.59660  0.14620  Biso   1.000  H
  H171     1.0000 0.06040  0.90340  0.64620  Biso   1.000  H
  H172     1.0000 0.93960  0.40340  0.85380  Biso   1.000  H
  H173     1.0000 0.85700  0.17300  0.31970  Biso   1.000  H
  H174     1.0000 0.14300  0.67300  0.18030  Biso   1.000  H
  H175     1.0000 0.14300  0.82700  0.68030  Biso   1.000  H
  H176     1.0000 0.85700  0.32700  0.81970  Biso   1.000  H
  H177     1.0000 0.68760  0.36080  0.67320  Biso   1.000  H
  H178     1.0000 0.31240  0.86080  0.82680  Biso   1.000  H
  H179     1.0000 0.31240  0.63920  0.32680  Biso   1.000  H
  H180     1.0000 0.68760  0.13920  0.17320  Biso   1.000  H
  H181     1.0000 0.68740  0.34330  0.77870  Biso   1.000  H
  H182     1.0000 0.31260  0.84330  0.72130  Biso   1.000  H
  H183     1.0000 0.31260  0.65670  0.22130  Biso   1.000  H
  H184     1.0000 0.68740  0.15670  0.27870  Biso   1.000  H
  H185     1.0000 0.81430  0.12640  0.78170  Biso   1.000  H
  H186     1.0000 0.18570  0.62640  0.71830  Biso   1.000  H
  H187     1.0000 0.18570  0.87360  0.21830  Biso   1.000  H
  H188     1.0000 0.81430  0.37360  0.28170  Biso   1.000  H
  H189     1.0000 0.81800  0.14260  0.67720  Biso   1.000  H
  H190     1.0000 0.18200  0.64260  0.82280  Biso   1.000  H
  H191     1.0000 0.18200  0.85740  0.32280  Biso   1.000  H
  H192     1.0000 0.81800  0.35740  0.17720  Biso   1.000  H
