data_image0
_cell_length_a       8.247
_cell_length_b       10.866
_cell_length_c       12.117
_cell_angle_alpha    80.533
_cell_angle_beta     80.839
_cell_angle_gamma    88.072

_symmetry_space_group_name_H-M    "P 1"
_symmetry_int_tables_number       1

loop_
  _symmetry_equiv_pos_as_xyz
  'x, y, z'

loop_
  _atom_site_label
  _atom_site_occupancy
  _atom_site_fract_x
  _atom_site_fract_y
  _atom_site_fract_z
  _atom_site_thermal_displace_type
  _atom_site_B_iso_or_equiv
  _atom_site_type_symbol
  Cu1      1.0000 0.28377  0.52360  0.08514  Biso   1.000  Cu
  Cu2      1.0000 0.71623  0.47640  0.91486  Biso   1.000  Cu
  N1       1.0000 0.06930  0.42510  0.12620  Biso   1.000  N
  N2       1.0000 0.93070  0.57490  0.87380  Biso   1.000  N
  C1       1.0000 0.02550  0.33040  0.21030  Biso   1.000  C
  C2       1.0000 0.97450  0.66960  0.78970  Biso   1.000  C
  H1       1.0000 0.09260  0.30810  0.26740  Biso   1.000  H
  H2       1.0000 0.90740  0.69190  0.73260  Biso   1.000  H
  C3       1.0000 0.88320  0.26430  0.21480  Biso   1.000  C
  C4       1.0000 0.11680  0.73570  0.78520  Biso   1.000  C
  H3       1.0000 0.85300  0.19560  0.27320  Biso   1.000  H
  H4       1.0000 0.14700  0.80440  0.72680  Biso   1.000  H
  C5       1.0000 0.78650  0.30120  0.13210  Biso   1.000  C
  C6       1.0000 0.21350  0.69880  0.86790  Biso   1.000  C
  H5       1.0000 0.68620  0.25940  0.13520  Biso   1.000  H
  H6       1.0000 0.31380  0.74060  0.86480  Biso   1.000  H
  N3       1.0000 0.83240  0.39560  0.04700  Biso   1.000  N
  N4       1.0000 0.16760  0.60440  0.95300  Biso   1.000  N
  C7       1.0000 0.97330  0.45010  0.04780  Biso   1.000  C
  C8       1.0000 0.02670  0.54990  0.95220  Biso   1.000  C
  N5       1.0000 0.25960  0.54340  0.31890  Biso   1.000  N
  N6       1.0000 0.74040  0.45660  0.68110  Biso   1.000  N
  N7       1.0000 0.32920  0.47880  0.23990  Biso   1.000  N
  N8       1.0000 0.67080  0.52120  0.76010  Biso   1.000  N
  N9       1.0000 0.40640  0.37240  0.28030  Biso   1.000  N
  N10      1.0000 0.59360  0.62760  0.71970  Biso   1.000  N
  C9       1.0000 0.38350  0.37220  0.39170  Biso   1.000  C
  C10      1.0000 0.61650  0.62780  0.60830  Biso   1.000  C
  N11      1.0000 0.43390  0.28410  0.47360  Biso   1.000  N
  N12      1.0000 0.56610  0.71590  0.52640  Biso   1.000  N
  C11      1.0000 0.52700  0.17430  0.44530  Biso   1.000  C
  C12      1.0000 0.47300  0.82570  0.55470  Biso   1.000  C
  H7       1.0000 0.54500  0.17730  0.36300  Biso   1.000  H
  H8       1.0000 0.45500  0.82270  0.63700  Biso   1.000  H
  H9       1.0000 0.46550  0.09890  0.48180  Biso   1.000  H
  H10      1.0000 0.53450  0.90110  0.51820  Biso   1.000  H
  H11      1.0000 0.63320  0.17270  0.47210  Biso   1.000  H
  H12      1.0000 0.36680  0.82730  0.52790  Biso   1.000  H
  C13      1.0000 0.39070  0.29640  0.58520  Biso   1.000  C
  C14      1.0000 0.60930  0.70360  0.41480  Biso   1.000  C
  O1       1.0000 0.42370  0.21670  0.66100  Biso   1.000  O
  O2       1.0000 0.57630  0.78330  0.33900  Biso   1.000  O
  N13      1.0000 0.30510  0.40490  0.60860  Biso   1.000  N
  N14      1.0000 0.69490  0.59510  0.39140  Biso   1.000  N
  C15      1.0000 0.26240  0.41260  0.72890  Biso   1.000  C
  C16      1.0000 0.73760  0.58740  0.27110  Biso   1.000  C
  H13      1.0000 0.17650  0.35200  0.76390  Biso   1.000  H
  H14      1.0000 0.82350  0.64800  0.23610  Biso   1.000  H
  H15      1.0000 0.22210  0.49690  0.73780  Biso   1.000  H
  H16      1.0000 0.77790  0.50310  0.26220  Biso   1.000  H
  H17      1.0000 0.35990  0.39430  0.76580  Biso   1.000  H
  H18      1.0000 0.64010  0.60570  0.23420  Biso   1.000  H
  C17      1.0000 0.24730  0.49820  0.53110  Biso   1.000  C
  C18      1.0000 0.75270  0.50180  0.46890  Biso   1.000  C
  O3       1.0000 0.16630  0.58620  0.56320  Biso   1.000  O
  O4       1.0000 0.83370  0.41380  0.43680  Biso   1.000  O
  C19      1.0000 0.29340  0.47610  0.41700  Biso   1.000  C
  C20      1.0000 0.70660  0.52390  0.58300  Biso   1.000  C
  N15      1.0000 0.54280  0.35020  0.95450  Biso   1.000  N
  N16      1.0000 0.45720  0.64980  0.04550  Biso   1.000  N
  N17      1.0000 0.38830  0.36940  0.00010  Biso   1.000  N
  N18      1.0000 0.61170  0.63060  0.99990  Biso   1.000  N
  N19      1.0000 0.29110  0.27470  0.99250  Biso   1.000  N
  N20      1.0000 0.70890  0.72530  0.00750  Biso   1.000  N
  C21      1.0000 0.39150  0.19610  0.93920  Biso   1.000  C
  C22      1.0000 0.60850  0.80390  0.06080  Biso   1.000  C
  N21      1.0000 0.34940  0.08680  0.90840  Biso   1.000  N
  N22      1.0000 0.65060  0.91320  0.09160  Biso   1.000  N
  C23      1.0000 0.17820  0.05020  0.92260  Biso   1.000  C
  C24      1.0000 0.82180  0.94980  0.07740  Biso   1.000  C
  H19      1.0000 0.16990  0.95950  0.94460  Biso   1.000  H
  H20      1.0000 0.83010  0.04050  0.05540  Biso   1.000  H
  H21      1.0000 0.13600  0.07560  0.85110  Biso   1.000  H
  H22      1.0000 0.86400  0.92440  0.14890  Biso   1.000  H
  H23      1.0000 0.11360  0.09100  0.98180  Biso   1.000  H
  H24      1.0000 0.88640  0.90900  0.01820  Biso   1.000  H
  C25      1.0000 0.46760  0.02390  0.84540  Biso   1.000  C
  C26      1.0000 0.53240  0.97610  0.15460  Biso   1.000  C
  O5       1.0000 0.43520  0.93210  0.80810  Biso   1.000  O
  O6       1.0000 0.56480  0.06790  0.19190  Biso   1.000  O
  N23      1.0000 0.62970  0.06680  0.82830  Biso   1.000  N
  N24      1.0000 0.37030  0.93320  0.17170  Biso   1.000  N
  C27      1.0000 0.75180  0.99420  0.76310  Biso   1.000  C
  C28      1.0000 0.24820  0.00580  0.23690  Biso   1.000  C
  H25      1.0000 0.86240  0.02020  0.76860  Biso   1.000  H
  H26      1.0000 0.13760  0.97980  0.23140  Biso   1.000  H
  H27      1.0000 0.73600  0.00870  0.68350  Biso   1.000  H
  H28      1.0000 0.26400  0.99130  0.31650  Biso   1.000  H
  H29      1.0000 0.73850  0.90520  0.79360  Biso   1.000  H
  H30      1.0000 0.26150  0.09480  0.20640  Biso   1.000  H
  C29      1.0000 0.68260  0.17520  0.85950  Biso   1.000  C
  C30      1.0000 0.31740  0.82480  0.14050  Biso   1.000  C
  O7       1.0000 0.82640  0.20730  0.84100  Biso   1.000  O
  O8       1.0000 0.17360  0.79270  0.15900  Biso   1.000  O
  C31      1.0000 0.54790  0.23950  0.91560  Biso   1.000  C
  C32      1.0000 0.45210  0.76050  0.08440  Biso   1.000  C
  O9       1.0000 0.01010  0.74550  0.40220  Biso   1.000  O
  O10      1.0000 0.98990  0.25450  0.59780  Biso   1.000  O
  H31      1.0000 0.06900  0.74700  0.33900  Biso   1.000  H
  H32      1.0000 0.93100  0.25300  0.66100  Biso   1.000  H
  H33      1.0000 0.05300  0.70100  0.45300  Biso   1.000  H
  H34      1.0000 0.94700  0.29900  0.54700  Biso   1.000  H
  O11      1.0000 0.17420  0.01790  0.62880  Biso   1.000  O
  O12      1.0000 0.82580  0.98210  0.37120  Biso   1.000  O
  O13      1.0000 0.06700  0.11850  0.44940  Biso   1.000  O
  O14      1.0000 0.93300  0.88150  0.55060  Biso   1.000  O
