data_image0
_cell_length_a       9.6929
_cell_length_b       7.371
_cell_length_c       24.165
_cell_angle_alpha    90
_cell_angle_beta     93.081
_cell_angle_gamma    90

_symmetry_space_group_name_H-M    "P 1"
_symmetry_int_tables_number       1

loop_
  _symmetry_equiv_pos_as_xyz
  'x, y, z'

loop_
  _atom_site_label
  _atom_site_occupancy
  _atom_site_fract_x
  _atom_site_fract_y
  _atom_site_fract_z
  _atom_site_thermal_displace_type
  _atom_site_B_iso_or_equiv
  _atom_site_type_symbol
  Cu1      1.0000 0.59280  0.09670  0.09850  Biso   1.000  Cu
  Cu2      1.0000 0.40720  0.59670  0.40150  Biso   1.000  Cu
  Cu3      1.0000 0.40720  0.90330  0.90150  Biso   1.000  Cu
  Cu4      1.0000 0.59280  0.40330  0.59850  Biso   1.000  Cu
  Mo1      1.0000 0.35210  0.12600  0.00840  Biso   1.000  Mo
  Mo2      1.0000 0.64790  0.62600  0.49160  Biso   1.000  Mo
  Mo3      1.0000 0.64790  0.87400  0.99160  Biso   1.000  Mo
  Mo4      1.0000 0.35210  0.37400  0.50840  Biso   1.000  Mo
  Mo5      1.0000 0.49960  0.57230  0.06530  Biso   1.000  Mo
  Mo6      1.0000 0.50040  0.07230  0.43470  Biso   1.000  Mo
  Mo7      1.0000 0.50040  0.42770  0.93470  Biso   1.000  Mo
  Mo8      1.0000 0.49960  0.92770  0.56530  Biso   1.000  Mo
  O1       1.0000 0.61220  0.10250  0.01790  Biso   1.000  O
  O2       1.0000 0.38780  0.60250  0.48210  Biso   1.000  O
  O3       1.0000 0.38780  0.89750  0.98210  Biso   1.000  O
  O4       1.0000 0.61220  0.39750  0.51790  Biso   1.000  O
  O5       1.0000 0.39250  0.10790  0.08030  Biso   1.000  O
  O6       1.0000 0.60750  0.60790  0.41970  Biso   1.000  O
  O7       1.0000 0.60750  0.89210  0.91970  Biso   1.000  O
  O8       1.0000 0.39250  0.39210  0.58030  Biso   1.000  O
  O9       1.0000 0.41750  0.39230  0.01220  Biso   1.000  O
  O10      1.0000 0.58250  0.89230  0.48780  Biso   1.000  O
  O11      1.0000 0.58250  0.60770  0.98780  Biso   1.000  O
  O12      1.0000 0.41750  0.10770  0.51220  Biso   1.000  O
  O13      1.0000 0.17780  0.14800  0.00330  Biso   1.000  O
  O14      1.0000 0.82220  0.64800  0.49670  Biso   1.000  O
  O15      1.0000 0.82220  0.85200  0.99670  Biso   1.000  O
  O16      1.0000 0.17780  0.35200  0.50330  Biso   1.000  O
  O17      1.0000 0.59730  0.79060  0.06970  Biso   1.000  O
  O18      1.0000 0.40270  0.29060  0.43030  Biso   1.000  O
  O19      1.0000 0.40270  0.20940  0.93030  Biso   1.000  O
  O20      1.0000 0.59730  0.70940  0.56970  Biso   1.000  O
  O21      1.0000 0.35060  0.62620  0.09560  Biso   1.000  O
  O22      1.0000 0.64940  0.12620  0.40440  Biso   1.000  O
  O23      1.0000 0.64940  0.37380  0.90440  Biso   1.000  O
  O24      1.0000 0.35060  0.87380  0.59560  Biso   1.000  O
  O25      1.0000 0.59300  0.42900  0.10930  Biso   1.000  O
  O26      1.0000 0.40700  0.92900  0.39070  Biso   1.000  O
  O27      1.0000 0.40700  0.57100  0.89070  Biso   1.000  O
  O28      1.0000 0.59300  0.07100  0.60930  Biso   1.000  O
  C1       1.0000 0.46070  0.97920  0.19940  Biso   1.000  C
  C2       1.0000 0.53930  0.47920  0.30060  Biso   1.000  C
  C3       1.0000 0.53930  0.02080  0.80060  Biso   1.000  C
  C4       1.0000 0.46070  0.52080  0.69940  Biso   1.000  C
  C5       1.0000 0.45980  0.92130  0.25350  Biso   1.000  C
  C6       1.0000 0.54020  0.42130  0.24650  Biso   1.000  C
  C7       1.0000 0.54020  0.07870  0.74650  Biso   1.000  C
  C8       1.0000 0.45980  0.57870  0.75350  Biso   1.000  C
  C9       1.0000 0.58360  0.91450  0.28490  Biso   1.000  C
  C10      1.0000 0.41640  0.41450  0.21510  Biso   1.000  C
  C11      1.0000 0.41640  0.08550  0.71510  Biso   1.000  C
  C12      1.0000 0.58360  0.58550  0.78490  Biso   1.000  C
  C13      1.0000 0.70340  0.97440  0.26120  Biso   1.000  C
  C14      1.0000 0.29660  0.47440  0.23880  Biso   1.000  C
  C15      1.0000 0.29660  0.02560  0.73880  Biso   1.000  C
  C16      1.0000 0.70340  0.52560  0.76120  Biso   1.000  C
  C17      1.0000 0.69850  0.04340  0.20920  Biso   1.000  C
  C18      1.0000 0.30150  0.54340  0.29080  Biso   1.000  C
  C19      1.0000 0.30150  0.95660  0.79080  Biso   1.000  C
  C20      1.0000 0.69850  0.45660  0.70920  Biso   1.000  C
  C21      1.0000 0.81450  0.12070  0.17900  Biso   1.000  C
  C22      1.0000 0.18550  0.62070  0.32100  Biso   1.000  C
  C23      1.0000 0.18550  0.87930  0.82100  Biso   1.000  C
  C24      1.0000 0.81450  0.37930  0.67900  Biso   1.000  C
  C25      1.0000 0.94210  0.18300  0.20370  Biso   1.000  C
  C26      1.0000 0.05790  0.68300  0.29630  Biso   1.000  C
  C27      1.0000 0.05790  0.81700  0.79630  Biso   1.000  C
  C28      1.0000 0.94210  0.31700  0.70370  Biso   1.000  C
  C29      1.0000 0.02020  0.23370  0.11630  Biso   1.000  C
  C30      1.0000 0.97980  0.73370  0.38370  Biso   1.000  C
  C31      1.0000 0.97980  0.76630  0.88370  Biso   1.000  C
  C32      1.0000 0.02020  0.26630  0.61630  Biso   1.000  C
  C33      1.0000 0.89220  0.18950  0.09230  Biso   1.000  C
  C34      1.0000 0.10780  0.68950  0.40770  Biso   1.000  C
  C35      1.0000 0.10780  0.81050  0.90770  Biso   1.000  C
  C36      1.0000 0.89220  0.31050  0.59230  Biso   1.000  C
  C37      1.0000 0.97350  0.20580  0.26450  Biso   1.000  C
  C38      1.0000 0.02650  0.70580  0.23550  Biso   1.000  C
  C39      1.0000 0.02650  0.79420  0.73550  Biso   1.000  C
  C40      1.0000 0.97350  0.29420  0.76450  Biso   1.000  C
  C41      1.0000 0.09920  0.14780  0.28690  Biso   1.000  C
  C42      1.0000 0.90080  0.64780  0.21310  Biso   1.000  C
  C43      1.0000 0.90080  0.85220  0.71310  Biso   1.000  C
  C44      1.0000 0.09920  0.35220  0.78690  Biso   1.000  C
  C45      1.0000 0.12500  0.16480  0.34360  Biso   1.000  C
  C46      1.0000 0.87500  0.66480  0.15640  Biso   1.000  C
  C47      1.0000 0.87500  0.83520  0.65640  Biso   1.000  C
  C48      1.0000 0.12500  0.33520  0.84360  Biso   1.000  C
  C49      1.0000 0.02550  0.24160  0.37470  Biso   1.000  C
  C50      1.0000 0.97450  0.74160  0.12530  Biso   1.000  C
  C51      1.0000 0.97450  0.75840  0.62530  Biso   1.000  C
  C52      1.0000 0.02550  0.25840  0.87470  Biso   1.000  C
  C53      1.0000 0.90150  0.29860  0.34800  Biso   1.000  C
  C54      1.0000 0.09850  0.79860  0.15200  Biso   1.000  C
  C55      1.0000 0.09850  0.70140  0.65200  Biso   1.000  C
  C56      1.0000 0.90150  0.20140  0.84800  Biso   1.000  C
  N1       1.0000 0.57740  0.03860  0.17760  Biso   1.000  N
  N2       1.0000 0.42260  0.53860  0.32240  Biso   1.000  N
  N3       1.0000 0.42260  0.96140  0.82240  Biso   1.000  N
  N4       1.0000 0.57740  0.46140  0.67760  Biso   1.000  N
  N5       1.0000 0.79090  0.13160  0.12360  Biso   1.000  N
  N6       1.0000 0.20910  0.63160  0.37640  Biso   1.000  N
  N7       1.0000 0.20910  0.86840  0.87640  Biso   1.000  N
  N8       1.0000 0.79090  0.36840  0.62360  Biso   1.000  N
  N9       1.0000 0.87600  0.28450  0.29320  Biso   1.000  N
  N10      1.0000 0.12400  0.78450  0.20680  Biso   1.000  N
  N11      1.0000 0.12400  0.71550  0.70680  Biso   1.000  N
  N12      1.0000 0.87600  0.21550  0.79320  Biso   1.000  N
  N13      1.0000 0.04360  0.23520  0.17080  Biso   1.000  N
  N14      1.0000 0.95640  0.73520  0.32920  Biso   1.000  N
  N15      1.0000 0.95640  0.76480  0.82920  Biso   1.000  N
  N16      1.0000 0.04360  0.26480  0.67080  Biso   1.000  N
  H1       1.0000 0.37900  0.97720  0.17740  Biso   1.000  H
  H2       1.0000 0.62100  0.47720  0.32260  Biso   1.000  H
  H3       1.0000 0.62100  0.02280  0.82260  Biso   1.000  H
  H4       1.0000 0.37900  0.52280  0.67740  Biso   1.000  H
  H5       1.0000 0.37760  0.88740  0.26870  Biso   1.000  H
  H6       1.0000 0.62240  0.38740  0.23130  Biso   1.000  H
  H7       1.0000 0.62240  0.11260  0.73130  Biso   1.000  H
  H8       1.0000 0.37760  0.61260  0.76870  Biso   1.000  H
  H9       1.0000 0.58670  0.87080  0.32100  Biso   1.000  H
  H10      1.0000 0.41330  0.37080  0.17900  Biso   1.000  H
  H11      1.0000 0.41330  0.12920  0.67900  Biso   1.000  H
  H12      1.0000 0.58670  0.62920  0.82100  Biso   1.000  H
  H13      1.0000 0.78780  0.96680  0.28130  Biso   1.000  H
  H14      1.0000 0.21220  0.46680  0.21870  Biso   1.000  H
  H15      1.0000 0.21220  0.03320  0.71870  Biso   1.000  H
  H16      1.0000 0.78780  0.53320  0.78130  Biso   1.000  H
  H17      1.0000 0.09170  0.26310  0.09380  Biso   1.000  H
  H18      1.0000 0.90830  0.76310  0.40620  Biso   1.000  H
  H19      1.0000 0.90830  0.73690  0.90620  Biso   1.000  H
  H20      1.0000 0.09170  0.23690  0.59380  Biso   1.000  H
  H21      1.0000 0.87610  0.19990  0.05410  Biso   1.000  H
  H22      1.0000 0.12390  0.69990  0.44590  Biso   1.000  H
  H23      1.0000 0.12390  0.80010  0.94590  Biso   1.000  H
  H24      1.0000 0.87610  0.30010  0.55410  Biso   1.000  H
  H25      1.0000 0.16500  0.09870  0.26460  Biso   1.000  H
  H26      1.0000 0.83500  0.59870  0.23540  Biso   1.000  H
  H27      1.0000 0.83500  0.90130  0.73540  Biso   1.000  H
  H28      1.0000 0.16500  0.40130  0.76460  Biso   1.000  H
  H29      1.0000 0.20810  0.12490  0.36030  Biso   1.000  H
  H30      1.0000 0.79190  0.62490  0.13970  Biso   1.000  H
  H31      1.0000 0.79190  0.87510  0.63970  Biso   1.000  H
  H32      1.0000 0.20810  0.37510  0.86030  Biso   1.000  H
  H33      1.0000 0.04050  0.25530  0.41280  Biso   1.000  H
  H34      1.0000 0.95950  0.75530  0.08720  Biso   1.000  H
  H35      1.0000 0.95950  0.74470  0.58720  Biso   1.000  H
  H36      1.0000 0.04050  0.24470  0.91280  Biso   1.000  H
  H37      1.0000 0.83390  0.34850  0.36920  Biso   1.000  H
  H38      1.0000 0.16610  0.84850  0.13080  Biso   1.000  H
  H39      1.0000 0.16610  0.65150  0.63080  Biso   1.000  H
  H40      1.0000 0.83390  0.15150  0.86920  Biso   1.000  H
