data_image0
_cell_length_a       8.1746
_cell_length_b       9.9818
_cell_length_c       11.8745
_cell_angle_alpha    75.939
_cell_angle_beta     72.089
_cell_angle_gamma    82.28

_symmetry_space_group_name_H-M    "P 1"
_symmetry_int_tables_number       1

loop_
  _symmetry_equiv_pos_as_xyz
  'x, y, z'

loop_
  _atom_site_label
  _atom_site_occupancy
  _atom_site_fract_x
  _atom_site_fract_y
  _atom_site_fract_z
  _atom_site_thermal_displace_type
  _atom_site_B_iso_or_equiv
  _atom_site_type_symbol
  Mo1      1.0000 0.75470  0.73270  0.54830  Biso   1.000  Mo
  Mo2      1.0000 0.24530  0.26730  0.45170  Biso   1.000  Mo
  Mo3      1.0000 0.49510  0.01410  0.63970  Biso   1.000  Mo
  Mo4      1.0000 0.50490  0.98590  0.36030  Biso   1.000  Mo
  Mo5      1.0000 0.89040  0.99510  0.65090  Biso   1.000  Mo
  Mo6      1.0000 0.10960  0.00490  0.34910  Biso   1.000  Mo
  Mo7      1.0000 0.15450  0.71680  0.53860  Biso   1.000  Mo
  Mo8      1.0000 0.84550  0.28320  0.46140  Biso   1.000  Mo
  Cu1      1.0000 0.36280  0.67290  0.77780  Biso   1.000  Cu
  Cu2      1.0000 0.63720  0.32710  0.22220  Biso   1.000  Cu
  O1       1.0000 0.58170  0.64740  0.65460  Biso   1.000  O
  O2       1.0000 0.41830  0.35260  0.34540  Biso   1.000  O
  O3       1.0000 0.80110  0.66000  0.42680  Biso   1.000  O
  O4       1.0000 0.19890  0.34000  0.57320  Biso   1.000  O
  O5       1.0000 0.92700  0.64960  0.62330  Biso   1.000  O
  O6       1.0000 0.07300  0.35040  0.37670  Biso   1.000  O
  O7       1.0000 0.69640  0.88670  0.68040  Biso   1.000  O
  O8       1.0000 0.30360  0.11330  0.31960  Biso   1.000  O
  O9       1.0000 0.36750  0.87310  0.71230  Biso   1.000  O
  O10      1.0000 0.63250  0.12690  0.28770  Biso   1.000  O
  O11      1.0000 0.60940  0.89700  0.48290  Biso   1.000  O
  O12      1.0000 0.39060  0.10300  0.51710  Biso   1.000  O
  O13      1.0000 0.43100  0.11650  0.74200  Biso   1.000  O
  O14      1.0000 0.56900  0.88350  0.25800  Biso   1.000  O
  O15      1.0000 0.83770  0.06640  0.77420  Biso   1.000  O
  O16      1.0000 0.16230  0.93360  0.22580  Biso   1.000  O
  O17      1.0000 0.96100  0.87780  0.47530  Biso   1.000  O
  O18      1.0000 0.03900  0.12220  0.52470  Biso   1.000  O
  O19      1.0000 0.03990  0.86000  0.67950  Biso   1.000  O
  O20      1.0000 0.96010  0.14000  0.32050  Biso   1.000  O
  O21      1.0000 0.72330  0.11640  0.54980  Biso   1.000  O
  O22      1.0000 0.27670  0.88360  0.45020  Biso   1.000  O
  O23      1.0000 0.26450  0.63010  0.63970  Biso   1.000  O
  O24      1.0000 0.73550  0.36990  0.36030  Biso   1.000  O
  O25      1.0000 0.20920  0.63140  0.42470  Biso   1.000  O
  O26      1.0000 0.79080  0.36860  0.57530  Biso   1.000  O
  N1       1.0000 0.38880  0.48560  0.87840  Biso   1.000  N
  N2       1.0000 0.61120  0.51440  0.12160  Biso   1.000  N
  N3       1.0000 0.17440  0.69410  0.92520  Biso   1.000  N
  N4       1.0000 0.82560  0.30590  0.07480  Biso   1.000  N
  C1       1.0000 0.50540  0.38420  0.84060  Biso   1.000  C
  C2       1.0000 0.49460  0.61580  0.15940  Biso   1.000  C
  C3       1.0000 0.52450  0.25970  0.92010  Biso   1.000  C
  C4       1.0000 0.47550  0.74030  0.07990  Biso   1.000  C
  C5       1.0000 0.41860  0.23900  0.03810  Biso   1.000  C
  C6       1.0000 0.58140  0.76100  0.96190  Biso   1.000  C
  C7       1.0000 0.29970  0.34310  0.07530  Biso   1.000  C
  C8       1.0000 0.70030  0.65690  0.92470  Biso   1.000  C
  C9       1.0000 0.28580  0.46620  0.99390  Biso   1.000  C
  C10      1.0000 0.71420  0.53380  0.00610  Biso   1.000  C
  C11      1.0000 0.16140  0.58440  0.02080  Biso   1.000  C
  C12      1.0000 0.83860  0.41560  0.97920  Biso   1.000  C
  C13      1.0000 0.04160  0.58690  0.13100  Biso   1.000  C
  C14      1.0000 0.95840  0.41310  0.86900  Biso   1.000  C
  C15      1.0000 0.93020  0.70450  0.14380  Biso   1.000  C
  C16      1.0000 0.06980  0.29550  0.85620  Biso   1.000  C
  C17      1.0000 0.94370  0.81500  0.04650  Biso   1.000  C
  C18      1.0000 0.05630  0.18500  0.95350  Biso   1.000  C
  C19      1.0000 0.06770  0.80790  0.93850  Biso   1.000  C
  C20      1.0000 0.93230  0.19210  0.06150  Biso   1.000  C
  H1       1.0000 0.57340  0.39810  0.76040  Biso   1.000  H
  H2       1.0000 0.42660  0.60190  0.23960  Biso   1.000  H
  H3       1.0000 0.60720  0.19130  0.89450  Biso   1.000  H
  H4       1.0000 0.39280  0.80870  0.10550  Biso   1.000  H
  H5       1.0000 0.42740  0.15540  0.09210  Biso   1.000  H
  H6       1.0000 0.57260  0.84460  0.90790  Biso   1.000  H
  H7       1.0000 0.22940  0.33040  0.15480  Biso   1.000  H
  H8       1.0000 0.77060  0.66960  0.84520  Biso   1.000  H
  H9       1.0000 0.03510  0.51150  0.19570  Biso   1.000  H
  H10      1.0000 0.96490  0.48850  0.80430  Biso   1.000  H
  H11      1.0000 0.84770  0.70820  0.21730  Biso   1.000  H
  H12      1.0000 0.15230  0.29180  0.78270  Biso   1.000  H
  H13      1.0000 0.86970  0.89380  0.05360  Biso   1.000  H
  H14      1.0000 0.13030  0.10620  0.94640  Biso   1.000  H
  H15      1.0000 0.07780  0.88330  0.87350  Biso   1.000  H
  H16      1.0000 0.92220  0.11670  0.12650  Biso   1.000  H
