data_image0
_cell_length_a       9.9685
_cell_length_b       11.1408
_cell_length_c       13.8246
_cell_angle_alpha    68.752
_cell_angle_beta     89.6698
_cell_angle_gamma    63.697

_symmetry_space_group_name_H-M    "P 1"
_symmetry_int_tables_number       1

loop_
  _symmetry_equiv_pos_as_xyz
  'x, y, z'

loop_
  _atom_site_label
  _atom_site_occupancy
  _atom_site_fract_x
  _atom_site_fract_y
  _atom_site_fract_z
  _atom_site_thermal_displace_type
  _atom_site_B_iso_or_equiv
  _atom_site_type_symbol
  P1       1.0000 0.18576  0.06933  0.10727  Biso   1.000  P
  P2       1.0000 0.81424  0.93067  0.89273  Biso   1.000  P
  P3       1.0000 0.63401  0.04166  0.14109  Biso   1.000  P
  P4       1.0000 0.36599  0.95834  0.85891  Biso   1.000  P
  C1       1.0000 0.67280  0.51420  0.09600  Biso   1.000  C
  C2       1.0000 0.32720  0.48580  0.90400  Biso   1.000  C
  C3       1.0000 0.75400  0.35570  0.11180  Biso   1.000  C
  C4       1.0000 0.24600  0.64430  0.88820  Biso   1.000  C
  C5       1.0000 0.90890  0.29160  0.10620  Biso   1.000  C
  C6       1.0000 0.09110  0.70840  0.89380  Biso   1.000  C
  C7       1.0000 0.98620  0.14490  0.11790  Biso   1.000  C
  C8       1.0000 0.01380  0.85510  0.88210  Biso   1.000  C
  C9       1.0000 0.90460  0.06640  0.13290  Biso   1.000  C
  C10      1.0000 0.09540  0.93360  0.86710  Biso   1.000  C
  C11      1.0000 0.75070  0.13020  0.13940  Biso   1.000  C
  C12      1.0000 0.24930  0.86980  0.86060  Biso   1.000  C
  C13      1.0000 0.67660  0.27710  0.12900  Biso   1.000  C
  C14      1.0000 0.32340  0.72290  0.87100  Biso   1.000  C
  O1       1.0000 0.75160  0.57890  0.08870  Biso   1.000  O
  O2       1.0000 0.24840  0.42110  0.91130  Biso   1.000  O
  O3       1.0000 0.53090  0.57010  0.09150  Biso   1.000  O
  O4       1.0000 0.46910  0.42990  0.90850  Biso   1.000  O
  O5       1.0000 0.19430  0.19470  0.01820  Biso   1.000  O
  O6       1.0000 0.80570  0.80530  0.98180  Biso   1.000  O
  O7       1.0000 0.28170  0.03010  0.21240  Biso   1.000  O
  O8       1.0000 0.71830  0.96990  0.78760  Biso   1.000  O
  O9       1.0000 0.22240  0.93410  0.08710  Biso   1.000  O
  O10      1.0000 0.77760  0.06590  0.91290  Biso   1.000  O
  O11      1.0000 0.74300  0.88570  0.15480  Biso   1.000  O
  O12      1.0000 0.25700  0.11430  0.84520  Biso   1.000  O
  O13      1.0000 0.55120  0.04160  0.23480  Biso   1.000  O
  O14      1.0000 0.44880  0.95840  0.76520  Biso   1.000  O
  O15      1.0000 0.52670  0.13230  0.03360  Biso   1.000  O
  O16      1.0000 0.47330  0.86770  0.96640  Biso   1.000  O
  H1       1.0000 0.96006  0.34958  0.07734  Biso   1.000  H
  H2       1.0000 0.03994  0.65042  0.92266  Biso   1.000  H
  H3       1.0000 0.96726  0.96330  0.12811  Biso   1.000  H
  H4       1.0000 0.03274  0.03670  0.87189  Biso   1.000  H
  H5       1.0000 0.56167  0.31609  0.14469  Biso   1.000  H
  H6       1.0000 0.43833  0.68391  0.85531  Biso   1.000  H
  P5       1.0000 0.57012  0.13213  0.43937  Biso   1.000  P
  P6       1.0000 0.42988  0.86787  0.56063  Biso   1.000  P
  P7       1.0000 0.59492  0.65579  0.31415  Biso   1.000  P
  P8       1.0000 0.40508  0.34421  0.68585  Biso   1.000  P
  C15      1.0000 0.07440  0.15580  0.35000  Biso   1.000  C
  C16      1.0000 0.92560  0.84420  0.65000  Biso   1.000  C
  C17      1.0000 0.91080  0.23810  0.36180  Biso   1.000  C
  C18      1.0000 0.08920  0.76190  0.63820  Biso   1.000  C
  C19      1.0000 0.82650  0.16270  0.38960  Biso   1.000  C
  C20      1.0000 0.17350  0.83730  0.61040  Biso   1.000  C
  C21      1.0000 0.67320  0.23520  0.39780  Biso   1.000  C
  C22      1.0000 0.32680  0.76480  0.60220  Biso   1.000  C
  C23      1.0000 0.60560  0.38510  0.37610  Biso   1.000  C
  C24      1.0000 0.39440  0.61490  0.62390  Biso   1.000  C
  C25      1.0000 0.68830  0.46190  0.34620  Biso   1.000  C
  C26      1.0000 0.31170  0.53810  0.65380  Biso   1.000  C
  C27      1.0000 0.84230  0.38780  0.33940  Biso   1.000  C
  C28      1.0000 0.15770  0.61220  0.66060  Biso   1.000  C
  O17      1.0000 0.12290  0.01770  0.37980  Biso   1.000  O
  O18      1.0000 0.87710  0.98230  0.62020  Biso   1.000  O
  O19      1.0000 0.14580  0.22360  0.31100  Biso   1.000  O
  O20      1.0000 0.85420  0.77640  0.68900  Biso   1.000  O
  O21      1.0000 0.67650  0.98020  0.44770  Biso   1.000  O
  O22      1.0000 0.32350  0.01980  0.55230  Biso   1.000  O
  O23      1.0000 0.54050  0.12940  0.55040  Biso   1.000  O
  O24      1.0000 0.45950  0.87060  0.44960  Biso   1.000  O
  O25      1.0000 0.42050  0.21110  0.36060  Biso   1.000  O
  O26      1.0000 0.57950  0.78890  0.63940  Biso   1.000  O
  O27      1.0000 0.44300  0.69050  0.35070  Biso   1.000  O
  O28      1.0000 0.55700  0.30950  0.64930  Biso   1.000  O
  O29      1.0000 0.56580  0.74040  0.19400  Biso   1.000  O
  O30      1.0000 0.43420  0.25960  0.80600  Biso   1.000  O
  O31      1.0000 0.70160  0.68210  0.37190  Biso   1.000  O
  O32      1.0000 0.29840  0.31790  0.62810  Biso   1.000  O
  H7       1.0000 0.86136  0.06420  0.40142  Biso   1.000  H
  H8       1.0000 0.13864  0.93580  0.59858  Biso   1.000  H
  H9       1.0000 0.49622  0.43722  0.38321  Biso   1.000  H
  H10      1.0000 0.50378  0.56278  0.61679  Biso   1.000  H
  H11      1.0000 0.89683  0.44760  0.31914  Biso   1.000  H
  H12      1.0000 0.10317  0.55240  0.68086  Biso   1.000  H
  Cu1      1.0000 0.29542  0.86490  0.35935  Biso   1.000  Cu
  Cu2      1.0000 0.70458  0.13510  0.64065  Biso   1.000  Cu
  Cu3      1.0000 0.66298  0.84993  0.39729  Biso   1.000  Cu
  Cu4      1.0000 0.33702  0.15007  0.60271  Biso   1.000  Cu
  Cu5      1.0000 0.34722  0.14139  0.26857  Biso   1.000  Cu
  Cu6      1.0000 0.65278  0.85861  0.73143  Biso   1.000  Cu
  O33      1.0000 0.15560  0.77940  0.35720  Biso   1.000  O
  O34      1.0000 0.84440  0.22060  0.64280  Biso   1.000  O
  O35      1.0000 0.87380  0.79670  0.36500  Biso   1.000  O
  O36      1.0000 0.12620  0.20330  0.63500  Biso   1.000  O
  O37      1.0000 0.26930  0.35730  0.13400  Biso   1.000  O
  O38      1.0000 0.73070  0.64270  0.86600  Biso   1.000  O
  H13      1.0000 0.11527  0.74333  0.41947  Biso   1.000  H
  H14      1.0000 0.88473  0.25667  0.58053  Biso   1.000  H
  H15      1.0000 0.12532  0.77543  0.28800  Biso   1.000  H
  H16      1.0000 0.87468  0.22457  0.71200  Biso   1.000  H
  H17      1.0000 0.92702  0.71507  0.33933  Biso   1.000  H
  H18      1.0000 0.07298  0.28493  0.66067  Biso   1.000  H
  H19      1.0000 0.93079  0.84796  0.37445  Biso   1.000  H
  H20      1.0000 0.06921  0.15204  0.62555  Biso   1.000  H
  H21      1.0000 0.34738  0.38870  0.10357  Biso   1.000  H
  H22      1.0000 0.65262  0.61130  0.89643  Biso   1.000  H
  H23      1.0000 0.16001  0.42272  0.10200  Biso   1.000  H
  H24      1.0000 0.83999  0.57728  0.89800  Biso   1.000  H
  Cu7      1.0000 0.30956  0.22217  0.90933  Biso   1.000  Cu
  Cu8      1.0000 0.69044  0.77783  0.09067  Biso   1.000  Cu
  Cu9      1.0000 0.39024  0.76196  0.08721  Biso   1.000  Cu
  Cu10     1.0000 0.60976  0.23804  0.91279  Biso   1.000  Cu
  O39      1.0000 0.27960  0.65450  0.16100  Biso   1.000  O
  O40      1.0000 0.72040  0.34550  0.83900  Biso   1.000  O
  H25      1.0000 0.20398  0.64361  0.12220  Biso   1.000  H
  H26      1.0000 0.79602  0.35639  0.87780  Biso   1.000  H
  H27      1.0000 0.29754  0.60793  0.24240  Biso   1.000  H
  H28      1.0000 0.70246  0.39207  0.75760  Biso   1.000  H
  O41      1.0000 0.04110  0.58250  0.15290  Biso   1.000  O
  O42      1.0000 0.95890  0.41750  0.84710  Biso   1.000  O
  H29      1.0000 0.98588  0.68695  0.10140  Biso   1.000  H
  H30      1.0000 0.01412  0.31305  0.89860  Biso   1.000  H
  H31      1.0000 0.03009  0.55640  0.22892  Biso   1.000  H
  H32      1.0000 0.96991  0.44360  0.77108  Biso   1.000  H
  O43      1.0000 0.19940  0.49390  0.36090  Biso   1.000  O
  O44      1.0000 0.80060  0.50610  0.63910  Biso   1.000  O
  H33      1.0000 0.30243  0.45994  0.34271  Biso   1.000  H
  H34      1.0000 0.69757  0.54006  0.65729  Biso   1.000  H
  H35      1.0000 0.19966  0.40713  0.42455  Biso   1.000  H
  H36      1.0000 0.80034  0.59287  0.57545  Biso   1.000  H
