data_image0
_cell_length_a       9.3335
_cell_length_b       9.373
_cell_length_c       17.1942
_cell_angle_alpha    97.879
_cell_angle_beta     97.745
_cell_angle_gamma    115.761

_symmetry_space_group_name_H-M    "P 1"
_symmetry_int_tables_number       1

loop_
  _symmetry_equiv_pos_as_xyz
  'x, y, z'

loop_
  _atom_site_label
  _atom_site_occupancy
  _atom_site_fract_x
  _atom_site_fract_y
  _atom_site_fract_z
  _atom_site_thermal_displace_type
  _atom_site_B_iso_or_equiv
  _atom_site_type_symbol
  Cu1      1.0000 0.05079  0.45896  0.25199  Biso   1.000  Cu
  Cu2      1.0000 0.94921  0.54104  0.74801  Biso   1.000  Cu
  Cu3      1.0000 0.50000  0.00000  0.50000  Biso   1.000  Cu
  N1       1.0000 0.91860  0.58380  0.25830  Biso   1.000  N
  N2       1.0000 0.08140  0.41620  0.74170  Biso   1.000  N
  N3       1.0000 0.72250  0.63180  0.31804  Biso   1.000  N
  N4       1.0000 0.27750  0.36820  0.68196  Biso   1.000  N
  C1       1.0000 0.82240  0.56600  0.31150  Biso   1.000  C
  C2       1.0000 0.17760  0.43400  0.68850  Biso   1.000  C
  H1       1.0000 0.82590  0.49970  0.34810  Biso   1.000  H
  H2       1.0000 0.17410  0.50030  0.65190  Biso   1.000  H
  C3       1.0000 0.72290  0.72650  0.26690  Biso   1.000  C
  C4       1.0000 0.27710  0.27350  0.73310  Biso   1.000  C
  H3       1.0000 0.65500  0.77790  0.26970  Biso   1.000  H
  H4       1.0000 0.34500  0.22210  0.73030  Biso   1.000  H
  C5       1.0000 0.81700  0.75350  0.21000  Biso   1.000  C
  C6       1.0000 0.18300  0.24650  0.79000  Biso   1.000  C
  H5       1.0000 0.81460  0.82150  0.17420  Biso   1.000  H
  H6       1.0000 0.18540  0.17850  0.82580  Biso   1.000  H
  C7       1.0000 0.91450  0.67830  0.20710  Biso   1.000  C
  C8       1.0000 0.08550  0.32170  0.79290  Biso   1.000  C
  H7       1.0000 0.98000  0.69350  0.16820  Biso   1.000  H
  H8       1.0000 0.02000  0.30650  0.83180  Biso   1.000  H
  N5       1.0000 0.16510  0.31480  0.24537  Biso   1.000  N
  N6       1.0000 0.83490  0.68520  0.75463  Biso   1.000  N
  N7       1.0000 0.14820  0.06310  0.18320  Biso   1.000  N
  N8       1.0000 0.85180  0.93690  0.81680  Biso   1.000  N
  C9       1.0000 0.08870  0.16720  0.19600  Biso   1.000  C
  C10      1.0000 0.91130  0.83280  0.80400  Biso   1.000  C
  H9       1.0000 0.98110  0.13410  0.16720  Biso   1.000  H
  H10      1.0000 0.01890  0.86590  0.83280  Biso   1.000  H
  C11      1.0000 0.29910  0.11100  0.22620  Biso   1.000  C
  C12      1.0000 0.70090  0.88900  0.77380  Biso   1.000  C
  H11      1.0000 0.34710  0.04040  0.21910  Biso   1.000  H
  H12      1.0000 0.65290  0.95960  0.78090  Biso   1.000  H
  C13      1.0000 0.38790  0.26020  0.28060  Biso   1.000  C
  C14      1.0000 0.61210  0.73980  0.71940  Biso   1.000  C
  H13      1.0000 0.49320  0.29100  0.31140  Biso   1.000  H
  H14      1.0000 0.50680  0.70900  0.68860  Biso   1.000  H
  C15      1.0000 0.31600  0.36090  0.28760  Biso   1.000  C
  C16      1.0000 0.68400  0.63910  0.71240  Biso   1.000  C
  H15      1.0000 0.37410  0.46480  0.32300  Biso   1.000  H
  H16      1.0000 0.62590  0.53520  0.67700  Biso   1.000  H
  N9       1.0000 0.12800  0.52360  0.36899  Biso   1.000  N
  N10      1.0000 0.87200  0.47640  0.63101  Biso   1.000  N
  C17      1.0000 0.17860  0.59420  0.43560  Biso   1.000  C
  C18      1.0000 0.82140  0.40580  0.56440  Biso   1.000  C
  S1       1.0000 0.25074  0.69525  0.52933  Biso   1.000  S
  S2       1.0000 0.74926  0.30475  0.47067  Biso   1.000  S
  N11      1.0000 0.96420  0.38830  0.13580  Biso   1.000  N
  N12      1.0000 0.03580  0.61170  0.86420  Biso   1.000  N
  C19      1.0000 0.89740  0.33890  0.06841  Biso   1.000  C
  C20      1.0000 0.10260  0.66110  0.93159  Biso   1.000  C
  S3       1.0000 0.80247  0.26541  0.97356  Biso   1.000  S
  S4       1.0000 0.19753  0.73459  0.02644  Biso   1.000  S
  N13      1.0000 0.93760  0.99100  0.60500  Biso   1.000  N
  N14      1.0000 0.06240  0.00900  0.39500  Biso   1.000  N
  N15      1.0000 0.67740  0.92920  0.52845  Biso   1.000  N
  N16      1.0000 0.32260  0.07080  0.47155  Biso   1.000  N
  C21      1.0000 0.81710  0.02630  0.58240  Biso   1.000  C
  C22      1.0000 0.18290  0.97370  0.41760  Biso   1.000  C
  H17      1.0000 0.83120  0.13010  0.60680  Biso   1.000  H
  H18      1.0000 0.16880  0.86990  0.39320  Biso   1.000  H
  C23      1.0000 0.91510  0.84440  0.57020  Biso   1.000  C
  C24      1.0000 0.08490  0.15560  0.42980  Biso   1.000  C
  H19      1.0000 0.99810  0.81400  0.58470  Biso   1.000  H
  H20      1.0000 0.00190  0.18600  0.41530  Biso   1.000  H
  C25      1.0000 0.77640  0.73560  0.51420  Biso   1.000  C
  C26      1.0000 0.22360  0.26440  0.48580  Biso   1.000  C
  H21      1.0000 0.76210  0.63140  0.49040  Biso   1.000  H
  H22      1.0000 0.23790  0.36860  0.50960  Biso   1.000  H
  C27      1.0000 0.65910  0.78390  0.49400  Biso   1.000  C
  C28      1.0000 0.34090  0.21610  0.50600  Biso   1.000  C
  H23      1.0000 0.56290  0.71220  0.45460  Biso   1.000  H
  H24      1.0000 0.43710  0.28780  0.54540  Biso   1.000  H
  N17      1.0000 0.45510  0.89280  0.38766  Biso   1.000  N
  N18      1.0000 0.54490  0.10720  0.61234  Biso   1.000  N
  C29      1.0000 0.40060  0.82270  0.32120  Biso   1.000  C
  C30      1.0000 0.59940  0.17730  0.67880  Biso   1.000  C
  S5       1.0000 0.32315  0.72358  0.22751  Biso   1.000  S
  S6       1.0000 0.67685  0.27642  0.77249  Biso   1.000  S
  Cu4      1.0000 0.50000  0.00000  0.00000  Biso   1.000  Cu
  N19      1.0000 0.41240  0.16370  0.02763  Biso   1.000  N
  N20      1.0000 0.58760  0.83630  0.97237  Biso   1.000  N
  N21      1.0000 0.46170  0.42620  0.09300  Biso   1.000  N
  N22      1.0000 0.53830  0.57380  0.90700  Biso   1.000  N
  C31      1.0000 0.50540  0.31000  0.07620  Biso   1.000  C
  C32      1.0000 0.49460  0.69000  0.92380  Biso   1.000  C
  H25      1.0000 0.61270  0.33310  0.10090  Biso   1.000  H
  H26      1.0000 0.38730  0.66690  0.89910  Biso   1.000  H
  C33      1.0000 0.30870  0.38940  0.05810  Biso   1.000  C
  C34      1.0000 0.69130  0.61060  0.94190  Biso   1.000  C
  H27      1.0000 0.27210  0.46880  0.06840  Biso   1.000  H
  H28      1.0000 0.72790  0.53120  0.93160  Biso   1.000  H
  C35      1.0000 0.20370  0.24300  0.00850  Biso   1.000  C
  C36      1.0000 0.79630  0.75700  0.99150  Biso   1.000  C
  H29      1.0000 0.09590  0.21960  0.98460  Biso   1.000  H
  H30      1.0000 0.90410  0.78040  0.01540  Biso   1.000  H
  C37      1.0000 0.25950  0.13050  0.99440  Biso   1.000  C
  C38      1.0000 0.74050  0.86950  0.00560  Biso   1.000  C
  H31      1.0000 0.18860  0.02700  0.96050  Biso   1.000  H
  H32      1.0000 0.81140  0.97300  0.03950  Biso   1.000  H
  N23      1.0000 0.60170  0.04270  0.11185  Biso   1.000  N
  N24      1.0000 0.39830  0.95730  0.88815  Biso   1.000  N
  S7       1.0000 0.75128  0.15777  0.27539  Biso   1.000  S
  S8       1.0000 0.24872  0.84223  0.72461  Biso   1.000  S
  C39      1.0000 0.66340  0.09120  0.18034  Biso   1.000  C
  C40      1.0000 0.33660  0.90880  0.81966  Biso   1.000  C
