data_image0
_cell_length_a       21.1518
_cell_length_b       14.4928
_cell_length_c       18.1169
_cell_angle_alpha    90
_cell_angle_beta     111.64
_cell_angle_gamma    90

_symmetry_space_group_name_H-M    "P 1"
_symmetry_int_tables_number       1

loop_
  _symmetry_equiv_pos_as_xyz
  'x, y, z'

loop_
  _atom_site_label
  _atom_site_occupancy
  _atom_site_fract_x
  _atom_site_fract_y
  _atom_site_fract_z
  _atom_site_thermal_displace_type
  _atom_site_B_iso_or_equiv
  _atom_site_type_symbol
  W1       1.0000 0.25759  0.73138  0.24756  Biso   1.000  W
  W2       1.0000 0.74241  0.23138  0.25244  Biso   1.000  W
  W3       1.0000 0.74241  0.26862  0.75244  Biso   1.000  W
  W4       1.0000 0.25759  0.76862  0.74756  Biso   1.000  W
  Cu1      1.0000 0.92658  0.90174  0.01710  Biso   1.000  Cu
  Cu2      1.0000 0.07342  0.40174  0.48290  Biso   1.000  Cu
  Cu3      1.0000 0.07342  0.09826  0.98290  Biso   1.000  Cu
  Cu4      1.0000 0.92658  0.59826  0.51710  Biso   1.000  Cu
  Cu5      1.0000 0.11529  0.89523  0.14132  Biso   1.000  Cu
  Cu6      1.0000 0.88471  0.39523  0.35868  Biso   1.000  Cu
  Cu7      1.0000 0.88471  0.10477  0.85868  Biso   1.000  Cu
  Cu8      1.0000 0.11529  0.60477  0.64132  Biso   1.000  Cu
  Cu9      1.0000 0.39905  0.89206  0.35707  Biso   1.000  Cu
  Cu10     1.0000 0.60095  0.39206  0.14293  Biso   1.000  Cu
  Cu11     1.0000 0.60095  0.10794  0.64293  Biso   1.000  Cu
  Cu12     1.0000 0.39905  0.60794  0.85707  Biso   1.000  Cu
  Cu13     1.0000 0.54651  0.88125  0.56964  Biso   1.000  Cu
  Cu14     1.0000 0.45349  0.38125  0.93036  Biso   1.000  Cu
  Cu15     1.0000 0.45349  0.11875  0.43036  Biso   1.000  Cu
  Cu16     1.0000 0.54651  0.61875  0.06964  Biso   1.000  Cu
  C1       1.0000 0.78240  0.78590  0.91350  Biso   1.000  C
  C2       1.0000 0.21760  0.28590  0.58650  Biso   1.000  C
  C3       1.0000 0.21760  0.21410  0.08650  Biso   1.000  C
  C4       1.0000 0.78240  0.71410  0.41350  Biso   1.000  C
  H1       1.0000 0.76100  0.84290  0.90020  Biso   1.000  H
  H2       1.0000 0.23900  0.34290  0.59980  Biso   1.000  H
  H3       1.0000 0.23900  0.15710  0.09980  Biso   1.000  H
  H4       1.0000 0.76100  0.65710  0.40020  Biso   1.000  H
  C5       1.0000 0.74440  0.70940  0.88560  Biso   1.000  C
  C6       1.0000 0.25560  0.20940  0.61440  Biso   1.000  C
  C7       1.0000 0.25560  0.29060  0.11440  Biso   1.000  C
  C8       1.0000 0.74440  0.79060  0.38560  Biso   1.000  C
  H5       1.0000 0.69870  0.71400  0.85310  Biso   1.000  H
  H6       1.0000 0.30130  0.21400  0.64690  Biso   1.000  H
  H7       1.0000 0.30130  0.28600  0.14690  Biso   1.000  H
  H8       1.0000 0.69870  0.78600  0.35310  Biso   1.000  H
  C9       1.0000 0.77520  0.62460  0.90660  Biso   1.000  C
  C10      1.0000 0.22480  0.12460  0.59340  Biso   1.000  C
  C11      1.0000 0.22480  0.37540  0.09340  Biso   1.000  C
  C12      1.0000 0.77520  0.87540  0.40660  Biso   1.000  C
  H9       1.0000 0.75020  0.57070  0.88950  Biso   1.000  H
  H10      1.0000 0.24980  0.07070  0.61050  Biso   1.000  H
  H11      1.0000 0.24980  0.42930  0.11050  Biso   1.000  H
  H12      1.0000 0.75020  0.92930  0.38950  Biso   1.000  H
  C13      1.0000 0.84460  0.62000  0.95390  Biso   1.000  C
  C14      1.0000 0.15540  0.12000  0.54610  Biso   1.000  C
  C15      1.0000 0.15540  0.38000  0.04610  Biso   1.000  C
  C16      1.0000 0.84460  0.88000  0.45390  Biso   1.000  C
  H13      1.0000 0.86650  0.56350  0.96860  Biso   1.000  H
  H14      1.0000 0.13350  0.06350  0.53140  Biso   1.000  H
  H15      1.0000 0.13350  0.43650  0.03140  Biso   1.000  H
  H16      1.0000 0.86650  0.93650  0.46860  Biso   1.000  H
  C17      1.0000 0.87950  0.70200  0.97790  Biso   1.000  C
  C18      1.0000 0.12050  0.20200  0.52210  Biso   1.000  C
  C19      1.0000 0.12050  0.29800  0.02210  Biso   1.000  C
  C20      1.0000 0.87950  0.79800  0.47790  Biso   1.000  C
  C21      1.0000 0.95230  0.70560  0.02570  Biso   1.000  C
  C22      1.0000 0.04770  0.20560  0.47430  Biso   1.000  C
  C23      1.0000 0.04770  0.29440  0.97430  Biso   1.000  C
  C24      1.0000 0.95230  0.79440  0.52570  Biso   1.000  C
  C25      1.0000 0.00200  0.63850  0.05170  Biso   1.000  C
  C26      1.0000 0.99800  0.13850  0.44830  Biso   1.000  C
  C27      1.0000 0.99800  0.36150  0.94830  Biso   1.000  C
  C28      1.0000 0.00200  0.86150  0.55170  Biso   1.000  C
  H17      1.0000 0.99710  0.57510  0.04390  Biso   1.000  H
  H18      1.0000 0.00290  0.07510  0.45610  Biso   1.000  H
  H19      1.0000 0.00290  0.42490  0.95610  Biso   1.000  H
  H20      1.0000 0.99710  0.92490  0.54390  Biso   1.000  H
  C29      1.0000 0.06120  0.68770  0.09250  Biso   1.000  C
  C30      1.0000 0.93880  0.18770  0.40750  Biso   1.000  C
  C31      1.0000 0.93880  0.31230  0.90750  Biso   1.000  C
  C32      1.0000 0.06120  0.81230  0.59250  Biso   1.000  C
  H21      1.0000 0.10390  0.66120  0.11720  Biso   1.000  H
  H22      1.0000 0.89610  0.16120  0.38280  Biso   1.000  H
  H23      1.0000 0.89610  0.33880  0.88280  Biso   1.000  H
  H24      1.0000 0.10390  0.83880  0.61720  Biso   1.000  H
  C33      1.0000 0.18500  0.88180  0.95600  Biso   1.000  C
  C34      1.0000 0.81500  0.38180  0.54400  Biso   1.000  C
  C35      1.0000 0.81500  0.11820  0.04400  Biso   1.000  C
  C36      1.0000 0.18500  0.61820  0.45600  Biso   1.000  C
  H25      1.0000 0.20730  0.85270  0.92680  Biso   1.000  H
  H26      1.0000 0.79270  0.35270  0.57320  Biso   1.000  H
  H27      1.0000 0.79270  0.14730  0.07320  Biso   1.000  H
  H28      1.0000 0.20730  0.64730  0.42680  Biso   1.000  H
  C37      1.0000 0.14840  0.96300  0.93860  Biso   1.000  C
  C38      1.0000 0.85160  0.46300  0.56140  Biso   1.000  C
  C39      1.0000 0.85160  0.03700  0.06140  Biso   1.000  C
  C40      1.0000 0.14840  0.53700  0.43860  Biso   1.000  C
  C41      1.0000 0.13090  0.02740  0.87240  Biso   1.000  C
  C42      1.0000 0.86910  0.52740  0.62760  Biso   1.000  C
  C43      1.0000 0.86910  0.97260  0.12760  Biso   1.000  C
  C44      1.0000 0.13090  0.47260  0.37240  Biso   1.000  C
  C45      1.0000 0.14930  0.01570  0.80670  Biso   1.000  C
  C46      1.0000 0.85070  0.51570  0.69330  Biso   1.000  C
  C47      1.0000 0.85070  0.98430  0.19330  Biso   1.000  C
  C48      1.0000 0.14930  0.48430  0.30670  Biso   1.000  C
  H29      1.0000 0.17350  0.96400  0.80200  Biso   1.000  H
  H30      1.0000 0.82650  0.46400  0.69800  Biso   1.000  H
  H31      1.0000 0.82650  0.03600  0.19800  Biso   1.000  H
  H32      1.0000 0.17350  0.53600  0.30200  Biso   1.000  H
  C49      1.0000 0.13030  0.08370  0.74830  Biso   1.000  C
  C50      1.0000 0.86970  0.58370  0.75170  Biso   1.000  C
  C51      1.0000 0.86970  0.91630  0.25170  Biso   1.000  C
  C52      1.0000 0.13030  0.41630  0.24830  Biso   1.000  C
  H33      1.0000 0.14140  0.07740  0.70340  Biso   1.000  H
  H34      1.0000 0.85860  0.57740  0.79660  Biso   1.000  H
  H35      1.0000 0.85860  0.92260  0.29660  Biso   1.000  H
  H36      1.0000 0.14140  0.42260  0.20340  Biso   1.000  H
  C53      1.0000 0.09540  0.15970  0.75710  Biso   1.000  C
  C54      1.0000 0.90460  0.65970  0.74290  Biso   1.000  C
  C55      1.0000 0.90460  0.84030  0.24290  Biso   1.000  C
  C56      1.0000 0.09540  0.34030  0.25710  Biso   1.000  C
  H37      1.0000 0.08380  0.20630  0.71910  Biso   1.000  H
  H38      1.0000 0.91620  0.70630  0.78090  Biso   1.000  H
  H39      1.0000 0.91620  0.79370  0.28090  Biso   1.000  H
  H40      1.0000 0.08380  0.29370  0.21910  Biso   1.000  H
  C57      1.0000 0.07800  0.16620  0.82240  Biso   1.000  C
  C58      1.0000 0.92200  0.66620  0.67760  Biso   1.000  C
  C59      1.0000 0.92200  0.83380  0.17760  Biso   1.000  C
  C60      1.0000 0.07800  0.33380  0.32240  Biso   1.000  C
  H41      1.0000 0.05390  0.21780  0.82800  Biso   1.000  H
  H42      1.0000 0.94610  0.71780  0.67200  Biso   1.000  H
  H43      1.0000 0.94610  0.78220  0.17200  Biso   1.000  H
  H44      1.0000 0.05390  0.28220  0.32800  Biso   1.000  H
  C61      1.0000 0.01060  0.14530  0.10100  Biso   1.000  C
  C62      1.0000 0.98940  0.64530  0.39900  Biso   1.000  C
  C63      1.0000 0.98940  0.85470  0.89900  Biso   1.000  C
  C64      1.0000 0.01060  0.35470  0.60100  Biso   1.000  C
  H45      1.0000 0.98980  0.19820  0.07380  Biso   1.000  H
  H46      1.0000 0.01020  0.69820  0.42620  Biso   1.000  H
  H47      1.0000 0.01020  0.80180  0.92620  Biso   1.000  H
  H48      1.0000 0.98980  0.30180  0.57380  Biso   1.000  H
  C65      1.0000 0.01090  0.11870  0.17470  Biso   1.000  C
  C66      1.0000 0.98910  0.61870  0.32530  Biso   1.000  C
  C67      1.0000 0.98910  0.88130  0.82530  Biso   1.000  C
  C68      1.0000 0.01090  0.38130  0.67470  Biso   1.000  C
  H49      1.0000 0.99200  0.14970  0.20660  Biso   1.000  H
  H50      1.0000 0.00800  0.64970  0.29340  Biso   1.000  H
  H51      1.0000 0.00800  0.85030  0.79340  Biso   1.000  H
  H52      1.0000 0.99200  0.35030  0.70660  Biso   1.000  H
  C69      1.0000 0.04520  0.03590  0.18990  Biso   1.000  C
  C70      1.0000 0.95480  0.53590  0.31010  Biso   1.000  C
  C71      1.0000 0.95480  0.96410  0.81010  Biso   1.000  C
  C72      1.0000 0.04520  0.46410  0.68990  Biso   1.000  C
  C73      1.0000 0.06240  0.96990  0.25460  Biso   1.000  C
  C74      1.0000 0.93760  0.46990  0.24540  Biso   1.000  C
  C75      1.0000 0.93760  0.03010  0.74540  Biso   1.000  C
  C76      1.0000 0.06240  0.53010  0.75460  Biso   1.000  C
  C77      1.0000 0.04790  0.98210  0.32270  Biso   1.000  C
  C78      1.0000 0.95210  0.48210  0.17730  Biso   1.000  C
  C79      1.0000 0.95210  0.01790  0.67730  Biso   1.000  C
  C80      1.0000 0.04790  0.51790  0.82270  Biso   1.000  C
  H53      1.0000 0.02650  0.03550  0.33000  Biso   1.000  H
  H54      1.0000 0.97350  0.53550  0.17000  Biso   1.000  H
  H55      1.0000 0.97350  0.96450  0.67000  Biso   1.000  H
  H56      1.0000 0.02650  0.46450  0.83000  Biso   1.000  H
  C81      1.0000 0.06570  0.91370  0.37880  Biso   1.000  C
  C82      1.0000 0.93430  0.41370  0.12120  Biso   1.000  C
  C83      1.0000 0.93430  0.08630  0.62120  Biso   1.000  C
  C84      1.0000 0.06570  0.58630  0.87880  Biso   1.000  C
  H57      1.0000 0.05730  0.92060  0.42550  Biso   1.000  H
  H58      1.0000 0.94270  0.42060  0.07450  Biso   1.000  H
  H59      1.0000 0.94270  0.07940  0.57450  Biso   1.000  H
  H60      1.0000 0.05730  0.57940  0.92550  Biso   1.000  H
  C85      1.0000 0.09600  0.83500  0.36570  Biso   1.000  C
  C86      1.0000 0.90400  0.33500  0.13430  Biso   1.000  C
  C87      1.0000 0.90400  0.16500  0.63430  Biso   1.000  C
  C88      1.0000 0.09600  0.66500  0.86570  Biso   1.000  C
  H61      1.0000 0.10720  0.78760  0.40290  Biso   1.000  H
  H62      1.0000 0.89280  0.28760  0.09710  Biso   1.000  H
  H63      1.0000 0.89280  0.21240  0.59710  Biso   1.000  H
  H64      1.0000 0.10720  0.71240  0.90290  Biso   1.000  H
  C89      1.0000 0.10970  0.82620  0.29790  Biso   1.000  C
  C90      1.0000 0.89030  0.32620  0.20210  Biso   1.000  C
  C91      1.0000 0.89030  0.17380  0.70210  Biso   1.000  C
  C92      1.0000 0.10970  0.67380  0.79790  Biso   1.000  C
  H65      1.0000 0.13020  0.77250  0.28950  Biso   1.000  H
  H66      1.0000 0.86980  0.27250  0.21050  Biso   1.000  H
  H67      1.0000 0.86980  0.22750  0.71050  Biso   1.000  H
  H68      1.0000 0.13020  0.72750  0.78950  Biso   1.000  H
  C93      1.0000 0.18070  0.85360  0.02670  Biso   1.000  C
  C94      1.0000 0.81930  0.35360  0.47330  Biso   1.000  C
  C95      1.0000 0.81930  0.14640  0.97330  Biso   1.000  C
  C96      1.0000 0.18070  0.64640  0.52670  Biso   1.000  C
  H69      1.0000 0.20050  0.80020  0.05390  Biso   1.000  H
  H70      1.0000 0.79950  0.30020  0.44610  Biso   1.000  H
  H71      1.0000 0.79950  0.19980  0.94610  Biso   1.000  H
  H72      1.0000 0.20050  0.69980  0.55390  Biso   1.000  H
  C97      1.0000 0.26260  0.01550  0.30660  Biso   1.000  C
  C98      1.0000 0.73740  0.51550  0.19340  Biso   1.000  C
  C99      1.0000 0.73740  0.98450  0.69340  Biso   1.000  C
  C100     1.0000 0.26260  0.48450  0.80660  Biso   1.000  C
  H73      1.0000 0.23130  0.97080  0.27880  Biso   1.000  H
  H74      1.0000 0.76870  0.47080  0.22120  Biso   1.000  H
  H75      1.0000 0.76870  0.02920  0.72120  Biso   1.000  H
  H76      1.0000 0.23130  0.52920  0.77880  Biso   1.000  H
  C101     1.0000 0.35970  0.91020  0.17920  Biso   1.000  C
  C102     1.0000 0.64030  0.41020  0.32080  Biso   1.000  C
  C103     1.0000 0.64030  0.08980  0.82080  Biso   1.000  C
  C104     1.0000 0.35970  0.58980  0.67920  Biso   1.000  C
  H77      1.0000 0.31480  0.90670  0.17620  Biso   1.000  H
  H78      1.0000 0.68520  0.40670  0.32380  Biso   1.000  H
  H79      1.0000 0.68520  0.09330  0.82380  Biso   1.000  H
  H80      1.0000 0.31480  0.59330  0.67620  Biso   1.000  H
  C105     1.0000 0.37240  0.91170  0.11000  Biso   1.000  C
  C106     1.0000 0.62760  0.41170  0.39000  Biso   1.000  C
  C107     1.0000 0.62760  0.08830  0.89000  Biso   1.000  C
  C108     1.0000 0.37240  0.58830  0.61000  Biso   1.000  C
  H81      1.0000 0.33690  0.90880  0.06090  Biso   1.000  H
  H82      1.0000 0.66310  0.40880  0.43910  Biso   1.000  H
  H83      1.0000 0.66310  0.09120  0.93910  Biso   1.000  H
  H84      1.0000 0.33690  0.59120  0.56090  Biso   1.000  H
  C109     1.0000 0.43910  0.91750  0.11490  Biso   1.000  C
  C110     1.0000 0.56090  0.41750  0.38510  Biso   1.000  C
  C111     1.0000 0.56090  0.08250  0.88510  Biso   1.000  C
  C112     1.0000 0.43910  0.58250  0.61490  Biso   1.000  C
  H85      1.0000 0.44890  0.91750  0.06890  Biso   1.000  H
  H86      1.0000 0.55110  0.41750  0.43110  Biso   1.000  H
  H87      1.0000 0.55110  0.08250  0.93110  Biso   1.000  H
  H88      1.0000 0.44890  0.58250  0.56890  Biso   1.000  H
  C113     1.0000 0.49140  0.92330  0.18840  Biso   1.000  C
  C114     1.0000 0.50860  0.42330  0.31160  Biso   1.000  C
  C115     1.0000 0.50860  0.07670  0.81160  Biso   1.000  C
  C116     1.0000 0.49140  0.57670  0.68840  Biso   1.000  C
  H89      1.0000 0.53640  0.92890  0.19260  Biso   1.000  H
  H90      1.0000 0.46360  0.42890  0.30740  Biso   1.000  H
  H91      1.0000 0.46360  0.07110  0.80740  Biso   1.000  H
  H92      1.0000 0.53640  0.57110  0.69260  Biso   1.000  H
  C117     1.0000 0.47480  0.92060  0.25620  Biso   1.000  C
  C118     1.0000 0.52520  0.42060  0.24380  Biso   1.000  C
  C119     1.0000 0.52520  0.07940  0.74380  Biso   1.000  C
  C120     1.0000 0.47480  0.57940  0.75620  Biso   1.000  C
  C121     1.0000 0.52350  0.92360  0.33700  Biso   1.000  C
  C122     1.0000 0.47650  0.42360  0.16300  Biso   1.000  C
  C123     1.0000 0.47650  0.07640  0.66300  Biso   1.000  C
  C124     1.0000 0.52350  0.57640  0.83700  Biso   1.000  C
  C125     1.0000 0.59240  0.93820  0.36940  Biso   1.000  C
  C126     1.0000 0.40760  0.43820  0.13060  Biso   1.000  C
  C127     1.0000 0.40760  0.06180  0.63060  Biso   1.000  C
  C128     1.0000 0.59240  0.56180  0.86940  Biso   1.000  C
  H93      1.0000 0.62180  0.94920  0.34290  Biso   1.000  H
  H94      1.0000 0.37820  0.44920  0.15710  Biso   1.000  H
  H95      1.0000 0.37820  0.05080  0.65710  Biso   1.000  H
  H96      1.0000 0.62180  0.55080  0.84290  Biso   1.000  H
  C129     1.0000 0.60840  0.93290  0.45130  Biso   1.000  C
  C130     1.0000 0.39160  0.43290  0.04870  Biso   1.000  C
  C131     1.0000 0.39160  0.06710  0.54870  Biso   1.000  C
  C132     1.0000 0.60840  0.56710  0.95130  Biso   1.000  C
  H97      1.0000 0.65160  0.94090  0.48980  Biso   1.000  H
  H98      1.0000 0.34840  0.44090  0.01020  Biso   1.000  H
  H99      1.0000 0.34840  0.05910  0.51020  Biso   1.000  H
  H100     1.0000 0.65160  0.55910  0.98980  Biso   1.000  H
  C133     1.0000 0.33930  0.83540  0.47290  Biso   1.000  C
  C134     1.0000 0.66070  0.33540  0.02710  Biso   1.000  C
  C135     1.0000 0.66070  0.16460  0.52710  Biso   1.000  C
  C136     1.0000 0.33930  0.66460  0.97290  Biso   1.000  C
  H101     1.0000 0.29620  0.83000  0.43370  Biso   1.000  H
  H102     1.0000 0.70380  0.33000  0.06630  Biso   1.000  H
  H103     1.0000 0.70380  0.17000  0.56630  Biso   1.000  H
  H104     1.0000 0.29620  0.67000  0.93370  Biso   1.000  H
  C137     1.0000 0.35410  0.82260  0.55310  Biso   1.000  C
  C138     1.0000 0.64590  0.32260  0.94690  Biso   1.000  C
  C139     1.0000 0.64590  0.17740  0.44690  Biso   1.000  C
  C140     1.0000 0.35410  0.67740  0.05310  Biso   1.000  C
  H105     1.0000 0.32420  0.80790  0.57820  Biso   1.000  H
  H106     1.0000 0.67580  0.30790  0.92180  Biso   1.000  H
  H107     1.0000 0.67580  0.19210  0.42180  Biso   1.000  H
  H108     1.0000 0.32420  0.69210  0.07820  Biso   1.000  H
  C141     1.0000 0.42320  0.83630  0.58730  Biso   1.000  C
  C142     1.0000 0.57680  0.33630  0.91270  Biso   1.000  C
  C143     1.0000 0.57680  0.16370  0.41270  Biso   1.000  C
  C144     1.0000 0.42320  0.66370  0.08730  Biso   1.000  C
  C145     1.0000 0.47110  0.83510  0.66920  Biso   1.000  C
  C146     1.0000 0.52890  0.33510  0.83080  Biso   1.000  C
  C147     1.0000 0.52890  0.16490  0.33080  Biso   1.000  C
  C148     1.0000 0.47110  0.66490  0.16920  Biso   1.000  C
  C149     1.0000 0.45410  0.81570  0.73450  Biso   1.000  C
  C150     1.0000 0.54590  0.31570  0.76550  Biso   1.000  C
  C151     1.0000 0.54590  0.18430  0.26550  Biso   1.000  C
  C152     1.0000 0.45410  0.68430  0.23450  Biso   1.000  C
  H109     1.0000 0.40940  0.80240  0.72820  Biso   1.000  H
  H110     1.0000 0.59060  0.30240  0.77180  Biso   1.000  H
  H111     1.0000 0.59060  0.19760  0.27180  Biso   1.000  H
  H112     1.0000 0.40940  0.69760  0.22820  Biso   1.000  H
  C153     1.0000 0.50450  0.81650  0.80860  Biso   1.000  C
  C154     1.0000 0.49550  0.31650  0.69140  Biso   1.000  C
  C155     1.0000 0.49550  0.18350  0.19140  Biso   1.000  C
  C156     1.0000 0.50450  0.68350  0.30860  Biso   1.000  C
  H113     1.0000 0.49420  0.80390  0.85330  Biso   1.000  H
  H114     1.0000 0.50580  0.30390  0.64670  Biso   1.000  H
  H115     1.0000 0.50580  0.19610  0.14670  Biso   1.000  H
  H116     1.0000 0.49420  0.69610  0.35330  Biso   1.000  H
  C157     1.0000 0.57080  0.83620  0.81670  Biso   1.000  C
  C158     1.0000 0.42920  0.33620  0.68330  Biso   1.000  C
  C159     1.0000 0.42920  0.16380  0.18330  Biso   1.000  C
  C160     1.0000 0.57080  0.66380  0.31670  Biso   1.000  C
  H117     1.0000 0.60570  0.83630  0.86630  Biso   1.000  H
  H118     1.0000 0.39430  0.33630  0.63370  Biso   1.000  H
  H119     1.0000 0.39430  0.16370  0.13370  Biso   1.000  H
  H120     1.0000 0.60570  0.66370  0.36630  Biso   1.000  H
  C161     1.0000 0.58370  0.85570  0.74900  Biso   1.000  C
  C162     1.0000 0.41630  0.35570  0.75100  Biso   1.000  C
  C163     1.0000 0.41630  0.14430  0.25100  Biso   1.000  C
  C164     1.0000 0.58370  0.64430  0.24900  Biso   1.000  C
  H121     1.0000 0.62810  0.86950  0.75430  Biso   1.000  H
  H122     1.0000 0.37190  0.36950  0.74570  Biso   1.000  H
  H123     1.0000 0.37190  0.13050  0.24570  Biso   1.000  H
  H124     1.0000 0.62810  0.63050  0.25430  Biso   1.000  H
  C165     1.0000 0.41600  0.33610  0.45850  Biso   1.000  C
  C166     1.0000 0.58400  0.83610  0.04150  Biso   1.000  C
  C167     1.0000 0.58400  0.66390  0.54150  Biso   1.000  C
  C168     1.0000 0.41600  0.16390  0.95850  Biso   1.000  C
  H125     1.0000 0.46260  0.34700  0.47900  Biso   1.000  H
  H126     1.0000 0.53740  0.84700  0.02100  Biso   1.000  H
  H127     1.0000 0.53740  0.65300  0.52100  Biso   1.000  H
  H128     1.0000 0.46260  0.15300  0.97900  Biso   1.000  H
  C169     1.0000 0.37360  0.40540  0.46380  Biso   1.000  C
  C170     1.0000 0.62640  0.90540  0.03620  Biso   1.000  C
  C171     1.0000 0.62640  0.59460  0.53620  Biso   1.000  C
  C172     1.0000 0.37360  0.09460  0.96380  Biso   1.000  C
  H129     1.0000 0.39100  0.46170  0.48710  Biso   1.000  H
  H130     1.0000 0.60900  0.96170  0.01290  Biso   1.000  H
  H131     1.0000 0.60900  0.53830  0.51290  Biso   1.000  H
  H132     1.0000 0.39100  0.03830  0.98710  Biso   1.000  H
  C173     1.0000 0.30470  0.38910  0.43370  Biso   1.000  C
  C174     1.0000 0.69530  0.88910  0.06630  Biso   1.000  C
  C175     1.0000 0.69530  0.61090  0.56630  Biso   1.000  C
  C176     1.0000 0.30470  0.11090  0.93370  Biso   1.000  C
  H133     1.0000 0.27460  0.43460  0.43630  Biso   1.000  H
  H134     1.0000 0.72540  0.93460  0.06370  Biso   1.000  H
  H135     1.0000 0.72540  0.56540  0.56370  Biso   1.000  H
  H136     1.0000 0.27460  0.06540  0.93630  Biso   1.000  H
  C177     1.0000 0.28050  0.30410  0.39940  Biso   1.000  C
  C178     1.0000 0.71950  0.80410  0.10060  Biso   1.000  C
  C179     1.0000 0.71950  0.69590  0.60060  Biso   1.000  C
  C180     1.0000 0.28050  0.19590  0.89940  Biso   1.000  C
  H137     1.0000 0.23410  0.29150  0.37950  Biso   1.000  H
  H138     1.0000 0.76590  0.79150  0.12050  Biso   1.000  H
  H139     1.0000 0.76590  0.70850  0.62050  Biso   1.000  H
  H140     1.0000 0.23410  0.20850  0.87950  Biso   1.000  H
  C181     1.0000 0.32680  0.23810  0.39520  Biso   1.000  C
  C182     1.0000 0.67320  0.73810  0.10480  Biso   1.000  C
  C183     1.0000 0.67320  0.76190  0.60480  Biso   1.000  C
  C184     1.0000 0.32680  0.26190  0.89520  Biso   1.000  C
  C185     1.0000 0.30720  0.14570  0.36150  Biso   1.000  C
  C186     1.0000 0.69280  0.64570  0.13850  Biso   1.000  C
  C187     1.0000 0.69280  0.85430  0.63850  Biso   1.000  C
  C188     1.0000 0.30720  0.35430  0.86150  Biso   1.000  C
  C189     1.0000 0.24600  0.10430  0.31950  Biso   1.000  C
  C190     1.0000 0.75400  0.60430  0.18050  Biso   1.000  C
  C191     1.0000 0.75400  0.89570  0.68050  Biso   1.000  C
  C192     1.0000 0.24600  0.39570  0.81950  Biso   1.000  C
  H141     1.0000 0.20280  0.13050  0.30330  Biso   1.000  H
  H142     1.0000 0.79720  0.63050  0.19670  Biso   1.000  H
  H143     1.0000 0.79720  0.86950  0.69670  Biso   1.000  H
  H144     1.0000 0.20280  0.36950  0.80330  Biso   1.000  H
  N1       1.0000 0.84863  0.78510  0.95880  Biso   1.000  N
  N2       1.0000 0.15137  0.28510  0.54120  Biso   1.000  N
  N3       1.0000 0.15137  0.21490  0.04120  Biso   1.000  N
  N4       1.0000 0.84863  0.71490  0.45880  Biso   1.000  N
  N5       1.0000 0.98093  0.78820  0.05042  Biso   1.000  N
  N6       1.0000 0.01907  0.28820  0.44958  Biso   1.000  N
  N7       1.0000 0.01907  0.21180  0.94958  Biso   1.000  N
  N8       1.0000 0.98093  0.71180  0.55042  Biso   1.000  N
  N9       1.0000 0.04474  0.08390  0.07480  Biso   1.000  N
  N10      1.0000 0.95526  0.58390  0.42520  Biso   1.000  N
  N11      1.0000 0.95526  0.91610  0.92520  Biso   1.000  N
  N12      1.0000 0.04474  0.41610  0.57480  Biso   1.000  N
  N13      1.0000 0.12454  0.98310  0.99662  Biso   1.000  N
  N14      1.0000 0.87546  0.48310  0.50338  Biso   1.000  N
  N15      1.0000 0.87546  0.01690  0.00338  Biso   1.000  N
  N16      1.0000 0.12454  0.51690  0.49662  Biso   1.000  N
  N17      1.0000 0.09436  0.10070  0.87904  Biso   1.000  N
  N18      1.0000 0.90564  0.60070  0.62096  Biso   1.000  N
  N19      1.0000 0.90564  0.89930  0.12096  Biso   1.000  N
  N20      1.0000 0.09436  0.39930  0.37904  Biso   1.000  N
  N21      1.0000 0.04855  0.77760  0.09143  Biso   1.000  N
  N22      1.0000 0.95145  0.27760  0.40857  Biso   1.000  N
  N23      1.0000 0.95145  0.22240  0.90857  Biso   1.000  N
  N24      1.0000 0.04855  0.72240  0.59143  Biso   1.000  N
  N25      1.0000 0.14425  0.91370  0.05110  Biso   1.000  N
  N26      1.0000 0.85575  0.41370  0.44890  Biso   1.000  N
  N27      1.0000 0.85575  0.08630  0.94890  Biso   1.000  N
  N28      1.0000 0.14425  0.58630  0.55110  Biso   1.000  N
  N29      1.0000 0.06576  0.01480  0.12923  Biso   1.000  N
  N30      1.0000 0.93424  0.51480  0.37077  Biso   1.000  N
  N31      1.0000 0.93424  0.98520  0.87077  Biso   1.000  N
  N32      1.0000 0.06576  0.48520  0.62923  Biso   1.000  N
  N33      1.0000 0.09405  0.89380  0.24315  Biso   1.000  N
  N34      1.0000 0.90595  0.39380  0.25685  Biso   1.000  N
  N35      1.0000 0.90595  0.10620  0.75685  Biso   1.000  N
  N36      1.0000 0.09405  0.60620  0.74315  Biso   1.000  N
  N37      1.0000 0.33041  0.00230  0.34004  Biso   1.000  N
  N38      1.0000 0.66959  0.50230  0.15996  Biso   1.000  N
  N39      1.0000 0.66959  0.99770  0.65996  Biso   1.000  N
  N40      1.0000 0.33041  0.49770  0.84004  Biso   1.000  N
  N41      1.0000 0.40986  0.91370  0.25108  Biso   1.000  N
  N42      1.0000 0.59014  0.41370  0.24892  Biso   1.000  N
  N43      1.0000 0.59014  0.08630  0.74892  Biso   1.000  N
  N44      1.0000 0.40986  0.58630  0.75108  Biso   1.000  N
  N45      1.0000 0.49894  0.90990  0.39491  Biso   1.000  N
  N46      1.0000 0.50106  0.40990  0.10509  Biso   1.000  N
  N47      1.0000 0.50106  0.09010  0.60509  Biso   1.000  N
  N48      1.0000 0.49894  0.59010  0.89491  Biso   1.000  N
  N49      1.0000 0.55228  0.91450  0.46602  Biso   1.000  N
  N50      1.0000 0.44772  0.41450  0.03398  Biso   1.000  N
  N51      1.0000 0.44772  0.08550  0.53398  Biso   1.000  N
  N52      1.0000 0.55228  0.58550  0.96602  Biso   1.000  N
  N53      1.0000 0.39575  0.85660  0.45953  Biso   1.000  N
  N54      1.0000 0.60425  0.35660  0.04047  Biso   1.000  N
  N55      1.0000 0.60425  0.14340  0.54047  Biso   1.000  N
  N56      1.0000 0.39575  0.64340  0.95953  Biso   1.000  N
  N57      1.0000 0.44783  0.85710  0.53088  Biso   1.000  N
  N58      1.0000 0.55217  0.35710  0.96912  Biso   1.000  N
  N59      1.0000 0.55217  0.14290  0.46912  Biso   1.000  N
  N60      1.0000 0.44783  0.64290  0.03088  Biso   1.000  N
  N61      1.0000 0.53568  0.85570  0.67667  Biso   1.000  N
  N62      1.0000 0.46432  0.35570  0.82333  Biso   1.000  N
  N63      1.0000 0.46432  0.14430  0.32333  Biso   1.000  N
  N64      1.0000 0.53568  0.64430  0.17667  Biso   1.000  N
  N65      1.0000 0.39418  0.25360  0.42550  Biso   1.000  N
  N66      1.0000 0.60582  0.75360  0.07450  Biso   1.000  N
  N67      1.0000 0.60582  0.74640  0.57450  Biso   1.000  N
  N68      1.0000 0.39418  0.24640  0.92550  Biso   1.000  N
  N69      1.0000 0.35755  0.08390  0.37331  Biso   1.000  N
  N70      1.0000 0.64245  0.58390  0.12669  Biso   1.000  N
  N71      1.0000 0.64245  0.91610  0.62669  Biso   1.000  N
  N72      1.0000 0.35755  0.41610  0.87331  Biso   1.000  N
  O1       1.0000 0.19737  0.81760  0.19520  Biso   1.000  O
  O2       1.0000 0.80263  0.31760  0.30480  Biso   1.000  O
  O3       1.0000 0.80263  0.18240  0.80480  Biso   1.000  O
  O4       1.0000 0.19737  0.68240  0.69520  Biso   1.000  O
  O5       1.0000 0.26989  0.65050  0.18121  Biso   1.000  O
  O6       1.0000 0.73011  0.15050  0.31879  Biso   1.000  O
  O7       1.0000 0.73011  0.34950  0.81879  Biso   1.000  O
  O8       1.0000 0.26989  0.84950  0.68121  Biso   1.000  O
  O9       1.0000 0.22745  0.67280  0.31193  Biso   1.000  O
  O10      1.0000 0.77255  0.17280  0.18807  Biso   1.000  O
  O11      1.0000 0.77255  0.32720  0.68807  Biso   1.000  O
  O12      1.0000 0.22745  0.82720  0.81193  Biso   1.000  O
  O13      1.0000 0.33662  0.78270  0.30463  Biso   1.000  O
  O14      1.0000 0.66338  0.28270  0.19537  Biso   1.000  O
  O15      1.0000 0.66338  0.21730  0.69537  Biso   1.000  O
  O16      1.0000 0.33662  0.71730  0.80463  Biso   1.000  O
  O17      1.0000 0.34070  0.50290  0.27600  Biso   1.000  O
  O18      1.0000 0.65930  0.00290  0.22400  Biso   1.000  O
  O19      1.0000 0.65930  0.49710  0.72400  Biso   1.000  O
  O20      1.0000 0.34070  0.99710  0.77600  Biso   1.000  O
  O21      1.0000 0.41010  0.62340  0.42195  Biso   1.000  O
  O22      1.0000 0.58990  0.12340  0.07805  Biso   1.000  O
  O23      1.0000 0.58990  0.37660  0.57805  Biso   1.000  O
  O24      1.0000 0.41010  0.87660  0.92195  Biso   1.000  O
  H145     1.0000 0.32300  0.55000  0.24400  Biso   1.000  H
  H146     1.0000 0.67700  0.05000  0.25600  Biso   1.000  H
  H147     1.0000 0.67700  0.45000  0.75600  Biso   1.000  H
  H148     1.0000 0.32300  0.95000  0.74400  Biso   1.000  H
  H149     1.0000 0.30390  0.48400  0.28400  Biso   1.000  H
  H150     1.0000 0.69610  0.98400  0.21600  Biso   1.000  H
  H151     1.0000 0.69610  0.51600  0.71600  Biso   1.000  H
  H152     1.0000 0.30390  0.01600  0.78400  Biso   1.000  H
  H153     1.0000 0.39700  0.59900  0.37410  Biso   1.000  H
  H154     1.0000 0.60300  0.09900  0.12590  Biso   1.000  H
  H155     1.0000 0.60300  0.40100  0.62590  Biso   1.000  H
  H156     1.0000 0.39700  0.90100  0.87410  Biso   1.000  H
  H157     1.0000 0.38300  0.66900  0.41900  Biso   1.000  H
  H158     1.0000 0.61700  0.16900  0.08100  Biso   1.000  H
  H159     1.0000 0.61700  0.33100  0.58100  Biso   1.000  H
  H160     1.0000 0.38300  0.83100  0.91900  Biso   1.000  H
  O25      1.0000 0.80400  0.40720  0.96740  Biso   1.000  O
  O26      1.0000 0.19600  0.90720  0.53260  Biso   1.000  O
  O27      1.0000 0.19600  0.59280  0.03260  Biso   1.000  O
  O28      1.0000 0.80400  0.09280  0.46740  Biso   1.000  O
  H161     1.0000 0.77500  0.40200  0.91470  Biso   1.000  H
  H162     1.0000 0.22500  0.90200  0.58530  Biso   1.000  H
  H163     1.0000 0.22500  0.59800  0.08530  Biso   1.000  H
  H164     1.0000 0.77500  0.09800  0.41470  Biso   1.000  H
  H165     1.0000 0.83970  0.43500  0.96300  Biso   1.000  H
  H166     1.0000 0.16030  0.93500  0.53700  Biso   1.000  H
  H167     1.0000 0.16030  0.56500  0.03700  Biso   1.000  H
  H168     1.0000 0.83970  0.06500  0.46300  Biso   1.000  H
