data_image0
_cell_length_a       13.5406
_cell_length_b       7.9202
_cell_length_c       16.596
_cell_angle_alpha    90
_cell_angle_beta     99.731
_cell_angle_gamma    90

_symmetry_space_group_name_H-M    "P 1"
_symmetry_int_tables_number       1

loop_
  _symmetry_equiv_pos_as_xyz
  'x, y, z'

loop_
  _atom_site_label
  _atom_site_occupancy
  _atom_site_fract_x
  _atom_site_fract_y
  _atom_site_fract_z
  _atom_site_thermal_displace_type
  _atom_site_B_iso_or_equiv
  _atom_site_type_symbol
  Cu1      1.0000 0.46965  0.29928  0.19791  Biso   1.000  Cu
  Cu2      1.0000 0.53035  0.79928  0.80209  Biso   1.000  Cu
  Cu3      1.0000 0.52274  0.45564  0.36415  Biso   1.000  Cu
  Cu4      1.0000 0.47726  0.95564  0.63585  Biso   1.000  Cu
  Cu5      1.0000 0.64669  0.90494  0.10140  Biso   1.000  Cu
  Cu6      1.0000 0.35331  0.40494  0.89860  Biso   1.000  Cu
  O1       1.0000 0.40750  0.41360  0.27890  Biso   1.000  O
  O2       1.0000 0.59250  0.91360  0.72110  Biso   1.000  O
  C1       1.0000 0.31360  0.47750  0.26370  Biso   1.000  C
  C2       1.0000 0.68640  0.97750  0.73630  Biso   1.000  C
  C3       1.0000 0.29220  0.63370  0.29480  Biso   1.000  C
  C4       1.0000 0.70780  0.13370  0.70520  Biso   1.000  C
  H1       1.0000 0.34420  0.69860  0.32440  Biso   1.000  H
  H2       1.0000 0.65580  0.19860  0.67560  Biso   1.000  H
  C5       1.0000 0.19590  0.69400  0.28260  Biso   1.000  C
  C6       1.0000 0.80410  0.19400  0.71740  Biso   1.000  C
  H3       1.0000 0.18210  0.79840  0.30520  Biso   1.000  H
  H4       1.0000 0.81790  0.29840  0.69480  Biso   1.000  H
  C7       1.0000 0.12070  0.60470  0.23830  Biso   1.000  C
  C8       1.0000 0.87930  0.10470  0.76170  Biso   1.000  C
  H5       1.0000 0.05450  0.64510  0.23170  Biso   1.000  H
  H6       1.0000 0.94550  0.14510  0.76830  Biso   1.000  H
  C9       1.0000 0.14090  0.45540  0.20320  Biso   1.000  C
  C10      1.0000 0.85910  0.95540  0.79680  Biso   1.000  C
  H7       1.0000 0.08820  0.39670  0.17090  Biso   1.000  H
  H8       1.0000 0.91180  0.89670  0.82910  Biso   1.000  H
  C11      1.0000 0.23810  0.38650  0.21370  Biso   1.000  C
  C12      1.0000 0.76190  0.88650  0.78630  Biso   1.000  C
  C13      1.0000 0.25780  0.22250  0.17570  Biso   1.000  C
  C14      1.0000 0.74220  0.72250  0.82430  Biso   1.000  C
  H9       1.0000 0.19670  0.18530  0.13970  Biso   1.000  H
  H10      1.0000 0.80330  0.68530  0.86030  Biso   1.000  H
  H11      1.0000 0.27470  0.13750  0.21870  Biso   1.000  H
  H12      1.0000 0.72530  0.63750  0.78130  Biso   1.000  H
  N1       1.0000 0.34090  0.23400  0.12760  Biso   1.000  N
  N2       1.0000 0.65910  0.73400  0.87240  Biso   1.000  N
  H13      1.0000 0.32470  0.31430  0.08740  Biso   1.000  H
  H14      1.0000 0.67530  0.81430  0.91260  Biso   1.000  H
  C15      1.0000 0.36010  0.06990  0.08820  Biso   1.000  C
  C16      1.0000 0.63990  0.56990  0.91180  Biso   1.000  C
  H15      1.0000 0.34030  0.97830  0.12280  Biso   1.000  H
  H16      1.0000 0.65970  0.47830  0.87720  Biso   1.000  H
  C17      1.0000 0.47130  0.05070  0.08750  Biso   1.000  C
  C18      1.0000 0.52870  0.55070  0.91250  Biso   1.000  C
  O3       1.0000 0.53140  0.15760  0.12550  Biso   1.000  O
  O4       1.0000 0.46860  0.65760  0.87450  Biso   1.000  O
  O5       1.0000 0.50000  0.92790  0.04990  Biso   1.000  O
  O6       1.0000 0.50000  0.42790  0.95010  Biso   1.000  O
  C19      1.0000 0.30170  0.04420  0.00180  Biso   1.000  C
  C20      1.0000 0.69830  0.54420  0.99820  Biso   1.000  C
  H17      1.0000 0.30010  0.92360  0.98860  Biso   1.000  H
  H18      1.0000 0.69990  0.42360  0.01140  Biso   1.000  H
  H19      1.0000 0.23250  0.08220  0.00000  Biso   1.000  H
  H20      1.0000 0.76750  0.58220  0.00000  Biso   1.000  H
  O7       1.0000 0.34450  0.13350  0.94270  Biso   1.000  O
  O8       1.0000 0.65550  0.63350  0.05730  Biso   1.000  O
  H21      1.0000 0.37940  0.06000  0.91290  Biso   1.000  H
  H22      1.0000 0.62060  0.56000  0.08710  Biso   1.000  H
  O9       1.0000 0.58670  0.34970  0.28180  Biso   1.000  O
  O10      1.0000 0.41330  0.84970  0.71820  Biso   1.000  O
  C21      1.0000 0.68590  0.35570  0.27950  Biso   1.000  C
  C22      1.0000 0.31410  0.85570  0.72050  Biso   1.000  C
  C23      1.0000 0.72050  0.35210  0.20490  Biso   1.000  C
  C24      1.0000 0.27950  0.85210  0.79510  Biso   1.000  C
  H23      1.0000 0.67410  0.34270  0.15620  Biso   1.000  H
  H24      1.0000 0.32590  0.84270  0.84380  Biso   1.000  H
  C25      1.0000 0.82100  0.36200  0.20120  Biso   1.000  C
  C26      1.0000 0.17900  0.86200  0.79880  Biso   1.000  C
  H25      1.0000 0.84270  0.36130  0.15030  Biso   1.000  H
  H26      1.0000 0.15730  0.86130  0.84970  Biso   1.000  H
  C27      1.0000 0.88990  0.37290  0.27250  Biso   1.000  C
  C28      1.0000 0.11010  0.87290  0.72750  Biso   1.000  C
  H27      1.0000 0.95890  0.37780  0.27070  Biso   1.000  H
  H28      1.0000 0.04110  0.87780  0.72930  Biso   1.000  H
  C29      1.0000 0.85570  0.37650  0.34750  Biso   1.000  C
  C30      1.0000 0.14430  0.87650  0.65250  Biso   1.000  C
  H29      1.0000 0.90270  0.38530  0.39600  Biso   1.000  H
  H30      1.0000 0.09730  0.88530  0.60400  Biso   1.000  H
  C31      1.0000 0.75570  0.36740  0.35240  Biso   1.000  C
  C32      1.0000 0.24430  0.86740  0.64760  Biso   1.000  C
  C33      1.0000 0.72280  0.36690  0.43490  Biso   1.000  C
  C34      1.0000 0.27720  0.86690  0.56510  Biso   1.000  C
  H31      1.0000 0.69490  0.25600  0.44450  Biso   1.000  H
  H32      1.0000 0.30510  0.75600  0.55550  Biso   1.000  H
  H33      1.0000 0.78110  0.38630  0.47760  Biso   1.000  H
  H34      1.0000 0.21890  0.88630  0.52240  Biso   1.000  H
  N3       1.0000 0.64690  0.49820  0.44030  Biso   1.000  N
  N4       1.0000 0.35310  0.99820  0.55970  Biso   1.000  N
  H35      1.0000 0.67250  0.59790  0.42420  Biso   1.000  H
  H36      1.0000 0.32750  0.09790  0.57580  Biso   1.000  H
  C35      1.0000 0.62270  0.52780  0.52230  Biso   1.000  C
  C36      1.0000 0.37730  0.02780  0.47770  Biso   1.000  C
  H37      1.0000 0.62630  0.41750  0.55070  Biso   1.000  H
  H38      1.0000 0.37370  0.91750  0.44930  Biso   1.000  H
  C37      1.0000 0.51460  0.59000  0.51380  Biso   1.000  C
  C38      1.0000 0.48540  0.09000  0.48620  Biso   1.000  C
  O11      1.0000 0.45720  0.55610  0.44720  Biso   1.000  O
  O12      1.0000 0.54280  0.05610  0.55280  Biso   1.000  O
  O13      1.0000 0.48820  0.66620  0.57110  Biso   1.000  O
  O14      1.0000 0.51180  0.16620  0.42890  Biso   1.000  O
  C39      1.0000 0.69660  0.64660  0.57440  Biso   1.000  C
  C40      1.0000 0.30340  0.14660  0.42560  Biso   1.000  C
  H39      1.0000 0.67470  0.66640  0.62690  Biso   1.000  H
  H40      1.0000 0.32530  0.16640  0.37310  Biso   1.000  H
  H41      1.0000 0.76300  0.59400  0.58520  Biso   1.000  H
  H42      1.0000 0.23700  0.09400  0.41480  Biso   1.000  H
  O15      1.0000 0.70250  0.80450  0.53320  Biso   1.000  O
  O16      1.0000 0.29750  0.30450  0.46680  Biso   1.000  O
  H43      1.0000 0.64740  0.85300  0.52780  Biso   1.000  H
  H44      1.0000 0.35260  0.35300  0.47220  Biso   1.000  H
  O17      1.0000 0.69660  0.98110  0.00670  Biso   1.000  O
  O18      1.0000 0.30340  0.48110  0.99330  Biso   1.000  O
  C41      1.0000 0.78680  0.05690  0.01140  Biso   1.000  C
  C42      1.0000 0.21320  0.55690  0.98860  Biso   1.000  C
  C43      1.0000 0.80190  0.17300  0.95170  Biso   1.000  C
  C44      1.0000 0.19810  0.67300  0.04830  Biso   1.000  C
  H45      1.0000 0.74950  0.19420  0.90790  Biso   1.000  H
  H46      1.0000 0.25050  0.69420  0.09210  Biso   1.000  H
  C45      1.0000 0.89180  0.25790  0.95490  Biso   1.000  C
  C46      1.0000 0.10820  0.75790  0.04510  Biso   1.000  C
  H47      1.0000 0.90040  0.33420  0.91330  Biso   1.000  H
  H48      1.0000 0.09960  0.83420  0.08670  Biso   1.000  H
  C47      1.0000 0.96970  0.22980  0.02030  Biso   1.000  C
  C48      1.0000 0.03030  0.72980  0.97970  Biso   1.000  C
  H49      1.0000 0.03000  0.29030  0.02450  Biso   1.000  H
  H50      1.0000 0.97000  0.79030  0.97550  Biso   1.000  H
  C49      1.0000 0.95640  0.11170  0.07860  Biso   1.000  C
  C50      1.0000 0.04360  0.61170  0.92140  Biso   1.000  C
  H51      1.0000 0.00910  0.09160  0.12220  Biso   1.000  H
  H52      1.0000 0.99090  0.59160  0.87780  Biso   1.000  H
  C51      1.0000 0.86770  0.02130  0.07520  Biso   1.000  C
  C52      1.0000 0.13230  0.52130  0.92480  Biso   1.000  C
  C53      1.0000 0.85950  0.89030  0.13820  Biso   1.000  C
  C54      1.0000 0.14050  0.39030  0.86180  Biso   1.000  C
  H53      1.0000 0.85040  0.77930  0.11190  Biso   1.000  H
  H54      1.0000 0.14960  0.27930  0.88810  Biso   1.000  H
  H55      1.0000 0.92180  0.88750  0.17800  Biso   1.000  H
  H56      1.0000 0.07820  0.38750  0.82200  Biso   1.000  H
  N5       1.0000 0.77460  0.92500  0.18090  Biso   1.000  N
  N6       1.0000 0.22540  0.42500  0.81910  Biso   1.000  N
  H57      1.0000 0.78020  0.03490  0.19900  Biso   1.000  H
  H58      1.0000 0.21980  0.53490  0.80100  Biso   1.000  H
  C55      1.0000 0.76850  0.81620  0.25180  Biso   1.000  C
  C56      1.0000 0.23150  0.31620  0.74820  Biso   1.000  C
  H59      1.0000 0.79500  0.70340  0.24100  Biso   1.000  H
  H60      1.0000 0.20500  0.20340  0.75900  Biso   1.000  H
  C57      1.0000 0.65800  0.79620  0.26170  Biso   1.000  C
  C58      1.0000 0.34200  0.29620  0.73830  Biso   1.000  C
  O19      1.0000 0.59360  0.81940  0.19540  Biso   1.000  O
  O20      1.0000 0.40640  0.31940  0.80460  Biso   1.000  O
  O21      1.0000 0.63440  0.75910  0.32680  Biso   1.000  O
  O22      1.0000 0.36560  0.25910  0.67320  Biso   1.000  O
  C59      1.0000 0.83150  0.88660  0.33300  Biso   1.000  C
  C60      1.0000 0.16850  0.38660  0.66700  Biso   1.000  C
  H61      1.0000 0.80960  0.00150  0.34310  Biso   1.000  H
  H62      1.0000 0.19040  0.50150  0.65690  Biso   1.000  H
  H63      1.0000 0.82160  0.81530  0.37920  Biso   1.000  H
  H64      1.0000 0.17840  0.31530  0.62080  Biso   1.000  H
  O23      1.0000 0.93140  0.88730  0.32530  Biso   1.000  O
  O24      1.0000 0.06860  0.38730  0.67470  Biso   1.000  O
  H65      1.0000 0.96620  0.90580  0.37050  Biso   1.000  H
  H66      1.0000 0.03380  0.40580  0.62950  Biso   1.000  H
  O25      1.0000 0.47890  0.54720  0.11680  Biso   1.000  O
  O26      1.0000 0.52110  0.04720  0.88320  Biso   1.000  O
  H67      1.0000 0.49200  0.64580  0.14330  Biso   1.000  H
  H68      1.0000 0.50800  0.14580  0.85670  Biso   1.000  H
  H69      1.0000 0.42700  0.56600  0.07700  Biso   1.000  H
  H70      1.0000 0.57300  0.06600  0.92300  Biso   1.000  H
  O27      1.0000 0.44610  0.01060  0.27540  Biso   1.000  O
  O28      1.0000 0.55390  0.51060  0.72460  Biso   1.000  O
  H71      1.0000 0.46700  0.04800  0.32640  Biso   1.000  H
  H72      1.0000 0.53300  0.54800  0.67360  Biso   1.000  H
  H73      1.0000 0.49800  0.95500  0.26000  Biso   1.000  H
  H74      1.0000 0.50200  0.45500  0.74000  Biso   1.000  H
  O29      1.0000 0.89480  0.93720  0.56720  Biso   1.000  O
  O30      1.0000 0.10520  0.43720  0.43280  Biso   1.000  O
  H75      1.0000 0.88500  0.93400  0.51240  Biso   1.000  H
  H76      1.0000 0.11500  0.43400  0.48760  Biso   1.000  H
  H77      1.0000 0.91300  0.83200  0.58400  Biso   1.000  H
  H78      1.0000 0.08700  0.33200  0.41600  Biso   1.000  H
  O31      1.0000 0.03360  0.07400  0.45170  Biso   1.000  O
  O32      1.0000 0.96640  0.57400  0.54830  Biso   1.000  O
  H79      1.0000 0.00300  0.12800  0.48800  Biso   1.000  H
  H80      1.0000 0.99700  0.62800  0.51200  Biso   1.000  H
  H81      1.0000 0.06400  0.15400  0.42600  Biso   1.000  H
  H82      1.0000 0.93600  0.65400  0.57400  Biso   1.000  H
