data_image0
_cell_length_a       8.6729
_cell_length_b       13.678
_cell_length_c       14.1078
_cell_angle_alpha    77.424
_cell_angle_beta     76.202
_cell_angle_gamma    73.774

_symmetry_space_group_name_H-M    "P 1"
_symmetry_int_tables_number       1

loop_
  _symmetry_equiv_pos_as_xyz
  'x, y, z'

loop_
  _atom_site_label
  _atom_site_occupancy
  _atom_site_fract_x
  _atom_site_fract_y
  _atom_site_fract_z
  _atom_site_thermal_displace_type
  _atom_site_B_iso_or_equiv
  _atom_site_type_symbol
  Cu1      1.0000 0.00000  0.50000  0.50000  Biso   1.000  Cu
  Cu2      1.0000 0.00000  0.00000  0.00000  Biso   1.000  Cu
  N1       1.0000 0.97700  0.56680  0.61920  Biso   1.000  N
  N2       1.0000 0.02300  0.43320  0.38080  Biso   1.000  N
  N3       1.0000 0.03220  0.62190  0.73900  Biso   1.000  N
  N4       1.0000 0.96780  0.37810  0.26100  Biso   1.000  N
  N5       1.0000 0.95580  0.37070  0.58520  Biso   1.000  N
  N6       1.0000 0.04420  0.62930  0.41480  Biso   1.000  N
  N7       1.0000 0.87080  0.22840  0.62780  Biso   1.000  N
  N8       1.0000 0.12920  0.77160  0.37220  Biso   1.000  N
  N9       1.0000 0.88970  0.05010  0.12880  Biso   1.000  N
  N10      1.0000 0.11030  0.94990  0.87120  Biso   1.000  N
  N11      1.0000 0.70030  0.10850  0.25070  Biso   1.000  N
  N12      1.0000 0.29970  0.89150  0.74930  Biso   1.000  N
  N13      1.0000 0.86020  0.12380  0.93140  Biso   1.000  N
  N14      1.0000 0.13980  0.87620  0.06860  Biso   1.000  N
  N15      1.0000 0.76620  0.28410  0.87300  Biso   1.000  N
  N16      1.0000 0.23380  0.71590  0.12700  Biso   1.000  N
  C1       1.0000 0.08530  0.55620  0.67330  Biso   1.000  C
  C2       1.0000 0.91470  0.44380  0.32670  Biso   1.000  C
  H1       1.0000 0.18650  0.50920  0.66720  Biso   1.000  H
  H2       1.0000 0.81350  0.49080  0.33280  Biso   1.000  H
  C3       1.0000 0.84800  0.64390  0.65170  Biso   1.000  C
  C4       1.0000 0.15200  0.35610  0.34830  Biso   1.000  C
  H3       1.0000 0.75230  0.66910  0.62630  Biso   1.000  H
  H4       1.0000 0.24770  0.33090  0.37370  Biso   1.000  H
  C5       1.0000 0.88030  0.67740  0.72570  Biso   1.000  C
  C6       1.0000 0.11970  0.32260  0.27430  Biso   1.000  C
  H5       1.0000 0.81220  0.72860  0.76090  Biso   1.000  H
  H6       1.0000 0.18780  0.27140  0.23910  Biso   1.000  H
  C7       1.0000 0.11760  0.62480  0.81660  Biso   1.000  C
  C8       1.0000 0.88240  0.37520  0.18340  Biso   1.000  C
  H7       1.0000 0.09880  0.69560  0.82610  Biso   1.000  H
  H8       1.0000 0.90120  0.30440  0.17390  Biso   1.000  H
  H9       1.0000 0.23430  0.59850  0.79580  Biso   1.000  H
  H10      1.0000 0.76570  0.40150  0.20420  Biso   1.000  H
  C9       1.0000 0.05810  0.56120  0.91260  Biso   1.000  C
  C10      1.0000 0.94190  0.43880  0.08740  Biso   1.000  C
  C11      1.0000 0.92570  0.60160  0.97970  Biso   1.000  C
  C12      1.0000 0.07430  0.39840  0.02030  Biso   1.000  C
  H11      1.0000 0.87310  0.67100  0.96670  Biso   1.000  H
  H12      1.0000 0.12690  0.32900  0.03330  Biso   1.000  H
  C13      1.0000 0.13200  0.45840  0.93320  Biso   1.000  C
  C14      1.0000 0.86800  0.54160  0.06680  Biso   1.000  C
  H13      1.0000 0.22140  0.42860  0.88860  Biso   1.000  H
  H14      1.0000 0.77860  0.57140  0.11140  Biso   1.000  H
  C15      1.0000 0.84780  0.32340  0.57600  Biso   1.000  C
  C16      1.0000 0.15220  0.67660  0.42400  Biso   1.000  C
  H15      1.0000 0.76660  0.35260  0.53850  Biso   1.000  H
  H16      1.0000 0.23340  0.64740  0.46150  Biso   1.000  H
  C17      1.0000 0.05130  0.30080  0.64620  Biso   1.000  C
  C18      1.0000 0.94870  0.69920  0.35380  Biso   1.000  C
  H17      1.0000 0.13820  0.31240  0.66650  Biso   1.000  H
  H18      1.0000 0.86180  0.68760  0.33350  Biso   1.000  H
  C19      1.0000 0.00000  0.21300  0.67210  Biso   1.000  C
  C20      1.0000 0.00000  0.78700  0.32790  Biso   1.000  C
  H19      1.0000 0.04440  0.15330  0.71240  Biso   1.000  H
  H20      1.0000 0.95560  0.84670  0.28760  Biso   1.000  H
  C21      1.0000 0.78920  0.15070  0.62170  Biso   1.000  C
  C22      1.0000 0.21080  0.84930  0.37830  Biso   1.000  C
  H21      1.0000 0.69210  0.18420  0.59360  Biso   1.000  H
  H22      1.0000 0.30790  0.81580  0.40640  Biso   1.000  H
  H23      1.0000 0.75520  0.11530  0.68770  Biso   1.000  H
  H24      1.0000 0.24480  0.88470  0.31230  Biso   1.000  H
  C23      1.0000 0.90180  0.07280  0.55840  Biso   1.000  C
  C24      1.0000 0.09820  0.92720  0.44160  Biso   1.000  C
  C25      1.0000 0.02910  0.09580  0.48600  Biso   1.000  C
  C26      1.0000 0.97090  0.90420  0.51400  Biso   1.000  C
  H25      1.0000 0.04980  0.16090  0.47560  Biso   1.000  H
  H26      1.0000 0.95020  0.83910  0.52440  Biso   1.000  H
  C27      1.0000 0.87300  0.97600  0.57170  Biso   1.000  C
  C28      1.0000 0.12700  0.02400  0.42830  Biso   1.000  C
  H27      1.0000 0.78670  0.95900  0.62000  Biso   1.000  H
  H28      1.0000 0.21330  0.04100  0.38000  Biso   1.000  H
  C29      1.0000 0.73160  0.07720  0.16220  Biso   1.000  C
  C30      1.0000 0.26840  0.92280  0.83780  Biso   1.000  C
  H29      1.0000 0.65180  0.07520  0.12920  Biso   1.000  H
  H30      1.0000 0.34820  0.92480  0.87080  Biso   1.000  H
  C31      1.0000 0.96200  0.06500  0.19900  Biso   1.000  C
  C32      1.0000 0.03800  0.93500  0.80100  Biso   1.000  C
  H31      1.0000 0.07420  0.05280  0.19510  Biso   1.000  H
  H32      1.0000 0.92580  0.94720  0.80490  Biso   1.000  H
  C33      1.0000 0.84650  0.09980  0.27450  Biso   1.000  C
  C34      1.0000 0.15350  0.90020  0.72550  Biso   1.000  C
  H33      1.0000 0.86360  0.11500  0.33170  Biso   1.000  H
  H34      1.0000 0.13640  0.88500  0.66830  Biso   1.000  H
  C35      1.0000 0.54000  0.14010  0.31350  Biso   1.000  C
  C36      1.0000 0.46000  0.85990  0.68650  Biso   1.000  C
  H35      1.0000 0.45500  0.14220  0.27870  Biso   1.000  H
  H36      1.0000 0.54500  0.85780  0.72130  Biso   1.000  H
  H37      1.0000 0.52640  0.20910  0.32660  Biso   1.000  H
  H38      1.0000 0.47360  0.79090  0.67340  Biso   1.000  H
  C37      1.0000 0.52150  0.06750  0.41010  Biso   1.000  C
  C38      1.0000 0.47850  0.93250  0.58990  Biso   1.000  C
  C39      1.0000 0.56340  0.96150  0.41280  Biso   1.000  C
  C40      1.0000 0.43660  0.03850  0.58720  Biso   1.000  C
  H39      1.0000 0.60600  0.93460  0.35420  Biso   1.000  H
  H40      1.0000 0.39400  0.06540  0.64580  Biso   1.000  H
  C41      1.0000 0.45780  0.10520  0.49780  Biso   1.000  C
  C42      1.0000 0.54220  0.89480  0.50220  Biso   1.000  C
  H41      1.0000 0.42860  0.17610  0.49730  Biso   1.000  H
  H42      1.0000 0.57140  0.82390  0.50270  Biso   1.000  H
  C43      1.0000 0.88510  0.21570  0.91190  Biso   1.000  C
  C44      1.0000 0.11490  0.78430  0.08810  Biso   1.000  C
  H43      1.0000 0.97560  0.23160  0.92370  Biso   1.000  H
  H44      1.0000 0.02440  0.76840  0.07630  Biso   1.000  H
  C45      1.0000 0.71510  0.13390  0.90350  Biso   1.000  C
  C46      1.0000 0.28490  0.86610  0.09650  Biso   1.000  C
  H45      1.0000 0.66520  0.08050  0.90880  Biso   1.000  H
  H46      1.0000 0.33480  0.91950  0.09120  Biso   1.000  H
  C47      1.0000 0.65660  0.23280  0.86730  Biso   1.000  C
  C48      1.0000 0.34340  0.76720  0.13270  Biso   1.000  C
  H47      1.0000 0.56000  0.26080  0.84310  Biso   1.000  H
  H48      1.0000 0.44000  0.73920  0.15690  Biso   1.000  H
  C49      1.0000 0.74550  0.39650  0.85080  Biso   1.000  C
  C50      1.0000 0.25450  0.60350  0.14920  Biso   1.000  C
  H49      1.0000 0.71380  0.42240  0.78680  Biso   1.000  H
  H50      1.0000 0.28620  0.57760  0.21320  Biso   1.000  H
  H51      1.0000 0.84880  0.41280  0.84750  Biso   1.000  H
  H52      1.0000 0.15120  0.58720  0.15250  Biso   1.000  H
  C51      1.0000 0.61700  0.44880  0.92890  Biso   1.000  C
  C52      1.0000 0.38300  0.55120  0.07110  Biso   1.000  C
  C53      1.0000 0.57660  0.39840  0.02460  Biso   1.000  C
  C54      1.0000 0.42340  0.60160  0.97540  Biso   1.000  C
  H53      1.0000 0.62730  0.32920  0.04150  Biso   1.000  H
  H54      1.0000 0.37270  0.67080  0.95850  Biso   1.000  H
  C55      1.0000 0.53760  0.55060  0.90460  Biso   1.000  C
  C56      1.0000 0.46240  0.44940  0.09540  Biso   1.000  C
  H55      1.0000 0.56090  0.58510  0.84030  Biso   1.000  H
  H56      1.0000 0.43910  0.41490  0.15970  Biso   1.000  H
  N17      1.0000 0.76890  0.88770  0.01650  Biso   1.000  N
  N18      1.0000 0.23110  0.11230  0.98350  Biso   1.000  N
  N19      1.0000 0.71570  0.87470  0.94690  Biso   1.000  N
  N20      1.0000 0.28430  0.12530  0.05310  Biso   1.000  N
  N21      1.0000 0.66120  0.87560  0.87310  Biso   1.000  N
  N22      1.0000 0.33880  0.12440  0.12690  Biso   1.000  N
  N23      1.0000 0.68840  0.57270  0.49700  Biso   1.000  N
  N24      1.0000 0.31160  0.42730  0.50300  Biso   1.000  N
  N25      1.0000 0.59700  0.56000  0.57750  Biso   1.000  N
  N26      1.0000 0.40300  0.44000  0.42250  Biso   1.000  N
  N27      1.0000 0.51500  0.53740  0.65900  Biso   1.000  N
  N28      1.0000 0.48500  0.46260  0.34100  Biso   1.000  N
  O1       1.0000 0.56500  0.65240  0.32040  Biso   1.000  O
  O2       1.0000 0.43500  0.34760  0.67960  Biso   1.000  O
  H57      1.0000 0.60570  0.63270  0.37250  Biso   1.000  H
  H58      1.0000 0.39430  0.36730  0.62750  Biso   1.000  H
  H59      1.0000 0.59040  0.70840  0.29040  Biso   1.000  H
  H60      1.0000 0.40960  0.29160  0.70960  Biso   1.000  H
  N29      1.0000 0.70630  0.86810  0.10830  Biso   1.000  N
  N30      1.0000 0.29370  0.13190  0.89170  Biso   1.000  N
  N31      1.0000 0.63930  0.85130  0.20090  Biso   1.000  N
  N32      1.0000 0.36070  0.14870  0.79910  Biso   1.000  N
  N33      1.0000 0.56500  0.59970  0.55480  Biso   1.000  N
  N34      1.0000 0.43500  0.40030  0.44520  Biso   1.000  N
  N35      1.0000 0.46400  0.60760  0.62960  Biso   1.000  N
  N36      1.0000 0.53600  0.39240  0.37040  Biso   1.000  N
