data_image0
_cell_length_a       11.624
_cell_length_b       11.624
_cell_length_c       30.72
_cell_angle_alpha    90
_cell_angle_beta     90
_cell_angle_gamma    90

_symmetry_space_group_name_H-M    "P 1"
_symmetry_int_tables_number       1

loop_
  _symmetry_equiv_pos_as_xyz
  'x, y, z'

loop_
  _atom_site_label
  _atom_site_occupancy
  _atom_site_fract_x
  _atom_site_fract_y
  _atom_site_fract_z
  _atom_site_thermal_displace_type
  _atom_site_B_iso_or_equiv
  _atom_site_type_symbol
  Cu1      1.0000 0.87779  0.04910  0.03079  Biso   1.000  Cu
  Cu2      1.0000 0.12221  0.95090  0.53079  Biso   1.000  Cu
  Cu3      1.0000 0.45090  0.37779  0.78079  Biso   1.000  Cu
  Cu4      1.0000 0.54910  0.62221  0.28079  Biso   1.000  Cu
  Cu5      1.0000 0.62221  0.54910  0.71921  Biso   1.000  Cu
  Cu6      1.0000 0.37779  0.45090  0.21921  Biso   1.000  Cu
  Cu7      1.0000 0.04910  0.87779  0.96921  Biso   1.000  Cu
  Cu8      1.0000 0.95090  0.12221  0.46921  Biso   1.000  Cu
  C1       1.0000 0.86920  0.86260  0.09862  Biso   1.000  C
  C2       1.0000 0.13080  0.13740  0.59862  Biso   1.000  C
  C3       1.0000 0.63740  0.36920  0.84862  Biso   1.000  C
  C4       1.0000 0.36260  0.63080  0.34862  Biso   1.000  C
  C5       1.0000 0.63080  0.36260  0.65138  Biso   1.000  C
  C6       1.0000 0.36920  0.63740  0.15138  Biso   1.000  C
  C7       1.0000 0.86260  0.86920  0.90138  Biso   1.000  C
  C8       1.0000 0.13740  0.13080  0.40138  Biso   1.000  C
  H1       1.0000 0.93470  0.89580  0.11060  Biso   1.000  H
  H2       1.0000 0.06530  0.10420  0.61060  Biso   1.000  H
  H3       1.0000 0.60420  0.43470  0.86060  Biso   1.000  H
  H4       1.0000 0.39580  0.56530  0.36060  Biso   1.000  H
  H5       1.0000 0.56530  0.39580  0.63940  Biso   1.000  H
  H6       1.0000 0.43470  0.60420  0.13940  Biso   1.000  H
  H7       1.0000 0.89580  0.93470  0.88940  Biso   1.000  H
  H8       1.0000 0.10420  0.06530  0.38940  Biso   1.000  H
  C9       1.0000 0.82350  0.76410  0.11802  Biso   1.000  C
  C10      1.0000 0.17650  0.23590  0.61802  Biso   1.000  C
  C11      1.0000 0.73590  0.32350  0.86802  Biso   1.000  C
  C12      1.0000 0.26410  0.67650  0.36802  Biso   1.000  C
  C13      1.0000 0.67650  0.26410  0.63198  Biso   1.000  C
  C14      1.0000 0.32350  0.73590  0.13198  Biso   1.000  C
  C15      1.0000 0.76410  0.82350  0.88198  Biso   1.000  C
  C16      1.0000 0.23590  0.17650  0.38198  Biso   1.000  C
  H9       1.0000 0.85870  0.73210  0.14240  Biso   1.000  H
  H10      1.0000 0.14130  0.26790  0.64240  Biso   1.000  H
  H11      1.0000 0.76790  0.35870  0.89240  Biso   1.000  H
  H12      1.0000 0.23210  0.64130  0.39240  Biso   1.000  H
  H13      1.0000 0.64130  0.23210  0.60760  Biso   1.000  H
  H14      1.0000 0.35870  0.76790  0.10760  Biso   1.000  H
  H15      1.0000 0.73210  0.85870  0.85760  Biso   1.000  H
  H16      1.0000 0.26790  0.14130  0.35760  Biso   1.000  H
  C17      1.0000 0.72600  0.71490  0.10079  Biso   1.000  C
  C18      1.0000 0.27400  0.28510  0.60079  Biso   1.000  C
  C19      1.0000 0.78510  0.22600  0.85079  Biso   1.000  C
  C20      1.0000 0.21490  0.77400  0.35079  Biso   1.000  C
  C21      1.0000 0.77400  0.21490  0.64921  Biso   1.000  C
  C22      1.0000 0.22600  0.78510  0.14921  Biso   1.000  C
  C23      1.0000 0.71490  0.72600  0.89921  Biso   1.000  C
  C24      1.0000 0.28510  0.27400  0.39921  Biso   1.000  C
  H17      1.0000 0.69460  0.64940  0.11340  Biso   1.000  H
  H18      1.0000 0.30540  0.35060  0.61340  Biso   1.000  H
  H19      1.0000 0.85060  0.19460  0.86340  Biso   1.000  H
  H20      1.0000 0.14940  0.80540  0.36340  Biso   1.000  H
  H21      1.0000 0.80540  0.14940  0.63660  Biso   1.000  H
  H22      1.0000 0.19460  0.85060  0.13660  Biso   1.000  H
  H23      1.0000 0.64940  0.69460  0.88660  Biso   1.000  H
  H24      1.0000 0.35060  0.30540  0.38660  Biso   1.000  H
  C25      1.0000 0.67460  0.76400  0.06426  Biso   1.000  C
  C26      1.0000 0.32540  0.23600  0.56426  Biso   1.000  C
  C27      1.0000 0.73600  0.17460  0.81426  Biso   1.000  C
  C28      1.0000 0.26400  0.82540  0.31426  Biso   1.000  C
  C29      1.0000 0.82540  0.26400  0.68574  Biso   1.000  C
  C30      1.0000 0.17460  0.73600  0.18574  Biso   1.000  C
  C31      1.0000 0.76400  0.67460  0.93574  Biso   1.000  C
  C32      1.0000 0.23600  0.32540  0.43574  Biso   1.000  C
  C33      1.0000 0.57190  0.71810  0.04370  Biso   1.000  C
  C34      1.0000 0.42810  0.28190  0.54370  Biso   1.000  C
  C35      1.0000 0.78190  0.07190  0.79370  Biso   1.000  C
  C36      1.0000 0.21810  0.92810  0.29370  Biso   1.000  C
  C37      1.0000 0.92810  0.21810  0.70630  Biso   1.000  C
  C38      1.0000 0.07190  0.78190  0.20630  Biso   1.000  C
  C39      1.0000 0.71810  0.57190  0.95630  Biso   1.000  C
  C40      1.0000 0.28190  0.42810  0.45630  Biso   1.000  C
  C41      1.0000 0.43140  0.58180  0.04054  Biso   1.000  C
  C42      1.0000 0.56860  0.41820  0.54054  Biso   1.000  C
  C43      1.0000 0.91820  0.93140  0.79054  Biso   1.000  C
  C44      1.0000 0.08180  0.06860  0.29054  Biso   1.000  C
  C45      1.0000 0.06860  0.08180  0.70946  Biso   1.000  C
  C46      1.0000 0.93140  0.91820  0.20946  Biso   1.000  C
  C47      1.0000 0.58180  0.43140  0.95946  Biso   1.000  C
  C48      1.0000 0.41820  0.56860  0.45946  Biso   1.000  C
  C49      1.0000 0.37740  0.48140  0.05727  Biso   1.000  C
  C50      1.0000 0.62260  0.51860  0.55727  Biso   1.000  C
  C51      1.0000 0.01860  0.87740  0.80727  Biso   1.000  C
  C52      1.0000 0.98140  0.12260  0.30727  Biso   1.000  C
  C53      1.0000 0.12260  0.98140  0.69273  Biso   1.000  C
  C54      1.0000 0.87740  0.01860  0.19273  Biso   1.000  C
  C55      1.0000 0.48140  0.37740  0.94273  Biso   1.000  C
  C56      1.0000 0.51860  0.62260  0.44273  Biso   1.000  C
  H25      1.0000 0.40660  0.44550  0.08200  Biso   1.000  H
  H26      1.0000 0.59340  0.55450  0.58200  Biso   1.000  H
  H27      1.0000 0.05450  0.90660  0.83200  Biso   1.000  H
  H28      1.0000 0.94550  0.09340  0.33200  Biso   1.000  H
  H29      1.0000 0.09340  0.94550  0.66800  Biso   1.000  H
  H30      1.0000 0.90660  0.05450  0.16800  Biso   1.000  H
  H31      1.0000 0.44550  0.40660  0.91800  Biso   1.000  H
  H32      1.0000 0.55450  0.59340  0.41800  Biso   1.000  H
  C57      1.0000 0.28310  0.43820  0.03705  Biso   1.000  C
  C58      1.0000 0.71690  0.56180  0.53705  Biso   1.000  C
  C59      1.0000 0.06180  0.78310  0.78705  Biso   1.000  C
  C60      1.0000 0.93820  0.21690  0.28705  Biso   1.000  C
  C61      1.0000 0.21690  0.93820  0.71295  Biso   1.000  C
  C62      1.0000 0.78310  0.06180  0.21295  Biso   1.000  C
  C63      1.0000 0.43820  0.28310  0.96295  Biso   1.000  C
  C64      1.0000 0.56180  0.71690  0.46295  Biso   1.000  C
  H33      1.0000 0.24690  0.37330  0.04830  Biso   1.000  H
  H34      1.0000 0.75310  0.62670  0.54830  Biso   1.000  H
  H35      1.0000 0.12670  0.74690  0.79830  Biso   1.000  H
  H36      1.0000 0.87330  0.25310  0.29830  Biso   1.000  H
  H37      1.0000 0.25310  0.87330  0.70170  Biso   1.000  H
  H38      1.0000 0.74690  0.12670  0.20170  Biso   1.000  H
  H39      1.0000 0.37330  0.24690  0.95170  Biso   1.000  H
  H40      1.0000 0.62670  0.75310  0.45170  Biso   1.000  H
  C65      1.0000 0.23920  0.49090  0.99900  Biso   1.000  C
  C66      1.0000 0.76080  0.50910  0.49900  Biso   1.000  C
  C67      1.0000 0.00910  0.73920  0.74900  Biso   1.000  C
  C68      1.0000 0.99090  0.26080  0.24900  Biso   1.000  C
  C69      1.0000 0.26080  0.99090  0.75100  Biso   1.000  C
  C70      1.0000 0.73920  0.00910  0.25100  Biso   1.000  C
  C71      1.0000 0.49090  0.23920  0.00100  Biso   1.000  C
  C72      1.0000 0.50910  0.76080  0.50100  Biso   1.000  C
  H41      1.0000 0.17530  0.45930  0.98530  Biso   1.000  H
  H42      1.0000 0.82470  0.54070  0.48530  Biso   1.000  H
  H43      1.0000 0.04070  0.67530  0.73530  Biso   1.000  H
  H44      1.0000 0.95930  0.32470  0.23530  Biso   1.000  H
  H45      1.0000 0.32470  0.95930  0.76470  Biso   1.000  H
  H46      1.0000 0.67530  0.04070  0.26470  Biso   1.000  H
  H47      1.0000 0.45930  0.17530  0.01470  Biso   1.000  H
  H48      1.0000 0.54070  0.82470  0.51470  Biso   1.000  H
  C73      1.0000 0.28840  0.58630  0.98240  Biso   1.000  C
  C74      1.0000 0.71160  0.41370  0.48240  Biso   1.000  C
  C75      1.0000 0.91370  0.78840  0.73240  Biso   1.000  C
  C76      1.0000 0.08630  0.21160  0.23240  Biso   1.000  C
  C77      1.0000 0.21160  0.08630  0.76760  Biso   1.000  C
  C78      1.0000 0.78840  0.91370  0.26760  Biso   1.000  C
  C79      1.0000 0.58630  0.28840  0.01760  Biso   1.000  C
  C80      1.0000 0.41370  0.71160  0.51760  Biso   1.000  C
  H49      1.0000 0.25810  0.61980  0.95740  Biso   1.000  H
  H50      1.0000 0.74190  0.38020  0.45740  Biso   1.000  H
  H51      1.0000 0.88020  0.75810  0.70740  Biso   1.000  H
  H52      1.0000 0.11980  0.24190  0.20740  Biso   1.000  H
  H53      1.0000 0.24190  0.11980  0.79260  Biso   1.000  H
  H54      1.0000 0.75810  0.88020  0.29260  Biso   1.000  H
  H55      1.0000 0.61980  0.25810  0.04260  Biso   1.000  H
  H56      1.0000 0.38020  0.74190  0.54260  Biso   1.000  H
  C81      1.0000 0.38500  0.63540  0.00245  Biso   1.000  C
  C82      1.0000 0.61500  0.36460  0.50245  Biso   1.000  C
  C83      1.0000 0.86460  0.88500  0.75245  Biso   1.000  C
  C84      1.0000 0.13540  0.11500  0.25245  Biso   1.000  C
  C85      1.0000 0.11500  0.13540  0.74755  Biso   1.000  C
  C86      1.0000 0.88500  0.86460  0.24755  Biso   1.000  C
  C87      1.0000 0.63540  0.38500  0.99755  Biso   1.000  C
  C88      1.0000 0.36460  0.61500  0.49755  Biso   1.000  C
  C89      1.0000 0.52580  0.77280  0.00600  Biso   1.000  C
  C90      1.0000 0.47420  0.22720  0.50600  Biso   1.000  C
  C91      1.0000 0.72720  0.02580  0.75600  Biso   1.000  C
  C92      1.0000 0.27280  0.97420  0.25600  Biso   1.000  C
  C93      1.0000 0.97420  0.27280  0.74400  Biso   1.000  C
  C94      1.0000 0.02580  0.72720  0.24400  Biso   1.000  C
  C95      1.0000 0.77280  0.52580  0.99400  Biso   1.000  C
  C96      1.0000 0.22720  0.47420  0.49400  Biso   1.000  C
  C97      1.0000 0.58000  0.87680  0.98900  Biso   1.000  C
  C98      1.0000 0.42000  0.12320  0.48900  Biso   1.000  C
  C99      1.0000 0.62320  0.08000  0.73900  Biso   1.000  C
  C100     1.0000 0.37680  0.92000  0.23900  Biso   1.000  C
  C101     1.0000 0.92000  0.37680  0.76100  Biso   1.000  C
  C102     1.0000 0.08000  0.62320  0.26100  Biso   1.000  C
  C103     1.0000 0.87680  0.58000  0.01100  Biso   1.000  C
  C104     1.0000 0.12320  0.42000  0.51100  Biso   1.000  C
  C105     1.0000 0.53700  0.93680  0.95303  Biso   1.000  C
  C106     1.0000 0.46300  0.06320  0.45303  Biso   1.000  C
  C107     1.0000 0.56320  0.03700  0.70303  Biso   1.000  C
  C108     1.0000 0.43680  0.96300  0.20303  Biso   1.000  C
  C109     1.0000 0.96300  0.43680  0.79697  Biso   1.000  C
  C110     1.0000 0.03700  0.56320  0.29697  Biso   1.000  C
  C111     1.0000 0.93680  0.53700  0.04697  Biso   1.000  C
  C112     1.0000 0.06320  0.46300  0.54697  Biso   1.000  C
  H57      1.0000 0.47050  0.91210  0.93900  Biso   1.000  H
  H58      1.0000 0.52950  0.08790  0.43900  Biso   1.000  H
  H59      1.0000 0.58790  0.97050  0.68900  Biso   1.000  H
  H60      1.0000 0.41210  0.02950  0.18900  Biso   1.000  H
  H61      1.0000 0.02950  0.41210  0.81100  Biso   1.000  H
  H62      1.0000 0.97050  0.58790  0.31100  Biso   1.000  H
  H63      1.0000 0.91210  0.47050  0.06100  Biso   1.000  H
  H64      1.0000 0.08790  0.52950  0.56100  Biso   1.000  H
  C113     1.0000 0.59480  0.03250  0.93880  Biso   1.000  C
  C114     1.0000 0.40520  0.96750  0.43880  Biso   1.000  C
  C115     1.0000 0.46750  0.09480  0.68880  Biso   1.000  C
  C116     1.0000 0.53250  0.90520  0.18880  Biso   1.000  C
  C117     1.0000 0.90520  0.53250  0.81120  Biso   1.000  C
  C118     1.0000 0.09480  0.46750  0.31120  Biso   1.000  C
  C119     1.0000 0.03250  0.59480  0.06120  Biso   1.000  C
  C120     1.0000 0.96750  0.40520  0.56120  Biso   1.000  C
  H65      1.0000 0.56800  0.07340  0.91480  Biso   1.000  H
  H66      1.0000 0.43200  0.92660  0.41480  Biso   1.000  H
  H67      1.0000 0.42660  0.06800  0.66480  Biso   1.000  H
  H68      1.0000 0.57340  0.93200  0.16480  Biso   1.000  H
  H69      1.0000 0.93200  0.57340  0.83520  Biso   1.000  H
  H70      1.0000 0.06800  0.42660  0.33520  Biso   1.000  H
  H71      1.0000 0.07340  0.56800  0.08520  Biso   1.000  H
  H72      1.0000 0.92660  0.43200  0.58520  Biso   1.000  H
  C121     1.0000 0.69440  0.06850  0.96056  Biso   1.000  C
  C122     1.0000 0.30560  0.93150  0.46056  Biso   1.000  C
  C123     1.0000 0.43150  0.19440  0.71056  Biso   1.000  C
  C124     1.0000 0.56850  0.80560  0.21056  Biso   1.000  C
  C125     1.0000 0.80560  0.56850  0.78944  Biso   1.000  C
  C126     1.0000 0.19440  0.43150  0.28944  Biso   1.000  C
  C127     1.0000 0.06850  0.69440  0.03944  Biso   1.000  C
  C128     1.0000 0.93150  0.30560  0.53944  Biso   1.000  C
  H73      1.0000 0.73240  0.13410  0.95100  Biso   1.000  H
  H74      1.0000 0.26760  0.86590  0.45100  Biso   1.000  H
  H75      1.0000 0.36590  0.23240  0.70100  Biso   1.000  H
  H76      1.0000 0.63410  0.76760  0.20100  Biso   1.000  H
  H77      1.0000 0.76760  0.63410  0.79900  Biso   1.000  H
  H78      1.0000 0.23240  0.36590  0.29900  Biso   1.000  H
  H79      1.0000 0.13410  0.73240  0.04900  Biso   1.000  H
  H80      1.0000 0.86590  0.26760  0.54900  Biso   1.000  H
  C129     1.0000 0.67760  0.91780  0.00880  Biso   1.000  C
  C130     1.0000 0.32240  0.08220  0.50880  Biso   1.000  C
  C131     1.0000 0.58220  0.17760  0.75880  Biso   1.000  C
  C132     1.0000 0.41780  0.82240  0.25880  Biso   1.000  C
  C133     1.0000 0.82240  0.41780  0.74120  Biso   1.000  C
  C134     1.0000 0.17760  0.58220  0.24120  Biso   1.000  C
  C135     1.0000 0.91780  0.67760  0.99120  Biso   1.000  C
  C136     1.0000 0.08220  0.32240  0.49120  Biso   1.000  C
  C137     1.0000 0.72600  0.86090  0.04663  Biso   1.000  C
  C138     1.0000 0.27400  0.13910  0.54663  Biso   1.000  C
  C139     1.0000 0.63910  0.22600  0.79663  Biso   1.000  C
  C140     1.0000 0.36090  0.77400  0.29663  Biso   1.000  C
  C141     1.0000 0.77400  0.36090  0.70337  Biso   1.000  C
  C142     1.0000 0.22600  0.63910  0.20337  Biso   1.000  C
  C143     1.0000 0.86090  0.72600  0.95337  Biso   1.000  C
  C144     1.0000 0.13910  0.27400  0.45337  Biso   1.000  C
  C145     1.0000 0.99600  0.13480  0.95774  Biso   1.000  C
  C146     1.0000 0.00400  0.86520  0.45774  Biso   1.000  C
  C147     1.0000 0.36520  0.49600  0.70774  Biso   1.000  C
  C148     1.0000 0.63480  0.50400  0.20774  Biso   1.000  C
  C149     1.0000 0.50400  0.63480  0.79226  Biso   1.000  C
  C150     1.0000 0.49600  0.36520  0.29226  Biso   1.000  C
  C151     1.0000 0.13480  0.99600  0.04226  Biso   1.000  C
  C152     1.0000 0.86520  0.00400  0.54226  Biso   1.000  C
  C153     1.0000 0.04870  0.23230  0.93187  Biso   1.000  C
  C154     1.0000 0.95130  0.76770  0.43187  Biso   1.000  C
  C155     1.0000 0.26770  0.54870  0.68187  Biso   1.000  C
  C156     1.0000 0.73230  0.45130  0.18187  Biso   1.000  C
  C157     1.0000 0.45130  0.73230  0.81813  Biso   1.000  C
  C158     1.0000 0.54870  0.26770  0.31813  Biso   1.000  C
  C159     1.0000 0.23230  0.04870  0.06813  Biso   1.000  C
  C160     1.0000 0.76770  0.95130  0.56813  Biso   1.000  C
  C161     1.0000 0.00270  0.34200  0.93566  Biso   1.000  C
  C162     1.0000 0.99730  0.65800  0.43566  Biso   1.000  C
  C163     1.0000 0.15800  0.50270  0.68566  Biso   1.000  C
  C164     1.0000 0.84200  0.49730  0.18566  Biso   1.000  C
  C165     1.0000 0.49730  0.84200  0.81434  Biso   1.000  C
  C166     1.0000 0.50270  0.15800  0.31434  Biso   1.000  C
  C167     1.0000 0.34200  0.00270  0.06434  Biso   1.000  C
  C168     1.0000 0.65800  0.99730  0.56434  Biso   1.000  C
  H81      1.0000 0.93910  0.35530  0.95330  Biso   1.000  H
  H82      1.0000 0.06090  0.64470  0.45330  Biso   1.000  H
  H83      1.0000 0.14470  0.43910  0.70330  Biso   1.000  H
  H84      1.0000 0.85530  0.56090  0.20330  Biso   1.000  H
  H85      1.0000 0.56090  0.85530  0.79670  Biso   1.000  H
  H86      1.0000 0.43910  0.14470  0.29670  Biso   1.000  H
  H87      1.0000 0.35530  0.93910  0.04670  Biso   1.000  H
  H88      1.0000 0.64470  0.06090  0.54670  Biso   1.000  H
  C169     1.0000 0.05320  0.43180  0.91261  Biso   1.000  C
  C170     1.0000 0.94680  0.56820  0.41261  Biso   1.000  C
  C171     1.0000 0.06820  0.55320  0.66261  Biso   1.000  C
  C172     1.0000 0.93180  0.44680  0.16261  Biso   1.000  C
  C173     1.0000 0.44680  0.93180  0.83739  Biso   1.000  C
  C174     1.0000 0.55320  0.06820  0.33739  Biso   1.000  C
  C175     1.0000 0.43180  0.05320  0.08739  Biso   1.000  C
  C176     1.0000 0.56820  0.94680  0.58739  Biso   1.000  C
  C177     1.0000 0.14810  0.41110  0.88638  Biso   1.000  C
  C178     1.0000 0.85190  0.58890  0.38638  Biso   1.000  C
  C179     1.0000 0.08890  0.64810  0.63638  Biso   1.000  C
  C180     1.0000 0.91110  0.35190  0.13638  Biso   1.000  C
  C181     1.0000 0.35190  0.91110  0.86362  Biso   1.000  C
  C182     1.0000 0.64810  0.08890  0.36362  Biso   1.000  C
  C183     1.0000 0.41110  0.14810  0.11362  Biso   1.000  C
  C184     1.0000 0.58890  0.85190  0.61362  Biso   1.000  C
  H89      1.0000 0.18130  0.47130  0.87090  Biso   1.000  H
  H90      1.0000 0.81870  0.52870  0.37090  Biso   1.000  H
  H91      1.0000 0.02870  0.68130  0.62090  Biso   1.000  H
  H92      1.0000 0.97130  0.31870  0.12090  Biso   1.000  H
  H93      1.0000 0.31870  0.97130  0.87910  Biso   1.000  H
  H94      1.0000 0.68130  0.02870  0.37910  Biso   1.000  H
  H95      1.0000 0.47130  0.18130  0.12910  Biso   1.000  H
  H96      1.0000 0.52870  0.81870  0.62910  Biso   1.000  H
  C185     1.0000 0.19350  0.30150  0.88312  Biso   1.000  C
  C186     1.0000 0.80650  0.69850  0.38312  Biso   1.000  C
  C187     1.0000 0.19850  0.69350  0.63312  Biso   1.000  C
  C188     1.0000 0.80150  0.30650  0.13312  Biso   1.000  C
  C189     1.0000 0.30650  0.80150  0.86688  Biso   1.000  C
  C190     1.0000 0.69350  0.19850  0.36688  Biso   1.000  C
  C191     1.0000 0.30150  0.19350  0.11688  Biso   1.000  C
  C192     1.0000 0.69850  0.80650  0.61688  Biso   1.000  C
  C193     1.0000 0.14270  0.21070  0.90589  Biso   1.000  C
  C194     1.0000 0.85730  0.78930  0.40589  Biso   1.000  C
  C195     1.0000 0.28930  0.64270  0.65589  Biso   1.000  C
  C196     1.0000 0.71070  0.35730  0.15589  Biso   1.000  C
  C197     1.0000 0.35730  0.71070  0.84411  Biso   1.000  C
  C198     1.0000 0.64270  0.28930  0.34411  Biso   1.000  C
  C199     1.0000 0.21070  0.14270  0.09411  Biso   1.000  C
  C200     1.0000 0.78930  0.85730  0.59411  Biso   1.000  C
  H97      1.0000 0.17210  0.13660  0.90350  Biso   1.000  H
  H98      1.0000 0.82790  0.86340  0.40350  Biso   1.000  H
  H99      1.0000 0.36340  0.67210  0.65350  Biso   1.000  H
  H100     1.0000 0.63660  0.32790  0.15350  Biso   1.000  H
  H101     1.0000 0.32790  0.63660  0.84650  Biso   1.000  H
  H102     1.0000 0.67210  0.36340  0.34650  Biso   1.000  H
  H103     1.0000 0.13660  0.17210  0.09650  Biso   1.000  H
  H104     1.0000 0.86340  0.82790  0.59650  Biso   1.000  H
  C201     1.0000 0.30000  0.28060  0.85554  Biso   1.000  C
  C202     1.0000 0.70000  0.71940  0.35554  Biso   1.000  C
  C203     1.0000 0.21940  0.80000  0.60554  Biso   1.000  C
  C204     1.0000 0.78060  0.20000  0.10554  Biso   1.000  C
  C205     1.0000 0.20000  0.78060  0.89446  Biso   1.000  C
  C206     1.0000 0.80000  0.21940  0.39446  Biso   1.000  C
  C207     1.0000 0.28060  0.30000  0.14446  Biso   1.000  C
  C208     1.0000 0.71940  0.70000  0.64446  Biso   1.000  C
  N1       1.0000 0.82180  0.91060  0.06340  Biso   1.000  N
  N2       1.0000 0.17820  0.08940  0.56340  Biso   1.000  N
  N3       1.0000 0.58940  0.32180  0.81340  Biso   1.000  N
  N4       1.0000 0.41060  0.67820  0.31340  Biso   1.000  N
  N5       1.0000 0.67820  0.41060  0.68660  Biso   1.000  N
  N6       1.0000 0.32180  0.58940  0.18660  Biso   1.000  N
  N7       1.0000 0.91060  0.82180  0.93660  Biso   1.000  N
  N8       1.0000 0.08940  0.17820  0.43660  Biso   1.000  N
  N9       1.0000 0.73590  0.01150  0.99448  Biso   1.000  N
  N10      1.0000 0.26410  0.98850  0.49448  Biso   1.000  N
  N11      1.0000 0.48850  0.23590  0.74448  Biso   1.000  N
  N12      1.0000 0.51150  0.76410  0.24448  Biso   1.000  N
  N13      1.0000 0.76410  0.51150  0.75552  Biso   1.000  N
  N14      1.0000 0.23590  0.48850  0.25552  Biso   1.000  N
  N15      1.0000 0.01150  0.73590  0.00552  Biso   1.000  N
  N16      1.0000 0.98850  0.26410  0.50552  Biso   1.000  N
  N17      1.0000 0.52450  0.62430  0.06042  Biso   1.000  N
  N18      1.0000 0.47550  0.37570  0.56042  Biso   1.000  N
  N19      1.0000 0.87570  0.02450  0.81042  Biso   1.000  N
  N20      1.0000 0.12430  0.97550  0.31042  Biso   1.000  N
  N21      1.0000 0.97550  0.12430  0.68958  Biso   1.000  N
  N22      1.0000 0.02450  0.87570  0.18958  Biso   1.000  N
  N23      1.0000 0.62430  0.52450  0.93958  Biso   1.000  N
  N24      1.0000 0.37570  0.47550  0.43958  Biso   1.000  N
  N25      1.0000 0.43290  0.73170  0.98599  Biso   1.000  N
  N26      1.0000 0.56710  0.26830  0.48599  Biso   1.000  N
  N27      1.0000 0.76830  0.93290  0.73599  Biso   1.000  N
  N28      1.0000 0.23170  0.06710  0.23599  Biso   1.000  N
  N29      1.0000 0.06710  0.23170  0.76401  Biso   1.000  N
  N30      1.0000 0.93290  0.76830  0.26401  Biso   1.000  N
  N31      1.0000 0.73170  0.43290  0.01401  Biso   1.000  N
  N32      1.0000 0.26830  0.56710  0.51401  Biso   1.000  N
  O1       1.0000 0.93200  0.16110  0.98913  Biso   1.000  O
  O2       1.0000 0.06800  0.83890  0.48913  Biso   1.000  O
  O3       1.0000 0.33890  0.43200  0.73913  Biso   1.000  O
  O4       1.0000 0.66110  0.56800  0.23913  Biso   1.000  O
  O5       1.0000 0.56800  0.66110  0.76087  Biso   1.000  O
  O6       1.0000 0.43200  0.33890  0.26087  Biso   1.000  O
  O7       1.0000 0.16110  0.93200  0.01087  Biso   1.000  O
  O8       1.0000 0.83890  0.06800  0.51087  Biso   1.000  O
  O9       1.0000 0.02170  0.03550  0.94613  Biso   1.000  O
  O10      1.0000 0.97830  0.96450  0.44613  Biso   1.000  O
  O11      1.0000 0.46450  0.52170  0.69613  Biso   1.000  O
  O12      1.0000 0.53550  0.47830  0.19613  Biso   1.000  O
  O13      1.0000 0.47830  0.53550  0.80387  Biso   1.000  O
  O14      1.0000 0.52170  0.46450  0.30387  Biso   1.000  O
  O15      1.0000 0.03550  0.02170  0.05387  Biso   1.000  O
  O16      1.0000 0.96450  0.97830  0.55387  Biso   1.000  O
  O17      1.0000 0.32530  0.35590  0.82854  Biso   1.000  O
  O18      1.0000 0.67470  0.64410  0.32854  Biso   1.000  O
  O19      1.0000 0.14410  0.82530  0.57854  Biso   1.000  O
  O20      1.0000 0.85590  0.17470  0.07854  Biso   1.000  O
  O21      1.0000 0.17470  0.85590  0.92146  Biso   1.000  O
  O22      1.0000 0.82530  0.14410  0.42146  Biso   1.000  O
  O23      1.0000 0.35590  0.32530  0.17146  Biso   1.000  O
  O24      1.0000 0.64410  0.67470  0.67146  Biso   1.000  O
  O25      1.0000 0.35270  0.18920  0.86195  Biso   1.000  O
  O26      1.0000 0.64730  0.81080  0.36195  Biso   1.000  O
  O27      1.0000 0.31080  0.85270  0.61195  Biso   1.000  O
  O28      1.0000 0.68920  0.14730  0.11195  Biso   1.000  O
  O29      1.0000 0.14730  0.68920  0.88805  Biso   1.000  O
  O30      1.0000 0.85270  0.31080  0.38805  Biso   1.000  O
  O31      1.0000 0.18920  0.35270  0.13805  Biso   1.000  O
  O32      1.0000 0.81080  0.64730  0.63805  Biso   1.000  O
  O33      1.0000 0.00510  0.53830  0.91733  Biso   1.000  O
  O34      1.0000 0.99490  0.46170  0.41733  Biso   1.000  O
  O35      1.0000 0.96170  0.50510  0.66733  Biso   1.000  O
  O36      1.0000 0.03830  0.49490  0.16733  Biso   1.000  O
  O37      1.0000 0.49490  0.03830  0.83267  Biso   1.000  O
  O38      1.0000 0.50510  0.96170  0.33267  Biso   1.000  O
  O39      1.0000 0.53830  0.00510  0.08267  Biso   1.000  O
  O40      1.0000 0.46170  0.99490  0.58267  Biso   1.000  O
  H105     1.0000 0.04980  0.58730  0.90810  Biso   1.000  H
  H106     1.0000 0.95020  0.41270  0.40810  Biso   1.000  H
  H107     1.0000 0.91270  0.54980  0.65810  Biso   1.000  H
  H108     1.0000 0.08730  0.45020  0.15810  Biso   1.000  H
  H109     1.0000 0.45020  0.08730  0.84190  Biso   1.000  H
  H110     1.0000 0.54980  0.91270  0.34190  Biso   1.000  H
  H111     1.0000 0.58730  0.04980  0.09190  Biso   1.000  H
  H112     1.0000 0.41270  0.95020  0.59190  Biso   1.000  H
