data_image0
_cell_length_a       15.0833
_cell_length_b       12.1396
_cell_length_c       8.7075
_cell_angle_alpha    90
_cell_angle_beta     90
_cell_angle_gamma    90

_symmetry_space_group_name_H-M    "P 1"
_symmetry_int_tables_number       1

loop_
  _symmetry_equiv_pos_as_xyz
  'x, y, z'

loop_
  _atom_site_label
  _atom_site_occupancy
  _atom_site_fract_x
  _atom_site_fract_y
  _atom_site_fract_z
  _atom_site_thermal_displace_type
  _atom_site_B_iso_or_equiv
  _atom_site_type_symbol
  Cu1      1.0000 0.58934  0.89754  0.44114  Biso   1.000  Cu
  Cu2      1.0000 0.08934  0.60246  0.55886  Biso   1.000  Cu
  Cu3      1.0000 0.41066  0.39754  0.05886  Biso   1.000  Cu
  Cu4      1.0000 0.91066  0.10246  0.94114  Biso   1.000  Cu
  Cu5      1.0000 0.58474  0.66108  0.44335  Biso   1.000  Cu
  Cu6      1.0000 0.08474  0.83892  0.55665  Biso   1.000  Cu
  Cu7      1.0000 0.41526  0.16108  0.05665  Biso   1.000  Cu
  Cu8      1.0000 0.91526  0.33892  0.94335  Biso   1.000  Cu
  C1       1.0000 0.43730  0.78400  0.33650  Biso   1.000  C
  C2       1.0000 0.93730  0.71600  0.66350  Biso   1.000  C
  C3       1.0000 0.56270  0.28400  0.16350  Biso   1.000  C
  C4       1.0000 0.06270  0.21600  0.83650  Biso   1.000  C
  C5       1.0000 0.40150  0.88590  0.25380  Biso   1.000  C
  C6       1.0000 0.90150  0.61410  0.74620  Biso   1.000  C
  C7       1.0000 0.59850  0.38590  0.24620  Biso   1.000  C
  C8       1.0000 0.09850  0.11410  0.75380  Biso   1.000  C
  C9       1.0000 0.42280  0.99230  0.33340  Biso   1.000  C
  C10      1.0000 0.92280  0.50770  0.66660  Biso   1.000  C
  C11      1.0000 0.57720  0.49230  0.16660  Biso   1.000  C
  C12      1.0000 0.07720  0.00770  0.83340  Biso   1.000  C
  C13      1.0000 0.40960  0.78480  0.50780  Biso   1.000  C
  C14      1.0000 0.90960  0.71520  0.49220  Biso   1.000  C
  C15      1.0000 0.59040  0.28480  0.99220  Biso   1.000  C
  C16      1.0000 0.09040  0.21520  0.00780  Biso   1.000  C
  C17      1.0000 0.64290  0.08440  0.64320  Biso   1.000  C
  C18      1.0000 0.14290  0.41560  0.35680  Biso   1.000  C
  C19      1.0000 0.35710  0.58440  0.85680  Biso   1.000  C
  C20      1.0000 0.85710  0.91560  0.14320  Biso   1.000  C
  C21      1.0000 0.39640  0.68300  0.26020  Biso   1.000  C
  C22      1.0000 0.89640  0.81700  0.73980  Biso   1.000  C
  C23      1.0000 0.60360  0.18300  0.23980  Biso   1.000  C
  C24      1.0000 0.10360  0.31700  0.76020  Biso   1.000  C
  C25      1.0000 0.41120  0.57620  0.34770  Biso   1.000  C
  C26      1.0000 0.91120  0.92380  0.65230  Biso   1.000  C
  C27      1.0000 0.58880  0.07620  0.15230  Biso   1.000  C
  C28      1.0000 0.08880  0.42380  0.84770  Biso   1.000  C
  C29      1.0000 0.63770  0.46730  0.63010  Biso   1.000  C
  C30      1.0000 0.13770  0.03270  0.36990  Biso   1.000  C
  C31      1.0000 0.36230  0.96730  0.86990  Biso   1.000  C
  C32      1.0000 0.86230  0.53270  0.13010  Biso   1.000  C
  N1       1.0000 0.66290  0.00830  0.54100  Biso   1.000  N
  N2       1.0000 0.16290  0.49170  0.45900  Biso   1.000  N
  N3       1.0000 0.33710  0.50830  0.95900  Biso   1.000  N
  N4       1.0000 0.83710  0.99170  0.04100  Biso   1.000  N
  N5       1.0000 0.56420  0.13430  0.64200  Biso   1.000  N
  N6       1.0000 0.06420  0.36570  0.35800  Biso   1.000  N
  N7       1.0000 0.43580  0.63430  0.85800  Biso   1.000  N
  N8       1.0000 0.93580  0.86570  0.14200  Biso   1.000  N
  N9       1.0000 0.69970  0.10980  0.75680  Biso   1.000  N
  N10      1.0000 0.19970  0.39020  0.24320  Biso   1.000  N
  N11      1.0000 0.30030  0.60980  0.74320  Biso   1.000  N
  N12      1.0000 0.80030  0.89020  0.25680  Biso   1.000  N
  N13      1.0000 0.65830  0.54730  0.53370  Biso   1.000  N
  N14      1.0000 0.15830  0.95270  0.46630  Biso   1.000  N
  N15      1.0000 0.34170  0.04730  0.96630  Biso   1.000  N
  N16      1.0000 0.84170  0.45270  0.03370  Biso   1.000  N
  N17      1.0000 0.55350  0.44600  0.66120  Biso   1.000  N
  N18      1.0000 0.05350  0.05400  0.33880  Biso   1.000  N
  N19      1.0000 0.44650  0.94600  0.83880  Biso   1.000  N
  N20      1.0000 0.94650  0.55400  0.16120  Biso   1.000  N
  N21      1.0000 0.70130  0.40390  0.69380  Biso   1.000  N
  N22      1.0000 0.20130  0.09610  0.30620  Biso   1.000  N
  N23      1.0000 0.29870  0.90390  0.80620  Biso   1.000  N
  N24      1.0000 0.79870  0.59610  0.19380  Biso   1.000  N
  O1       1.0000 0.53140  0.77930  0.32610  Biso   1.000  O
  O2       1.0000 0.03140  0.72070  0.67390  Biso   1.000  O
  O3       1.0000 0.46860  0.27930  0.17390  Biso   1.000  O
  O4       1.0000 0.96860  0.22070  0.82610  Biso   1.000  O
  O5       1.0000 0.48810  0.99600  0.42360  Biso   1.000  O
  O6       1.0000 0.98810  0.50400  0.57640  Biso   1.000  O
  O7       1.0000 0.51190  0.49600  0.07640  Biso   1.000  O
  O8       1.0000 0.01190  0.00400  0.92360  Biso   1.000  O
  O9       1.0000 0.37240  0.07050  0.31810  Biso   1.000  O
  O10      1.0000 0.87240  0.42950  0.68190  Biso   1.000  O
  O11      1.0000 0.62760  0.57050  0.18190  Biso   1.000  O
  O12      1.0000 0.12760  0.92950  0.81810  Biso   1.000  O
  O13      1.0000 0.46870  0.77790  0.60660  Biso   1.000  O
  O14      1.0000 0.96870  0.72210  0.39340  Biso   1.000  O
  O15      1.0000 0.53130  0.27790  0.89340  Biso   1.000  O
  O16      1.0000 0.03130  0.22210  0.10660  Biso   1.000  O
  O17      1.0000 0.32990  0.78830  0.53510  Biso   1.000  O
  O18      1.0000 0.82990  0.71170  0.46490  Biso   1.000  O
  O19      1.0000 0.67010  0.28830  0.96490  Biso   1.000  O
  O20      1.0000 0.17010  0.21170  0.03510  Biso   1.000  O
  O21      1.0000 0.66380  0.77690  0.50480  Biso   1.000  O
  O22      1.0000 0.16380  0.72310  0.49520  Biso   1.000  O
  O23      1.0000 0.33620  0.27690  0.99520  Biso   1.000  O
  O24      1.0000 0.83620  0.22310  0.00480  Biso   1.000  O
  O25      1.0000 0.48210  0.56610  0.42710  Biso   1.000  O
  O26      1.0000 0.98210  0.93390  0.57290  Biso   1.000  O
  O27      1.0000 0.51790  0.06610  0.07290  Biso   1.000  O
  O28      1.0000 0.01790  0.43390  0.92710  Biso   1.000  O
  O29      1.0000 0.35460  0.50190  0.33940  Biso   1.000  O
  O30      1.0000 0.85460  0.99810  0.66060  Biso   1.000  O
  O31      1.0000 0.64540  0.00190  0.16060  Biso   1.000  O
  O32      1.0000 0.14540  0.49810  0.83940  Biso   1.000  O
  H1       1.0000 0.72060  0.77850  0.50550  Biso   1.000  H
  H2       1.0000 0.22060  0.72150  0.49450  Biso   1.000  H
  H3       1.0000 0.27940  0.27850  0.99450  Biso   1.000  H
  H4       1.0000 0.77940  0.22150  0.00550  Biso   1.000  H
  H5       1.0000 0.71540  0.00430  0.51820  Biso   1.000  H
  H6       1.0000 0.21540  0.49570  0.48180  Biso   1.000  H
  H7       1.0000 0.28460  0.50430  0.98180  Biso   1.000  H
  H8       1.0000 0.78460  0.99570  0.01820  Biso   1.000  H
  H9       1.0000 0.55130  0.18660  0.70790  Biso   1.000  H
  H10      1.0000 0.05130  0.31340  0.29210  Biso   1.000  H
  H11      1.0000 0.44870  0.68660  0.79210  Biso   1.000  H
  H12      1.0000 0.94870  0.81340  0.20790  Biso   1.000  H
  H13      1.0000 0.52280  0.11280  0.57520  Biso   1.000  H
  H14      1.0000 0.02280  0.38720  0.42480  Biso   1.000  H
  H15      1.0000 0.47720  0.61280  0.92480  Biso   1.000  H
  H16      1.0000 0.97720  0.88720  0.07520  Biso   1.000  H
  H17      1.0000 0.68570  0.16360  0.82220  Biso   1.000  H
  H18      1.0000 0.18570  0.33640  0.17780  Biso   1.000  H
  H19      1.0000 0.31430  0.66360  0.67780  Biso   1.000  H
  H20      1.0000 0.81430  0.83640  0.32220  Biso   1.000  H
  H21      1.0000 0.74830  0.07350  0.76680  Biso   1.000  H
  H22      1.0000 0.24830  0.42650  0.23320  Biso   1.000  H
  H23      1.0000 0.25170  0.57350  0.73320  Biso   1.000  H
  H24      1.0000 0.75170  0.92650  0.26680  Biso   1.000  H
  H25      1.0000 0.71040  0.54470  0.50520  Biso   1.000  H
  H26      1.0000 0.21040  0.95530  0.49480  Biso   1.000  H
  H27      1.0000 0.28960  0.04470  0.99480  Biso   1.000  H
  H28      1.0000 0.78960  0.45530  0.00520  Biso   1.000  H
  H29      1.0000 0.75660  0.41590  0.66190  Biso   1.000  H
  H30      1.0000 0.25660  0.08410  0.33810  Biso   1.000  H
  H31      1.0000 0.24340  0.91590  0.83810  Biso   1.000  H
  H32      1.0000 0.74340  0.58410  0.16190  Biso   1.000  H
  H33      1.0000 0.68830  0.35190  0.75490  Biso   1.000  H
  H34      1.0000 0.18830  0.14810  0.24510  Biso   1.000  H
  H35      1.0000 0.31170  0.85190  0.74510  Biso   1.000  H
  H36      1.0000 0.81170  0.64810  0.25490  Biso   1.000  H
  H37      1.0000 0.54020  0.39140  0.72670  Biso   1.000  H
  H38      1.0000 0.04020  0.10860  0.27330  Biso   1.000  H
  H39      1.0000 0.45980  0.89140  0.77330  Biso   1.000  H
  H40      1.0000 0.95980  0.60860  0.22670  Biso   1.000  H
  H41      1.0000 0.51060  0.48130  0.61580  Biso   1.000  H
  H42      1.0000 0.01060  0.01870  0.38420  Biso   1.000  H
  H43      1.0000 0.48940  0.98130  0.88420  Biso   1.000  H
  H44      1.0000 0.98940  0.51870  0.11580  Biso   1.000  H
  H45      1.0000 0.42710  0.88740  0.14890  Biso   1.000  H
  H46      1.0000 0.92710  0.61260  0.85110  Biso   1.000  H
  H47      1.0000 0.57290  0.38740  0.35110  Biso   1.000  H
  H48      1.0000 0.07290  0.11260  0.64890  Biso   1.000  H
  H49      1.0000 0.33600  0.87850  0.24590  Biso   1.000  H
  H50      1.0000 0.83600  0.62150  0.75410  Biso   1.000  H
  H51      1.0000 0.66400  0.37850  0.25410  Biso   1.000  H
  H52      1.0000 0.16400  0.12150  0.74590  Biso   1.000  H
  H53      1.0000 0.42370  0.67370  0.15690  Biso   1.000  H
  H54      1.0000 0.92370  0.82630  0.84310  Biso   1.000  H
  H55      1.0000 0.57630  0.17370  0.34310  Biso   1.000  H
  H56      1.0000 0.07630  0.32630  0.65690  Biso   1.000  H
  H57      1.0000 0.33210  0.69460  0.24860  Biso   1.000  H
  H58      1.0000 0.83210  0.80540  0.75140  Biso   1.000  H
  H59      1.0000 0.66790  0.19460  0.25140  Biso   1.000  H
  H60      1.0000 0.16790  0.30540  0.74860  Biso   1.000  H
  C33      1.0000 0.64380  0.77330  0.90800  Biso   1.000  C
  C34      1.0000 0.14380  0.72670  0.09200  Biso   1.000  C
  C35      1.0000 0.35620  0.27330  0.59200  Biso   1.000  C
  C36      1.0000 0.85620  0.22670  0.40800  Biso   1.000  C
  N25      1.0000 0.65710  0.85780  0.82320  Biso   1.000  N
  N26      1.0000 0.15710  0.64220  0.17680  Biso   1.000  N
  N27      1.0000 0.34290  0.35780  0.67680  Biso   1.000  N
  N28      1.0000 0.84290  0.14220  0.32320  Biso   1.000  N
  N29      1.0000 0.65060  0.67300  0.84820  Biso   1.000  N
  N30      1.0000 0.15060  0.82700  0.15180  Biso   1.000  N
  N31      1.0000 0.34940  0.17300  0.65180  Biso   1.000  N
  N32      1.0000 0.84940  0.32700  0.34820  Biso   1.000  N
  N33      1.0000 0.62300  0.78560  0.05080  Biso   1.000  N
  N34      1.0000 0.12300  0.71440  0.94920  Biso   1.000  N
  N35      1.0000 0.37700  0.28560  0.44920  Biso   1.000  N
  N36      1.0000 0.87700  0.21440  0.55080  Biso   1.000  N
  H61      1.0000 0.65510  0.92500  0.86290  Biso   1.000  H
  H62      1.0000 0.15510  0.57500  0.13710  Biso   1.000  H
  H63      1.0000 0.34490  0.42500  0.63710  Biso   1.000  H
  H64      1.0000 0.84490  0.07500  0.36290  Biso   1.000  H
  H65      1.0000 0.67200  0.85000  0.72560  Biso   1.000  H
  H66      1.0000 0.17200  0.65000  0.27440  Biso   1.000  H
  H67      1.0000 0.32800  0.35000  0.77440  Biso   1.000  H
  H68      1.0000 0.82800  0.15000  0.22560  Biso   1.000  H
  H69      1.0000 0.61920  0.85180  0.09180  Biso   1.000  H
  H70      1.0000 0.11920  0.64820  0.90820  Biso   1.000  H
  H71      1.0000 0.38080  0.35180  0.40820  Biso   1.000  H
  H72      1.0000 0.88080  0.14820  0.59180  Biso   1.000  H
  H73      1.0000 0.61200  0.72720  0.10860  Biso   1.000  H
  H74      1.0000 0.11200  0.77280  0.89140  Biso   1.000  H
  H75      1.0000 0.38800  0.22720  0.39140  Biso   1.000  H
  H76      1.0000 0.88800  0.27280  0.60860  Biso   1.000  H
  H77      1.0000 0.63990  0.61420  0.90610  Biso   1.000  H
  H78      1.0000 0.13990  0.88580  0.09390  Biso   1.000  H
  H79      1.0000 0.36010  0.11420  0.59390  Biso   1.000  H
  H80      1.0000 0.86010  0.38580  0.40610  Biso   1.000  H
  H81      1.0000 0.66610  0.66360  0.75170  Biso   1.000  H
  H82      1.0000 0.16610  0.83640  0.24830  Biso   1.000  H
  H83      1.0000 0.33390  0.16360  0.74830  Biso   1.000  H
  H84      1.0000 0.83390  0.33640  0.25170  Biso   1.000  H
