data_image0
_cell_length_a       11.9885
_cell_length_b       16.0899
_cell_length_c       7.3291
_cell_angle_alpha    90
_cell_angle_beta     105.701
_cell_angle_gamma    90

_symmetry_space_group_name_H-M    "P 1"
_symmetry_int_tables_number       1

loop_
  _symmetry_equiv_pos_as_xyz
  'x, y, z'

loop_
  _atom_site_label
  _atom_site_occupancy
  _atom_site_fract_x
  _atom_site_fract_y
  _atom_site_fract_z
  _atom_site_thermal_displace_type
  _atom_site_B_iso_or_equiv
  _atom_site_type_symbol
  Cu1      1.0000 0.44798  0.33911  0.60279  Biso   1.000  Cu
  Cu2      1.0000 0.44798  0.16089  0.10279  Biso   1.000  Cu
  Cu3      1.0000 0.55202  0.66089  0.39721  Biso   1.000  Cu
  Cu4      1.0000 0.55202  0.83911  0.89721  Biso   1.000  Cu
  Cl1      1.0000 0.46393  0.21471  0.47133  Biso   1.000  Cl
  Cl2      1.0000 0.46393  0.28529  0.97133  Biso   1.000  Cl
  Cl3      1.0000 0.53607  0.78529  0.52867  Biso   1.000  Cl
  Cl4      1.0000 0.53607  0.71471  0.02867  Biso   1.000  Cl
  N1       1.0000 0.27717  0.33976  0.55090  Biso   1.000  N
  N2       1.0000 0.27717  0.16024  0.05090  Biso   1.000  N
  N3       1.0000 0.72283  0.66024  0.44910  Biso   1.000  N
  N4       1.0000 0.72283  0.83976  0.94910  Biso   1.000  N
  C1       1.0000 0.20032  0.28121  0.46510  Biso   1.000  C
  C2       1.0000 0.20032  0.21879  0.96510  Biso   1.000  C
  C3       1.0000 0.79968  0.71879  0.53490  Biso   1.000  C
  C4       1.0000 0.79968  0.78121  0.03490  Biso   1.000  C
  H1       1.0000 0.22900  0.23420  0.41300  Biso   1.000  H
  H2       1.0000 0.22900  0.26580  0.91300  Biso   1.000  H
  H3       1.0000 0.77100  0.76580  0.58700  Biso   1.000  H
  H4       1.0000 0.77100  0.73420  0.08700  Biso   1.000  H
  C5       1.0000 0.08390  0.28933  0.44380  Biso   1.000  C
  C6       1.0000 0.08390  0.21067  0.94380  Biso   1.000  C
  C7       1.0000 0.91610  0.71067  0.55620  Biso   1.000  C
  C8       1.0000 0.91610  0.78933  0.05620  Biso   1.000  C
  H5       1.0000 0.03000  0.24700  0.38100  Biso   1.000  H
  H6       1.0000 0.03000  0.25300  0.88100  Biso   1.000  H
  H7       1.0000 0.97000  0.75300  0.61900  Biso   1.000  H
  H8       1.0000 0.97000  0.74700  0.11900  Biso   1.000  H
  C9       1.0000 0.04370  0.35996  0.51460  Biso   1.000  C
  C10      1.0000 0.04370  0.14004  0.01460  Biso   1.000  C
  C11      1.0000 0.95630  0.64004  0.48540  Biso   1.000  C
  C12      1.0000 0.95630  0.85996  0.98540  Biso   1.000  C
  H9       1.0000 0.97100  0.36410  0.50000  Biso   1.000  H
  H10      1.0000 0.97100  0.13590  0.00000  Biso   1.000  H
  H11      1.0000 0.02900  0.63590  0.50000  Biso   1.000  H
  H12      1.0000 0.02900  0.86410  0.00000  Biso   1.000  H
  C13      1.0000 0.11972  0.42024  0.60140  Biso   1.000  C
  C14      1.0000 0.11972  0.07976  0.10140  Biso   1.000  C
  C15      1.0000 0.88028  0.57976  0.39860  Biso   1.000  C
  C16      1.0000 0.88028  0.92024  0.89860  Biso   1.000  C
  H13      1.0000 0.09900  0.46650  0.64700  Biso   1.000  H
  H14      1.0000 0.09900  0.03350  0.14700  Biso   1.000  H
  H15      1.0000 0.90100  0.53350  0.35300  Biso   1.000  H
  H16      1.0000 0.90100  0.96650  0.85300  Biso   1.000  H
  C17      1.0000 0.23736  0.40868  0.61490  Biso   1.000  C
  C18      1.0000 0.23736  0.09132  0.11490  Biso   1.000  C
  C19      1.0000 0.76264  0.59132  0.38510  Biso   1.000  C
  C20      1.0000 0.76264  0.90868  0.88510  Biso   1.000  C
  N5       1.0000 0.31653  0.46725  0.69400  Biso   1.000  N
  N6       1.0000 0.31653  0.03275  0.19400  Biso   1.000  N
  N7       1.0000 0.68347  0.53275  0.30600  Biso   1.000  N
  N8       1.0000 0.68347  0.96725  0.80600  Biso   1.000  N
  H17      1.0000 0.29900  0.51160  0.73400  Biso   1.000  H
  H18      1.0000 0.29900  0.98840  0.23400  Biso   1.000  H
  H19      1.0000 0.70100  0.48840  0.26600  Biso   1.000  H
  H20      1.0000 0.70100  0.01160  0.76600  Biso   1.000  H
  N9       1.0000 0.42860  0.45117  0.69600  Biso   1.000  N
  N10      1.0000 0.42860  0.04883  0.19600  Biso   1.000  N
  N11      1.0000 0.57140  0.54883  0.30400  Biso   1.000  N
  N12      1.0000 0.57140  0.95117  0.80400  Biso   1.000  N
  C21      1.0000 0.50633  0.50720  0.76010  Biso   1.000  C
  C22      1.0000 0.50633  0.99280  0.26010  Biso   1.000  C
  C23      1.0000 0.49367  0.49280  0.23990  Biso   1.000  C
  C24      1.0000 0.49367  0.00720  0.73990  Biso   1.000  C
  H21      1.0000 0.48200  0.56090  0.79700  Biso   1.000  H
  H22      1.0000 0.48200  0.93910  0.29700  Biso   1.000  H
  H23      1.0000 0.51800  0.43910  0.20300  Biso   1.000  H
  H24      1.0000 0.51800  0.06090  0.70300  Biso   1.000  H
  C25      1.0000 0.62716  0.49553  0.77320  Biso   1.000  C
  C26      1.0000 0.62716  0.00447  0.27320  Biso   1.000  C
  C27      1.0000 0.37284  0.50447  0.22680  Biso   1.000  C
  C28      1.0000 0.37284  0.99553  0.72680  Biso   1.000  C
  C29      1.0000 0.70280  0.56123  0.84790  Biso   1.000  C
  C30      1.0000 0.70280  0.93877  0.34790  Biso   1.000  C
  C31      1.0000 0.29720  0.43877  0.15210  Biso   1.000  C
  C32      1.0000 0.29720  0.06123  0.65210  Biso   1.000  C
  H25      1.0000 0.67600  0.60630  0.88600  Biso   1.000  H
  H26      1.0000 0.67600  0.89370  0.38600  Biso   1.000  H
  H27      1.0000 0.32400  0.39370  0.11400  Biso   1.000  H
  H28      1.0000 0.32400  0.10630  0.61400  Biso   1.000  H
  C33      1.0000 0.81930  0.55546  0.87070  Biso   1.000  C
  C34      1.0000 0.81930  0.94454  0.37070  Biso   1.000  C
  C35      1.0000 0.18070  0.44454  0.12930  Biso   1.000  C
  C36      1.0000 0.18070  0.05546  0.62930  Biso   1.000  C
  H29      1.0000 0.86900  0.60050  0.92600  Biso   1.000  H
  H30      1.0000 0.86900  0.89950  0.42600  Biso   1.000  H
  H31      1.0000 0.13100  0.39950  0.07400  Biso   1.000  H
  H32      1.0000 0.13100  0.10050  0.57400  Biso   1.000  H
  C37      1.0000 0.86451  0.48306  0.81830  Biso   1.000  C
  C38      1.0000 0.86451  0.01694  0.31830  Biso   1.000  C
  C39      1.0000 0.13549  0.51694  0.18170  Biso   1.000  C
  C40      1.0000 0.13549  0.98306  0.68170  Biso   1.000  C
  H33      1.0000 0.94300  0.47910  0.83400  Biso   1.000  H
  H34      1.0000 0.94300  0.02090  0.33400  Biso   1.000  H
  H35      1.0000 0.05700  0.52090  0.16600  Biso   1.000  H
  H36      1.0000 0.05700  0.97910  0.66600  Biso   1.000  H
  C41      1.0000 0.79283  0.41742  0.74310  Biso   1.000  C
  C42      1.0000 0.79283  0.08258  0.24310  Biso   1.000  C
  C43      1.0000 0.20717  0.58258  0.25690  Biso   1.000  C
  C44      1.0000 0.20717  0.91742  0.75690  Biso   1.000  C
  H37      1.0000 0.82500  0.36810  0.70800  Biso   1.000  H
  H38      1.0000 0.82500  0.13190  0.20800  Biso   1.000  H
  H39      1.0000 0.17500  0.63190  0.29200  Biso   1.000  H
  H40      1.0000 0.17500  0.86810  0.79200  Biso   1.000  H
  C45      1.0000 0.67307  0.42213  0.71730  Biso   1.000  C
  C46      1.0000 0.67307  0.07787  0.21730  Biso   1.000  C
  C47      1.0000 0.32693  0.57787  0.28270  Biso   1.000  C
  C48      1.0000 0.32693  0.92213  0.78270  Biso   1.000  C
  O1       1.0000 0.60989  0.35628  0.64330  Biso   1.000  O
  O2       1.0000 0.60989  0.14372  0.14330  Biso   1.000  O
  O3       1.0000 0.39011  0.64372  0.35670  Biso   1.000  O
  O4       1.0000 0.39011  0.85628  0.85670  Biso   1.000  O
  O5       1.0000 0.72437  0.23773  0.92140  Biso   1.000  O
  O6       1.0000 0.72437  0.26227  0.42140  Biso   1.000  O
  O7       1.0000 0.27563  0.76227  0.07860  Biso   1.000  O
  O8       1.0000 0.27563  0.73773  0.57860  Biso   1.000  O
  H41      1.0000 0.68100  0.26570  0.84600  Biso   1.000  H
  H42      1.0000 0.68100  0.23430  0.34600  Biso   1.000  H
  H43      1.0000 0.31900  0.73430  0.15400  Biso   1.000  H
  H44      1.0000 0.31900  0.76570  0.65400  Biso   1.000  H
  H45      1.0000 0.68700  0.21800  0.97900  Biso   1.000  H
  H46      1.0000 0.68700  0.28200  0.47900  Biso   1.000  H
  H47      1.0000 0.31300  0.78200  0.02100  Biso   1.000  H
  H48      1.0000 0.31300  0.71800  0.52100  Biso   1.000  H
  O9       1.0000 0.22434  0.61114  0.78660  Biso   1.000  O
  O10      1.0000 0.22434  0.88886  0.28660  Biso   1.000  O
  O11      1.0000 0.77566  0.38886  0.21340  Biso   1.000  O
  O12      1.0000 0.77566  0.11114  0.71340  Biso   1.000  O
  H49      1.0000 0.24300  0.65700  0.71900  Biso   1.000  H
  H50      1.0000 0.24300  0.84300  0.21900  Biso   1.000  H
  H51      1.0000 0.75700  0.34300  0.28100  Biso   1.000  H
  H52      1.0000 0.75700  0.15700  0.78100  Biso   1.000  H
  H53      1.0000 0.22100  0.62600  0.86500  Biso   1.000  H
  H54      1.0000 0.22100  0.87400  0.36500  Biso   1.000  H
  H55      1.0000 0.77900  0.37400  0.13500  Biso   1.000  H
  H56      1.0000 0.77900  0.12600  0.63500  Biso   1.000  H
