data_image0
_cell_length_a       13.327
_cell_length_b       8.6627
_cell_length_c       11.1
_cell_angle_alpha    90
_cell_angle_beta     90
_cell_angle_gamma    90

_symmetry_space_group_name_H-M    "P 1"
_symmetry_int_tables_number       1

loop_
  _symmetry_equiv_pos_as_xyz
  'x, y, z'

loop_
  _atom_site_label
  _atom_site_occupancy
  _atom_site_fract_x
  _atom_site_fract_y
  _atom_site_fract_z
  _atom_site_thermal_displace_type
  _atom_site_B_iso_or_equiv
  _atom_site_type_symbol
  Cu1      1.0000 0.25000  0.25000  0.00000  Biso   1.000  Cu
  Cu2      1.0000 0.75000  0.75000  0.00000  Biso   1.000  Cu
  N1       1.0000 0.35590  0.25800  0.87080  Biso   1.000  N
  N2       1.0000 0.14410  0.24200  0.87080  Biso   1.000  N
  N3       1.0000 0.35590  0.24200  0.12920  Biso   1.000  N
  N4       1.0000 0.14410  0.25800  0.12920  Biso   1.000  N
  N5       1.0000 0.64410  0.74200  0.12920  Biso   1.000  N
  N6       1.0000 0.85590  0.75800  0.12920  Biso   1.000  N
  N7       1.0000 0.64410  0.75800  0.87080  Biso   1.000  N
  N8       1.0000 0.85590  0.74200  0.87080  Biso   1.000  N
  N9       1.0000 0.44240  0.34160  0.71440  Biso   1.000  N
  N10      1.0000 0.05760  0.15840  0.71440  Biso   1.000  N
  N11      1.0000 0.44240  0.15840  0.28560  Biso   1.000  N
  N12      1.0000 0.05760  0.34160  0.28560  Biso   1.000  N
  N13      1.0000 0.55760  0.65840  0.28560  Biso   1.000  N
  N14      1.0000 0.94240  0.84160  0.28560  Biso   1.000  N
  N15      1.0000 0.55760  0.84160  0.71440  Biso   1.000  N
  N16      1.0000 0.94240  0.65840  0.71440  Biso   1.000  N
  N17      1.0000 0.50070  0.23930  0.77310  Biso   1.000  N
  N18      1.0000 0.99930  0.26070  0.77310  Biso   1.000  N
  N19      1.0000 0.50070  0.26070  0.22690  Biso   1.000  N
  N20      1.0000 0.99930  0.23930  0.22690  Biso   1.000  N
  N21      1.0000 0.49930  0.76070  0.22690  Biso   1.000  N
  N22      1.0000 0.00070  0.73930  0.22690  Biso   1.000  N
  N23      1.0000 0.49930  0.73930  0.77310  Biso   1.000  N
  N24      1.0000 0.00070  0.76070  0.77310  Biso   1.000  N
  O1       1.0000 0.25000  0.53340  0.00000  Biso   1.000  O
  O2       1.0000 0.25000  0.96660  0.00000  Biso   1.000  O
  O3       1.0000 0.75000  0.46660  0.00000  Biso   1.000  O
  O4       1.0000 0.75000  0.03340  0.00000  Biso   1.000  O
  H1       1.0000 0.25320  0.56500  0.06950  Biso   1.000  H
  H2       1.0000 0.24680  0.93500  0.06950  Biso   1.000  H
  H3       1.0000 0.25320  0.93500  0.93050  Biso   1.000  H
  H4       1.0000 0.24680  0.56500  0.93050  Biso   1.000  H
  H5       1.0000 0.74680  0.43500  0.93050  Biso   1.000  H
  H6       1.0000 0.75320  0.06500  0.93050  Biso   1.000  H
  H7       1.0000 0.74680  0.06500  0.06950  Biso   1.000  H
  H8       1.0000 0.75320  0.43500  0.06950  Biso   1.000  H
  Cl1      1.0000 0.75000  0.25000  0.22935  Biso   1.000  Cl
  Cl2      1.0000 0.75000  0.25000  0.77065  Biso   1.000  Cl
  Cl3      1.0000 0.25000  0.75000  0.77065  Biso   1.000  Cl
  Cl4      1.0000 0.25000  0.75000  0.22935  Biso   1.000  Cl
  C1       1.0000 0.35500  0.35160  0.77510  Biso   1.000  C
  C2       1.0000 0.14500  0.14840  0.77510  Biso   1.000  C
  C3       1.0000 0.35500  0.14840  0.22490  Biso   1.000  C
  C4       1.0000 0.14500  0.35160  0.22490  Biso   1.000  C
  C5       1.0000 0.64500  0.64840  0.22490  Biso   1.000  C
  C6       1.0000 0.85500  0.85160  0.22490  Biso   1.000  C
  C7       1.0000 0.64500  0.85160  0.77510  Biso   1.000  C
  C8       1.0000 0.85500  0.64840  0.77510  Biso   1.000  C
  H9       1.0000 0.30160  0.41490  0.75360  Biso   1.000  H
  H10      1.0000 0.19840  0.08510  0.75360  Biso   1.000  H
  H11      1.0000 0.30160  0.08510  0.24640  Biso   1.000  H
  H12      1.0000 0.19840  0.41490  0.24640  Biso   1.000  H
  H13      1.0000 0.69840  0.58510  0.24640  Biso   1.000  H
  H14      1.0000 0.80160  0.91490  0.24640  Biso   1.000  H
  H15      1.0000 0.69840  0.91490  0.75360  Biso   1.000  H
  H16      1.0000 0.80160  0.58510  0.75360  Biso   1.000  H
  C9       1.0000 0.44540  0.18790  0.86740  Biso   1.000  C
  C10      1.0000 0.05460  0.31210  0.86740  Biso   1.000  C
  C11      1.0000 0.44540  0.31210  0.13260  Biso   1.000  C
  C12      1.0000 0.05460  0.18790  0.13260  Biso   1.000  C
  C13      1.0000 0.55460  0.81210  0.13260  Biso   1.000  C
  C14      1.0000 0.94540  0.68790  0.13260  Biso   1.000  C
  C15      1.0000 0.55460  0.68790  0.86740  Biso   1.000  C
  C16      1.0000 0.94540  0.81210  0.86740  Biso   1.000  C
  H17      1.0000 0.46670  0.11400  0.92250  Biso   1.000  H
  H18      1.0000 0.03330  0.38600  0.92250  Biso   1.000  H
  H19      1.0000 0.46670  0.38600  0.07750  Biso   1.000  H
  H20      1.0000 0.03330  0.11400  0.07750  Biso   1.000  H
  H21      1.0000 0.53330  0.88600  0.07750  Biso   1.000  H
  H22      1.0000 0.96670  0.61400  0.07750  Biso   1.000  H
  H23      1.0000 0.53330  0.61400  0.92250  Biso   1.000  H
  H24      1.0000 0.96670  0.88600  0.92250  Biso   1.000  H
  H25      1.0000 0.56090  0.21220  0.75480  Biso   1.000  H
  H26      1.0000 0.93910  0.28780  0.75480  Biso   1.000  H
  H27      1.0000 0.56090  0.28780  0.24520  Biso   1.000  H
  H28      1.0000 0.93910  0.21220  0.24520  Biso   1.000  H
  H29      1.0000 0.43910  0.78780  0.24520  Biso   1.000  H
  H30      1.0000 0.06090  0.71220  0.24520  Biso   1.000  H
  H31      1.0000 0.43910  0.71220  0.75480  Biso   1.000  H
  H32      1.0000 0.06090  0.78780  0.75480  Biso   1.000  H
  C17      1.0000 0.47240  0.42170  0.60470  Biso   1.000  C
  C18      1.0000 0.02760  0.07830  0.60470  Biso   1.000  C
  C19      1.0000 0.47240  0.07830  0.39530  Biso   1.000  C
  C20      1.0000 0.02760  0.42170  0.39530  Biso   1.000  C
  C21      1.0000 0.52760  0.57830  0.39530  Biso   1.000  C
  C22      1.0000 0.97240  0.92170  0.39530  Biso   1.000  C
  C23      1.0000 0.52760  0.92170  0.60470  Biso   1.000  C
  C24      1.0000 0.97240  0.57830  0.60470  Biso   1.000  C
  C25      1.0000 0.57190  0.43430  0.57280  Biso   1.000  C
  C26      1.0000 0.92810  0.06570  0.57280  Biso   1.000  C
  C27      1.0000 0.57190  0.06570  0.42720  Biso   1.000  C
  C28      1.0000 0.92810  0.43430  0.42720  Biso   1.000  C
  C29      1.0000 0.42810  0.56570  0.42720  Biso   1.000  C
  C30      1.0000 0.07190  0.93430  0.42720  Biso   1.000  C
  C31      1.0000 0.42810  0.93430  0.57280  Biso   1.000  C
  C32      1.0000 0.07190  0.56570  0.57280  Biso   1.000  C
  H33      1.0000 0.62110  0.39080  0.62160  Biso   1.000  H
  H34      1.0000 0.87890  0.10920  0.62160  Biso   1.000  H
  H35      1.0000 0.62110  0.10920  0.37840  Biso   1.000  H
  H36      1.0000 0.87890  0.39080  0.37840  Biso   1.000  H
  H37      1.0000 0.37890  0.60920  0.37840  Biso   1.000  H
  H38      1.0000 0.12110  0.89080  0.37840  Biso   1.000  H
  H39      1.0000 0.37890  0.89080  0.62160  Biso   1.000  H
  H40      1.0000 0.12110  0.60920  0.62160  Biso   1.000  H
  C33      1.0000 0.40140  0.48820  0.53140  Biso   1.000  C
  C34      1.0000 0.09860  0.01180  0.53140  Biso   1.000  C
  C35      1.0000 0.40140  0.01180  0.46860  Biso   1.000  C
  C36      1.0000 0.09860  0.48820  0.46860  Biso   1.000  C
  C37      1.0000 0.59860  0.51180  0.46860  Biso   1.000  C
  C38      1.0000 0.90140  0.98820  0.46860  Biso   1.000  C
  C39      1.0000 0.59860  0.98820  0.53140  Biso   1.000  C
  C40      1.0000 0.90140  0.51180  0.53140  Biso   1.000  C
  H41      1.0000 0.33400  0.48110  0.55260  Biso   1.000  H
  H42      1.0000 0.16600  0.01890  0.55260  Biso   1.000  H
  H43      1.0000 0.33400  0.01890  0.44740  Biso   1.000  H
  H44      1.0000 0.16600  0.48110  0.44740  Biso   1.000  H
  H45      1.0000 0.66600  0.51890  0.44740  Biso   1.000  H
  H46      1.0000 0.83400  0.98110  0.44740  Biso   1.000  H
  H47      1.0000 0.66600  0.98110  0.55260  Biso   1.000  H
  H48      1.0000 0.83400  0.51890  0.55260  Biso   1.000  H
