data_image0
_cell_length_a       3.4926
_cell_length_b       9.828
_cell_length_c       17.185
_cell_angle_alpha    90
_cell_angle_beta     93.753
_cell_angle_gamma    90

_symmetry_space_group_name_H-M    "P 1"
_symmetry_int_tables_number       1

loop_
  _symmetry_equiv_pos_as_xyz
  'x, y, z'

loop_
  _atom_site_label
  _atom_site_occupancy
  _atom_site_fract_x
  _atom_site_fract_y
  _atom_site_fract_z
  _atom_site_thermal_displace_type
  _atom_site_B_iso_or_equiv
  _atom_site_type_symbol
  Cu1      1.0000 0.41888  0.75905  0.27198  Biso   1.000  Cu
  Cu2      1.0000 0.91888  0.24095  0.77198  Biso   1.000  Cu
  Cu3      1.0000 0.87070  0.54465  0.39336  Biso   1.000  Cu
  Cu4      1.0000 0.37070  0.45535  0.89336  Biso   1.000  Cu
  O1       1.0000 0.41890  0.95980  0.28960  Biso   1.000  O
  O2       1.0000 0.91890  0.04020  0.78960  Biso   1.000  O
  O3       1.0000 0.11340  0.86830  0.18780  Biso   1.000  O
  O4       1.0000 0.61340  0.13170  0.68780  Biso   1.000  O
  O5       1.0000 0.36980  0.59100  0.21440  Biso   1.000  O
  O6       1.0000 0.86980  0.40900  0.71440  Biso   1.000  O
  O7       1.0000 0.86180  0.71220  0.33690  Biso   1.000  O
  O8       1.0000 0.36180  0.28780  0.83690  Biso   1.000  O
  O9       1.0000 0.50680  0.45390  0.31670  Biso   1.000  O
  O10      1.0000 0.00680  0.54610  0.81670  Biso   1.000  O
  O11      1.0000 0.90500  0.36950  0.44370  Biso   1.000  O
  O12      1.0000 0.40500  0.63050  0.94370  Biso   1.000  O
  O13      1.0000 0.75110  0.39080  0.97300  Biso   1.000  O
  O14      1.0000 0.25110  0.60920  0.47300  Biso   1.000  O
  O15      1.0000 0.62350  0.16820  0.96810  Biso   1.000  O
  O16      1.0000 0.12350  0.83180  0.46810  Biso   1.000  O
  O17      1.0000 0.70900  0.10210  0.42620  Biso   1.000  O
  O18      1.0000 0.20900  0.89790  0.92620  Biso   1.000  O
  O19      1.0000 0.24200  0.29840  0.57770  Biso   1.000  O
  O20      1.0000 0.74200  0.70160  0.07770  Biso   1.000  O
  C1       1.0000 0.16050  0.11290  0.19110  Biso   1.000  C
  C2       1.0000 0.66050  0.88710  0.69110  Biso   1.000  C
  C3       1.0000 0.28300  0.22650  0.23340  Biso   1.000  C
  C4       1.0000 0.78300  0.77350  0.73340  Biso   1.000  C
  H1       1.0000 0.38910  0.21700  0.28420  Biso   1.000  H
  H2       1.0000 0.88910  0.78300  0.78420  Biso   1.000  H
  C5       1.0000 0.24800  0.35450  0.19960  Biso   1.000  C
  C6       1.0000 0.74800  0.64550  0.69960  Biso   1.000  C
  C7       1.0000 0.08100  0.37100  0.12460  Biso   1.000  C
  C8       1.0000 0.58100  0.62900  0.62460  Biso   1.000  C
  H3       1.0000 0.05390  0.45750  0.10300  Biso   1.000  H
  H4       1.0000 0.55390  0.54250  0.60300  Biso   1.000  H
  C9       1.0000 0.95300  0.25680  0.08180  Biso   1.000  C
  C10      1.0000 0.45300  0.74320  0.58180  Biso   1.000  C
  C11      1.0000 0.99470  0.12640  0.11530  Biso   1.000  C
  C12      1.0000 0.49470  0.87360  0.61530  Biso   1.000  C
  H5       1.0000 0.91200  0.04980  0.08720  Biso   1.000  H
  H6       1.0000 0.41200  0.95020  0.58720  Biso   1.000  H
  C13      1.0000 0.23000  0.97480  0.22450  Biso   1.000  C
  C14      1.0000 0.73000  0.02520  0.72450  Biso   1.000  C
  C15      1.0000 0.39200  0.47460  0.24740  Biso   1.000  C
  C16      1.0000 0.89200  0.52540  0.74740  Biso   1.000  C
  C17      1.0000 0.76100  0.26900  0.00130  Biso   1.000  C
  C18      1.0000 0.26100  0.73100  0.50130  Biso   1.000  C
