data_image0
_cell_length_a       10.419
_cell_length_b       16.289
_cell_length_c       8.937
_cell_angle_alpha    90
_cell_angle_beta     107.83
_cell_angle_gamma    90

_symmetry_space_group_name_H-M    "P 1"
_symmetry_int_tables_number       1

loop_
  _symmetry_equiv_pos_as_xyz
  'x, y, z'

loop_
  _atom_site_label
  _atom_site_occupancy
  _atom_site_fract_x
  _atom_site_fract_y
  _atom_site_fract_z
  _atom_site_thermal_displace_type
  _atom_site_B_iso_or_equiv
  _atom_site_type_symbol
  Cu1      1.0000 0.10056  0.16351  0.33355  Biso   1.000  Cu
  Cu2      1.0000 0.10056  0.33649  0.83355  Biso   1.000  Cu
  Cu3      1.0000 0.89944  0.83649  0.66645  Biso   1.000  Cu
  Cu4      1.0000 0.89944  0.66351  0.16645  Biso   1.000  Cu
  O1       1.0000 0.06380  0.22759  0.49490  Biso   1.000  O
  O2       1.0000 0.06380  0.27241  0.99490  Biso   1.000  O
  O3       1.0000 0.93620  0.77241  0.50510  Biso   1.000  O
  O4       1.0000 0.93620  0.72759  0.00510  Biso   1.000  O
  O5       1.0000 0.94950  0.27888  0.64380  Biso   1.000  O
  O6       1.0000 0.94950  0.22112  0.14380  Biso   1.000  O
  O7       1.0000 0.05050  0.72112  0.35620  Biso   1.000  O
  O8       1.0000 0.05050  0.77888  0.85620  Biso   1.000  O
  O9       1.0000 0.26700  0.22154  0.35030  Biso   1.000  O
  O10      1.0000 0.26700  0.27846  0.85030  Biso   1.000  O
  O11      1.0000 0.73300  0.77846  0.64970  Biso   1.000  O
  O12      1.0000 0.73300  0.72154  0.14970  Biso   1.000  O
  O13      1.0000 0.19840  0.35366  0.31560  Biso   1.000  O
  O14      1.0000 0.19840  0.14634  0.81560  Biso   1.000  O
  O15      1.0000 0.80160  0.64634  0.68440  Biso   1.000  O
  O16      1.0000 0.80160  0.85366  0.18440  Biso   1.000  O
  N1       1.0000 0.16450  0.07033  0.22720  Biso   1.000  N
  N2       1.0000 0.16450  0.42967  0.72720  Biso   1.000  N
  N3       1.0000 0.83550  0.92967  0.77280  Biso   1.000  N
  N4       1.0000 0.83550  0.57033  0.27280  Biso   1.000  N
  N5       1.0000 0.96370  0.07939  0.34480  Biso   1.000  N
  N6       1.0000 0.96370  0.42061  0.84480  Biso   1.000  N
  N7       1.0000 0.03630  0.92061  0.65520  Biso   1.000  N
  N8       1.0000 0.03630  0.57939  0.15520  Biso   1.000  N
  C1       1.0000 0.26290  0.07030  0.16130  Biso   1.000  C
  C2       1.0000 0.26290  0.42970  0.66130  Biso   1.000  C
  C3       1.0000 0.73710  0.92970  0.83870  Biso   1.000  C
  C4       1.0000 0.73710  0.57030  0.33870  Biso   1.000  C
  H1       1.0000 0.31590  0.11830  0.16700  Biso   1.000  H
  H2       1.0000 0.31590  0.38170  0.66700  Biso   1.000  H
  H3       1.0000 0.68410  0.88170  0.83300  Biso   1.000  H
  H4       1.0000 0.68410  0.61830  0.33300  Biso   1.000  H
  C5       1.0000 0.29000  0.00110  0.08360  Biso   1.000  C
  C6       1.0000 0.29000  0.49890  0.58360  Biso   1.000  C
  C7       1.0000 0.71000  0.99890  0.91640  Biso   1.000  C
  C8       1.0000 0.71000  0.50110  0.41640  Biso   1.000  C
  H5       1.0000 0.36120  0.00210  0.03800  Biso   1.000  H
  H6       1.0000 0.36120  0.49790  0.53800  Biso   1.000  H
  H7       1.0000 0.63880  0.99790  0.96200  Biso   1.000  H
  H8       1.0000 0.63880  0.50210  0.46200  Biso   1.000  H
  C9       1.0000 0.21310  0.93160  0.07360  Biso   1.000  C
  C10      1.0000 0.21310  0.56840  0.57360  Biso   1.000  C
  C11      1.0000 0.78690  0.06840  0.92640  Biso   1.000  C
  C12      1.0000 0.78690  0.43160  0.42640  Biso   1.000  C
  H9       1.0000 0.23010  0.88430  0.02040  Biso   1.000  H
  H10      1.0000 0.23010  0.61570  0.52040  Biso   1.000  H
  H11      1.0000 0.76990  0.11570  0.97960  Biso   1.000  H
  H12      1.0000 0.76990  0.38430  0.47960  Biso   1.000  H
  C13      1.0000 0.11020  0.93130  0.14210  Biso   1.000  C
  C14      1.0000 0.11020  0.56870  0.64210  Biso   1.000  C
  C15      1.0000 0.88980  0.06870  0.85790  Biso   1.000  C
  C16      1.0000 0.88980  0.43130  0.35790  Biso   1.000  C
  H13      1.0000 0.05570  0.88410  0.13710  Biso   1.000  H
  H14      1.0000 0.05570  0.61590  0.63710  Biso   1.000  H
  H15      1.0000 0.94430  0.11590  0.86290  Biso   1.000  H
  H16      1.0000 0.94430  0.38410  0.36290  Biso   1.000  H
  C17      1.0000 0.08920  0.00190  0.21820  Biso   1.000  C
  C18      1.0000 0.08920  0.49810  0.71820  Biso   1.000  C
  C19      1.0000 0.91080  0.99810  0.78180  Biso   1.000  C
  C20      1.0000 0.91080  0.50190  0.28180  Biso   1.000  C
  C21      1.0000 0.98100  0.00990  0.28840  Biso   1.000  C
  C22      1.0000 0.98100  0.49010  0.78840  Biso   1.000  C
  C23      1.0000 0.01900  0.99010  0.71160  Biso   1.000  C
  C24      1.0000 0.01900  0.50990  0.21160  Biso   1.000  C
  H17      1.0000 0.92470  0.96450  0.29210  Biso   1.000  H
  H18      1.0000 0.92470  0.53550  0.79210  Biso   1.000  H
  H19      1.0000 0.07530  0.03550  0.70790  Biso   1.000  H
  H20      1.0000 0.07530  0.46450  0.20790  Biso   1.000  H
  C25      1.0000 0.85110  0.09490  0.40000  Biso   1.000  C
  C26      1.0000 0.85110  0.40510  0.90000  Biso   1.000  C
  C27      1.0000 0.14890  0.90510  0.60000  Biso   1.000  C
  C28      1.0000 0.14890  0.59490  0.10000  Biso   1.000  C
  C29      1.0000 0.74160  0.04210  0.36140  Biso   1.000  C
  C30      1.0000 0.74160  0.45790  0.86140  Biso   1.000  C
  C31      1.0000 0.25840  0.95790  0.63860  Biso   1.000  C
  C32      1.0000 0.25840  0.54210  0.13860  Biso   1.000  C
  H21      1.0000 0.74280  0.99480  0.29970  Biso   1.000  H
  H22      1.0000 0.74280  0.50520  0.79970  Biso   1.000  H
  H23      1.0000 0.25720  0.00520  0.70030  Biso   1.000  H
  H24      1.0000 0.25720  0.49480  0.20030  Biso   1.000  H
  C33      1.0000 0.63020  0.05710  0.41140  Biso   1.000  C
  C34      1.0000 0.63020  0.44290  0.91140  Biso   1.000  C
  C35      1.0000 0.36980  0.94290  0.58860  Biso   1.000  C
  C36      1.0000 0.36980  0.55710  0.08860  Biso   1.000  C
  H25      1.0000 0.55590  0.02030  0.38380  Biso   1.000  H
  H26      1.0000 0.55590  0.47970  0.88380  Biso   1.000  H
  H27      1.0000 0.44410  0.97970  0.61620  Biso   1.000  H
  H28      1.0000 0.44410  0.52030  0.11620  Biso   1.000  H
  C37      1.0000 0.62750  0.12560  0.50120  Biso   1.000  C
  C38      1.0000 0.62750  0.37440  0.00120  Biso   1.000  C
  C39      1.0000 0.37250  0.87440  0.49880  Biso   1.000  C
  C40      1.0000 0.37250  0.62560  0.99880  Biso   1.000  C
  H29      1.0000 0.55140  0.13640  0.53560  Biso   1.000  H
  H30      1.0000 0.55140  0.36360  0.03560  Biso   1.000  H
  H31      1.0000 0.44860  0.86360  0.46440  Biso   1.000  H
  H32      1.0000 0.44860  0.63640  0.96440  Biso   1.000  H
  C41      1.0000 0.73710  0.17840  0.54070  Biso   1.000  C
  C42      1.0000 0.73710  0.32160  0.04070  Biso   1.000  C
  C43      1.0000 0.26290  0.82160  0.45930  Biso   1.000  C
  C44      1.0000 0.26290  0.67840  0.95930  Biso   1.000  C
  H33      1.0000 0.73530  0.22500  0.60400  Biso   1.000  H
  H34      1.0000 0.73530  0.27500  0.10400  Biso   1.000  H
  H35      1.0000 0.26470  0.77500  0.39600  Biso   1.000  H
  H36      1.0000 0.26470  0.72500  0.89600  Biso   1.000  H
  C45      1.0000 0.84990  0.16550  0.49080  Biso   1.000  C
  C46      1.0000 0.84990  0.33450  0.99080  Biso   1.000  C
  C47      1.0000 0.15010  0.83450  0.50920  Biso   1.000  C
  C48      1.0000 0.15010  0.66550  0.00920  Biso   1.000  C
  C49      1.0000 0.96270  0.22740  0.54620  Biso   1.000  C
  C50      1.0000 0.96270  0.27260  0.04620  Biso   1.000  C
  C51      1.0000 0.03730  0.77260  0.45380  Biso   1.000  C
  C52      1.0000 0.03730  0.72740  0.95380  Biso   1.000  C
  C53      1.0000 0.27890  0.29820  0.33340  Biso   1.000  C
  C54      1.0000 0.27890  0.20180  0.83340  Biso   1.000  C
  C55      1.0000 0.72110  0.70180  0.66660  Biso   1.000  C
  C56      1.0000 0.72110  0.79820  0.16660  Biso   1.000  C
  C57      1.0000 0.42470  0.32210  0.34310  Biso   1.000  C
  C58      1.0000 0.42470  0.17790  0.84310  Biso   1.000  C
  C59      1.0000 0.57530  0.67790  0.65690  Biso   1.000  C
  C60      1.0000 0.57530  0.82210  0.15690  Biso   1.000  C
  F1       1.0000 0.50240  0.32680  0.49330  Biso   1.000  F
  F2       1.0000 0.50240  0.17320  0.99330  Biso   1.000  F
  F3       1.0000 0.49760  0.67320  0.50670  Biso   1.000  F
  F4       1.0000 0.49760  0.82680  0.00670  Biso   1.000  F
  F5       1.0000 0.48510  0.26836  0.27500  Biso   1.000  F
  F6       1.0000 0.48510  0.23164  0.77500  Biso   1.000  F
  F7       1.0000 0.51490  0.73164  0.72500  Biso   1.000  F
  F8       1.0000 0.51490  0.76836  0.22500  Biso   1.000  F
  F9       1.0000 0.43300  0.39331  0.27890  Biso   1.000  F
  F10      1.0000 0.43300  0.10669  0.77890  Biso   1.000  F
  F11      1.0000 0.56700  0.60669  0.72110  Biso   1.000  F
  F12      1.0000 0.56700  0.89331  0.22110  Biso   1.000  F
