data_image0
_cell_length_a       7.223
_cell_length_b       7.438
_cell_length_c       11.591
_cell_angle_alpha    77.727
_cell_angle_beta     80.513
_cell_angle_gamma    74.16

_symmetry_space_group_name_H-M    "P 1"
_symmetry_int_tables_number       1

loop_
  _symmetry_equiv_pos_as_xyz
  'x, y, z'

loop_
  _atom_site_label
  _atom_site_occupancy
  _atom_site_fract_x
  _atom_site_fract_y
  _atom_site_fract_z
  _atom_site_thermal_displace_type
  _atom_site_B_iso_or_equiv
  _atom_site_type_symbol
  Cu1      1.0000 0.08418  0.02363  0.74959  Biso   1.000  Cu
  Cu2      1.0000 0.91582  0.97637  0.25041  Biso   1.000  Cu
  N1       1.0000 0.89620  0.88890  0.85050  Biso   1.000  N
  N2       1.0000 0.10380  0.11110  0.14950  Biso   1.000  N
  C1       1.0000 0.76170  0.83840  0.89730  Biso   1.000  C
  C2       1.0000 0.23830  0.16160  0.10270  Biso   1.000  C
  C3       1.0000 0.59760  0.77890  0.95530  Biso   1.000  C
  C4       1.0000 0.40240  0.22110  0.04470  Biso   1.000  C
  C5       1.0000 0.42180  0.85930  0.90680  Biso   1.000  C
  C6       1.0000 0.57820  0.14070  0.09320  Biso   1.000  C
  N3       1.0000 0.27910  0.92660  0.86530  Biso   1.000  N
  N4       1.0000 0.72090  0.07340  0.13470  Biso   1.000  N
  C7       1.0000 0.60840  0.63630  0.06290  Biso   1.000  C
  C8       1.0000 0.39160  0.36370  0.93710  Biso   1.000  C
  O1       1.0000 0.45560  0.59830  0.12130  Biso   1.000  O
  O2       1.0000 0.54440  0.40170  0.87870  Biso   1.000  O
  N5       1.0000 0.78230  0.54640  0.09600  Biso   1.000  N
  N6       1.0000 0.21770  0.45360  0.90400  Biso   1.000  N
  H1       1.0000 0.84900  0.62600  0.10500  Biso   1.000  H
  H2       1.0000 0.15100  0.37400  0.89500  Biso   1.000  H
  H3       1.0000 0.78400  0.45200  0.15900  Biso   1.000  H
  H4       1.0000 0.21600  0.54800  0.84100  Biso   1.000  H
  N7       1.0000 0.27730  0.14900  0.64510  Biso   1.000  N
  N8       1.0000 0.72270  0.85100  0.35490  Biso   1.000  N
  C9       1.0000 0.41900  0.17570  0.59030  Biso   1.000  C
  C10      1.0000 0.58100  0.82430  0.40970  Biso   1.000  C
  C11      1.0000 0.59100  0.20650  0.52340  Biso   1.000  C
  C12      1.0000 0.40900  0.79350  0.47660  Biso   1.000  C
  C13      1.0000 0.75820  0.15320  0.58230  Biso   1.000  C
  C14      1.0000 0.24180  0.84680  0.41770  Biso   1.000  C
  N9       1.0000 0.89310  0.11040  0.63140  Biso   1.000  N
  N10      1.0000 0.10690  0.88960  0.36860  Biso   1.000  N
  C15      1.0000 0.60370  0.27530  0.39590  Biso   1.000  C
  C16      1.0000 0.39630  0.72470  0.60410  Biso   1.000  C
  O3       1.0000 0.76920  0.28110  0.33670  Biso   1.000  O
  O4       1.0000 0.23080  0.71890  0.66330  Biso   1.000  O
  N11      1.0000 0.44740  0.32500  0.34250  Biso   1.000  N
  N12      1.0000 0.55260  0.67500  0.65750  Biso   1.000  N
  H5       1.0000 0.33400  0.33000  0.38700  Biso   1.000  H
  H6       1.0000 0.66600  0.67000  0.61300  Biso   1.000  H
  H7       1.0000 0.45300  0.38800  0.26780  Biso   1.000  H
  H8       1.0000 0.54700  0.61200  0.73220  Biso   1.000  H
  O5       1.0000 0.94400  0.30170  0.82230  Biso   1.000  O
  O6       1.0000 0.05600  0.69830  0.17770  Biso   1.000  O
  H9       1.0000 0.94800  0.39900  0.76100  Biso   1.000  H
  H10      1.0000 0.05200  0.60100  0.23900  Biso   1.000  H
  H11      1.0000 0.82300  0.30700  0.85600  Biso   1.000  H
  H12      1.0000 0.17700  0.69300  0.14400  Biso   1.000  H
  O7       1.0000 0.95450  0.56560  0.60810  Biso   1.000  O
  O8       1.0000 0.04550  0.43440  0.39190  Biso   1.000  O
  H13      1.0000 0.97100  0.54000  0.53550  Biso   1.000  H
  H14      1.0000 0.02900  0.46000  0.46450  Biso   1.000  H
  H15      1.0000 0.03800  0.63000  0.61700  Biso   1.000  H
  H16      1.0000 0.96200  0.37000  0.38300  Biso   1.000  H
