data_image0
_cell_length_a       7.1902
_cell_length_b       7.5288
_cell_length_c       11.562
_cell_angle_alpha    77.211
_cell_angle_beta     80.432
_cell_angle_gamma    74.07

_symmetry_space_group_name_H-M    "P 1"
_symmetry_int_tables_number       1

loop_
  _symmetry_equiv_pos_as_xyz
  'x, y, z'

loop_
  _atom_site_label
  _atom_site_occupancy
  _atom_site_fract_x
  _atom_site_fract_y
  _atom_site_fract_z
  _atom_site_thermal_displace_type
  _atom_site_B_iso_or_equiv
  _atom_site_type_symbol
  Cu1      1.0000 0.91685  0.97895  0.74922  Biso   1.000  Cu
  Cu2      1.0000 0.08315  0.02105  0.25078  Biso   1.000  Cu
  N1       1.0000 0.21940  0.45120  0.40080  Biso   1.000  N
  N2       1.0000 0.78060  0.54880  0.59920  Biso   1.000  N
  N3       1.0000 0.72110  0.07720  0.63450  Biso   1.000  N
  N4       1.0000 0.27890  0.92280  0.36550  Biso   1.000  N
  N5       1.0000 0.10420  0.11310  0.64900  Biso   1.000  N
  N6       1.0000 0.89580  0.88690  0.35100  Biso   1.000  N
  N7       1.0000 0.55410  0.67440  0.15530  Biso   1.000  N
  N8       1.0000 0.44590  0.32560  0.84470  Biso   1.000  N
  N9       1.0000 0.10920  0.89160  0.86650  Biso   1.000  N
  N10      1.0000 0.89080  0.10840  0.13350  Biso   1.000  N
  N11      1.0000 0.72390  0.85440  0.85470  Biso   1.000  N
  N12      1.0000 0.27610  0.14560  0.14530  Biso   1.000  N
  O1       1.0000 0.54570  0.40310  0.37940  Biso   1.000  O
  O2       1.0000 0.45430  0.59690  0.62060  Biso   1.000  O
  O3       1.0000 0.23200  0.71970  0.16130  Biso   1.000  O
  O4       1.0000 0.76800  0.28030  0.83870  Biso   1.000  O
  O5       1.0000 0.05560  0.70410  0.67460  Biso   1.000  O
  O6       1.0000 0.94440  0.29590  0.32540  Biso   1.000  O
  O7       1.0000 0.95700  0.56260  0.10690  Biso   1.000  O
  O8       1.0000 0.04300  0.43740  0.89310  Biso   1.000  O
  C1       1.0000 0.39250  0.36340  0.43590  Biso   1.000  C
  C2       1.0000 0.60750  0.63660  0.56410  Biso   1.000  C
  C3       1.0000 0.40250  0.22250  0.54360  Biso   1.000  C
  C4       1.0000 0.59750  0.77750  0.45640  Biso   1.000  C
  C5       1.0000 0.57830  0.14240  0.59320  Biso   1.000  C
  C6       1.0000 0.42170  0.85760  0.40680  Biso   1.000  C
  C7       1.0000 0.23890  0.16260  0.60190  Biso   1.000  C
  C8       1.0000 0.76110  0.83740  0.39810  Biso   1.000  C
  C9       1.0000 0.39760  0.72470  0.10150  Biso   1.000  C
  C10      1.0000 0.60240  0.27530  0.89850  Biso   1.000  C
  C11      1.0000 0.41160  0.79420  0.97550  Biso   1.000  C
  C12      1.0000 0.58840  0.20580  0.02450  Biso   1.000  C
  C13      1.0000 0.24260  0.84940  0.91600  Biso   1.000  C
  C14      1.0000 0.75740  0.15060  0.08400  Biso   1.000  C
  C15      1.0000 0.58270  0.82620  0.90900  Biso   1.000  C
  C16      1.0000 0.41730  0.17380  0.09100  Biso   1.000  C
  H1       1.0000 0.19700  0.55200  0.33200  Biso   1.000  H
  H2       1.0000 0.80300  0.44800  0.66800  Biso   1.000  H
  H3       1.0000 0.13100  0.42700  0.47200  Biso   1.000  H
  H4       1.0000 0.86900  0.57300  0.52800  Biso   1.000  H
  H5       1.0000 0.68900  0.66100  0.12200  Biso   1.000  H
  H6       1.0000 0.31100  0.33900  0.87800  Biso   1.000  H
  H7       1.0000 0.54600  0.62000  0.23890  Biso   1.000  H
  H8       1.0000 0.45400  0.38000  0.76110  Biso   1.000  H
  H9       1.0000 0.18400  0.62300  0.65900  Biso   1.000  H
  H10      1.0000 0.81600  0.37700  0.34100  Biso   1.000  H
  H11      1.0000 0.05600  0.78900  0.59900  Biso   1.000  H
  H12      1.0000 0.94400  0.21100  0.40100  Biso   1.000  H
  H13      1.0000 0.97600  0.47400  0.18100  Biso   1.000  H
  H14      1.0000 0.02400  0.52600  0.81900  Biso   1.000  H
  H15      1.0000 0.02400  0.66100  0.09900  Biso   1.000  H
  H16      1.0000 0.97600  0.33900  0.90100  Biso   1.000  H
