data_image0
_cell_length_a       6.6621
_cell_length_b       10.4598
_cell_length_c       10.822
_cell_angle_alpha    111.614
_cell_angle_beta     103.515
_cell_angle_gamma    97.124

_symmetry_space_group_name_H-M    "P 1"
_symmetry_int_tables_number       1

loop_
  _symmetry_equiv_pos_as_xyz
  'x, y, z'

loop_
  _atom_site_label
  _atom_site_occupancy
  _atom_site_fract_x
  _atom_site_fract_y
  _atom_site_fract_z
  _atom_site_thermal_displace_type
  _atom_site_B_iso_or_equiv
  _atom_site_type_symbol
  Cd1      1.0000 0.42410  0.29736  0.90457  Biso   1.000  Cd
  Cd2      1.0000 0.57590  0.70264  0.09543  Biso   1.000  Cd
  Cu1      1.0000 0.00000  0.00000  0.00000  Biso   1.000  Cu
  O1       1.0000 0.53570  0.49240  0.12330  Biso   1.000  O
  O2       1.0000 0.46430  0.50760  0.87670  Biso   1.000  O
  O3       1.0000 0.53220  0.29530  0.14740  Biso   1.000  O
  O4       1.0000 0.46780  0.70470  0.85260  Biso   1.000  O
  O5       1.0000 0.35580  0.04940  0.78180  Biso   1.000  O
  O6       1.0000 0.64420  0.95060  0.21820  Biso   1.000  O
  O7       1.0000 0.31730  0.17310  0.65620  Biso   1.000  O
  O8       1.0000 0.68270  0.82690  0.34380  Biso   1.000  O
  O9       1.0000 0.09010  0.25340  0.92380  Biso   1.000  O
  O10      1.0000 0.90990  0.74660  0.07620  Biso   1.000  O
  O11      1.0000 0.76700  0.27150  0.93000  Biso   1.000  O
  O12      1.0000 0.23300  0.72850  0.07000  Biso   1.000  O
  N1       1.0000 0.25940  0.06980  0.16350  Biso   1.000  N
  N2       1.0000 0.74060  0.93020  0.83650  Biso   1.000  N
  H1       1.0000 0.31170  0.99670  0.17070  Biso   1.000  H
  H2       1.0000 0.68830  0.00330  0.82930  Biso   1.000  H
  H3       1.0000 0.35970  0.12800  0.15340  Biso   1.000  H
  H4       1.0000 0.64030  0.87200  0.84660  Biso   1.000  H
  N3       1.0000 0.87980  0.13510  0.12870  Biso   1.000  N
  N4       1.0000 0.12020  0.86490  0.87130  Biso   1.000  N
  H5       1.0000 0.81200  0.18370  0.08580  Biso   1.000  H
  H6       1.0000 0.18800  0.81630  0.91420  Biso   1.000  H
  H7       1.0000 0.78540  0.08770  0.15330  Biso   1.000  H
  H8       1.0000 0.21460  0.91230  0.84670  Biso   1.000  H
  C1       1.0000 0.20080  0.14610  0.28910  Biso   1.000  C
  C2       1.0000 0.79920  0.85390  0.71090  Biso   1.000  C
  H9       1.0000 0.32630  0.20740  0.36480  Biso   1.000  H
  H10      1.0000 0.67370  0.79260  0.63520  Biso   1.000  H
  H11      1.0000 0.13220  0.07970  0.31830  Biso   1.000  H
  H12      1.0000 0.86780  0.92030  0.68170  Biso   1.000  H
  C3       1.0000 0.05070  0.23250  0.25240  Biso   1.000  C
  C4       1.0000 0.94930  0.76750  0.74760  Biso   1.000  C
  H13      1.0000 0.99470  0.27640  0.32880  Biso   1.000  H
  H14      1.0000 0.00530  0.72360  0.67120  Biso   1.000  H
  H15      1.0000 0.12360  0.30610  0.23350  Biso   1.000  H
  H16      1.0000 0.87640  0.69390  0.76650  Biso   1.000  H
  C5       1.0000 0.56630  0.42720  0.20020  Biso   1.000  C
  C6       1.0000 0.43370  0.57280  0.79980  Biso   1.000  C
  C7       1.0000 0.64480  0.51010  0.35550  Biso   1.000  C
  C8       1.0000 0.35520  0.48990  0.64450  Biso   1.000  C
  H17      1.0000 0.66610  0.44670  0.40010  Biso   1.000  H
  H18      1.0000 0.33390  0.55330  0.59990  Biso   1.000  H
  H19      1.0000 0.54190  0.56070  0.38520  Biso   1.000  H
  H20      1.0000 0.45810  0.43930  0.61480  Biso   1.000  H
  H21      1.0000 0.77670  0.57600  0.38040  Biso   1.000  H
  H22      1.0000 0.22330  0.42400  0.61960  Biso   1.000  H
  C9       1.0000 0.31160  0.05670  0.66560  Biso   1.000  C
  C10      1.0000 0.68840  0.94330  0.33440  Biso   1.000  C
  C11      1.0000 0.24800  0.92220  0.53510  Biso   1.000  C
  C12      1.0000 0.75200  0.07780  0.46490  Biso   1.000  C
  H23      1.0000 0.37210  0.89990  0.50960  Biso   1.000  H
  H24      1.0000 0.62790  0.10010  0.49040  Biso   1.000  H
  H25      1.0000 0.15250  0.93430  0.46090  Biso   1.000  H
  H26      1.0000 0.84750  0.06570  0.53910  Biso   1.000  H
  H27      1.0000 0.17890  0.84650  0.55160  Biso   1.000  H
  H28      1.0000 0.82110  0.15350  0.44840  Biso   1.000  H
  C13      1.0000 0.92590  0.29490  0.89180  Biso   1.000  C
  C14      1.0000 0.07410  0.70510  0.10820  Biso   1.000  C
  C15      1.0000 0.91620  0.37630  0.80270  Biso   1.000  C
  C16      1.0000 0.08380  0.62370  0.19730  Biso   1.000  C
  H29      1.0000 0.78170  0.40140  0.78730  Biso   1.000  H
  H30      1.0000 0.21830  0.59860  0.21270  Biso   1.000  H
  H31      1.0000 0.93260  0.31890  0.71470  Biso   1.000  H
  H32      1.0000 0.06740  0.68110  0.28530  Biso   1.000  H
  H33      1.0000 0.02820  0.46050  0.84890  Biso   1.000  H
  H34      1.0000 0.97180  0.53950  0.15110  Biso   1.000  H
