data_image0
_cell_length_a       7.8916
_cell_length_b       9.3605
_cell_length_c       17.525
_cell_angle_alpha    92.311
_cell_angle_beta     93.701
_cell_angle_gamma    103.863

_symmetry_space_group_name_H-M    "P 1"
_symmetry_int_tables_number       1

loop_
  _symmetry_equiv_pos_as_xyz
  'x, y, z'

loop_
  _atom_site_label
  _atom_site_occupancy
  _atom_site_fract_x
  _atom_site_fract_y
  _atom_site_fract_z
  _atom_site_thermal_displace_type
  _atom_site_B_iso_or_equiv
  _atom_site_type_symbol
  Cu1      1.0000 0.06925  0.49133  0.24794  Biso   1.000  Cu
  Cu2      1.0000 0.93075  0.50867  0.75206  Biso   1.000  Cu
  Cl1      1.0000 0.44684  0.10821  0.15243  Biso   1.000  Cl
  Cl2      1.0000 0.55316  0.89179  0.84757  Biso   1.000  Cl
  Cl3      1.0000 0.72042  0.58723  0.37843  Biso   1.000  Cl
  Cl4      1.0000 0.27958  0.41277  0.62157  Biso   1.000  Cl
  O1       1.0000 0.35960  0.50140  0.20450  Biso   1.000  O
  O2       1.0000 0.64040  0.49860  0.79550  Biso   1.000  O
  O3       1.0000 0.29090  0.00710  0.16200  Biso   1.000  O
  O4       1.0000 0.70910  0.99290  0.83800  Biso   1.000  O
  O5       1.0000 0.59950  0.09040  0.18670  Biso   1.000  O
  O6       1.0000 0.40050  0.90960  0.81330  Biso   1.000  O
  O7       1.0000 0.43600  0.19600  0.09330  Biso   1.000  O
  O8       1.0000 0.56400  0.80400  0.90670  Biso   1.000  O
  O9       1.0000 0.45030  0.24880  0.13340  Biso   1.000  O
  O10      1.0000 0.54970  0.75120  0.86660  Biso   1.000  O
  O11      1.0000 0.48160  0.03310  0.07680  Biso   1.000  O
  O12      1.0000 0.51840  0.96690  0.92320  Biso   1.000  O
  O13      1.0000 0.41300  0.20320  0.21850  Biso   1.000  O
  O14      1.0000 0.58700  0.79680  0.78150  Biso   1.000  O
  O15      1.0000 0.84370  0.72540  0.39470  Biso   1.000  O
  O16      1.0000 0.15630  0.27460  0.60530  Biso   1.000  O
  O17      1.0000 0.78480  0.49110  0.33160  Biso   1.000  O
  O18      1.0000 0.21520  0.50890  0.66840  Biso   1.000  O
  O19      1.0000 0.58100  0.61770  0.33330  Biso   1.000  O
  O20      1.0000 0.41900  0.38230  0.66670  Biso   1.000  O
  O21      1.0000 0.61030  0.53190  0.43500  Biso   1.000  O
  O22      1.0000 0.38970  0.46810  0.56500  Biso   1.000  O
  O23      1.0000 0.75200  0.51570  0.44260  Biso   1.000  O
  O24      1.0000 0.24800  0.48430  0.55740  Biso   1.000  O
  N1       1.0000 0.98360  0.35420  0.15548  Biso   1.000  N
  N2       1.0000 0.01640  0.64580  0.84452  Biso   1.000  N
  N3       1.0000 0.94260  0.62130  0.18780  Biso   1.000  N
  N4       1.0000 0.05740  0.37870  0.81220  Biso   1.000  N
  N5       1.0000 0.19650  0.65340  0.32348  Biso   1.000  N
  N6       1.0000 0.80350  0.34660  0.67652  Biso   1.000  N
  N7       1.0000 0.49810  0.00920  0.46530  Biso   1.000  N
  N8       1.0000 0.50190  0.99080  0.53470  Biso   1.000  N
  N9       1.0000 0.07970  0.32570  0.31709  Biso   1.000  N
  N10      1.0000 0.92030  0.67430  0.68291  Biso   1.000  N
  N11      1.0000 0.07230  0.02090  0.48690  Biso   1.000  N
  N12      1.0000 0.92770  0.97910  0.51310  Biso   1.000  N
  C1       1.0000 0.90790  0.74980  0.20850  Biso   1.000  C
  C2       1.0000 0.09210  0.25020  0.79150  Biso   1.000  C
  H1       1.0000 0.95470  0.79600  0.25580  Biso   1.000  H
  H2       1.0000 0.04530  0.20400  0.74420  Biso   1.000  H
  C3       1.0000 0.80420  0.81670  0.16170  Biso   1.000  C
  C4       1.0000 0.19580  0.18330  0.83830  Biso   1.000  C
  H3       1.0000 0.78130  0.90530  0.17840  Biso   1.000  H
  H4       1.0000 0.21870  0.09470  0.82160  Biso   1.000  H
  C5       1.0000 0.73620  0.75350  0.09180  Biso   1.000  C
  C6       1.0000 0.26380  0.24650  0.90820  Biso   1.000  C
  H5       1.0000 0.66840  0.79930  0.06040  Biso   1.000  H
  H6       1.0000 0.33160  0.20070  0.93960  Biso   1.000  H
  C7       1.0000 0.76870  0.61860  0.06740  Biso   1.000  C
  C8       1.0000 0.23130  0.38140  0.93260  Biso   1.000  C
  C9       1.0000 0.86780  0.55550  0.11930  Biso   1.000  C
  C10      1.0000 0.13220  0.44450  0.88070  Biso   1.000  C
  C11      1.0000 0.89500  0.41210  0.10080  Biso   1.000  C
  C12      1.0000 0.10500  0.58790  0.89920  Biso   1.000  C
  C13      1.0000 0.83130  0.33920  0.03000  Biso   1.000  C
  C14      1.0000 0.16870  0.66080  0.97000  Biso   1.000  C
  C15      1.0000 0.86410  0.19930  0.01540  Biso   1.000  C
  C16      1.0000 0.13590  0.80070  0.98460  Biso   1.000  C
  H7       1.0000 0.82240  0.14540  0.96940  Biso   1.000  H
  H8       1.0000 0.17760  0.85460  0.03060  Biso   1.000  H
  C17      1.0000 0.95870  0.14420  0.07050  Biso   1.000  C
  C18      1.0000 0.04130  0.85580  0.92950  Biso   1.000  C
  H9       1.0000 0.98530  0.05370  0.06120  Biso   1.000  H
  H10      1.0000 0.01470  0.94630  0.93880  Biso   1.000  H
  C19      1.0000 0.01480  0.22320  0.13990  Biso   1.000  C
  C20      1.0000 0.98520  0.77680  0.86010  Biso   1.000  C
  H11      1.0000 0.07650  0.18310  0.17690  Biso   1.000  H
  H12      1.0000 0.92350  0.81690  0.82310  Biso   1.000  H
  C21      1.0000 0.70750  0.54230  0.99490  Biso   1.000  C
  C22      1.0000 0.29250  0.45770  0.00510  Biso   1.000  C
  H13      1.0000 0.64550  0.58540  0.95950  Biso   1.000  H
  H14      1.0000 0.35450  0.41460  0.04050  Biso   1.000  H
  C23      1.0000 0.73690  0.40950  0.97630  Biso   1.000  C
  C24      1.0000 0.26310  0.59050  0.02370  Biso   1.000  C
  H15      1.0000 0.69580  0.36320  0.92850  Biso   1.000  H
  H16      1.0000 0.30420  0.63680  0.07150  Biso   1.000  H
  C25      1.0000 0.19520  0.64640  0.39970  Biso   1.000  C
  C26      1.0000 0.80480  0.35360  0.60030  Biso   1.000  C
  H17      1.0000 0.12560  0.56350  0.41950  Biso   1.000  H
  H18      1.0000 0.87440  0.43650  0.58050  Biso   1.000  H
  C27      1.0000 0.29270  0.75710  0.45010  Biso   1.000  C
  C28      1.0000 0.70730  0.24290  0.54990  Biso   1.000  C
  H19      1.0000 0.29190  0.74780  0.50270  Biso   1.000  H
  H20      1.0000 0.70810  0.25220  0.49730  Biso   1.000  H
  C29      1.0000 0.39260  0.88290  0.42050  Biso   1.000  C
  C30      1.0000 0.60740  0.11710  0.57950  Biso   1.000  C
  C31      1.0000 0.39330  0.89370  0.34230  Biso   1.000  C
  C32      1.0000 0.60670  0.10630  0.65770  Biso   1.000  C
  H21      1.0000 0.45780  0.97760  0.32150  Biso   1.000  H
  H22      1.0000 0.54220  0.02240  0.67850  Biso   1.000  H
  C33      1.0000 0.29480  0.77560  0.29570  Biso   1.000  C
  C34      1.0000 0.70520  0.22440  0.70430  Biso   1.000  C
  H23      1.0000 0.29680  0.78110  0.24290  Biso   1.000  H
  H24      1.0000 0.70320  0.21890  0.75710  Biso   1.000  H
  C35      1.0000 0.92960  0.22420  0.32630  Biso   1.000  C
  C36      1.0000 0.07040  0.77580  0.67370  Biso   1.000  C
  H25      1.0000 0.82970  0.22490  0.29530  Biso   1.000  H
  H26      1.0000 0.17030  0.77510  0.70470  Biso   1.000  H
  C37      1.0000 0.91980  0.11930  0.38020  Biso   1.000  C
  C38      1.0000 0.08020  0.88070  0.61980  Biso   1.000  C
  H27      1.0000 0.81600  0.04920  0.38510  Biso   1.000  H
  H28      1.0000 0.18400  0.95080  0.61490  Biso   1.000  H
  C39      1.0000 0.06850  0.12140  0.42670  Biso   1.000  C
  C40      1.0000 0.93150  0.87860  0.57330  Biso   1.000  C
  C41      1.0000 0.22370  0.22120  0.41610  Biso   1.000  C
  C42      1.0000 0.77630  0.77880  0.58390  Biso   1.000  C
  H29      1.0000 0.32550  0.22080  0.44580  Biso   1.000  H
  H30      1.0000 0.67450  0.77920  0.55420  Biso   1.000  H
  C43      1.0000 0.22520  0.32150  0.36060  Biso   1.000  C
  C44      1.0000 0.77480  0.67850  0.63940  Biso   1.000  C
  H31      1.0000 0.32980  0.38830  0.35290  Biso   1.000  H
  H32      1.0000 0.67020  0.61170  0.64710  Biso   1.000  H
  H33      1.0000 0.39100  0.43400  0.18200  Biso   1.000  H
  H34      1.0000 0.60900  0.56600  0.81800  Biso   1.000  H
  H35      1.0000 0.44200  0.53700  0.23600  Biso   1.000  H
  H36      1.0000 0.55800  0.46300  0.76400  Biso   1.000  H
