data_image0
_cell_length_a       7.8868
_cell_length_b       9.3638
_cell_length_c       17.56
_cell_angle_alpha    92.24
_cell_angle_beta     93.81
_cell_angle_gamma    103.97

_symmetry_space_group_name_H-M    "P 1"
_symmetry_int_tables_number       1

loop_
  _symmetry_equiv_pos_as_xyz
  'x, y, z'

loop_
  _atom_site_label
  _atom_site_occupancy
  _atom_site_fract_x
  _atom_site_fract_y
  _atom_site_fract_z
  _atom_site_thermal_displace_type
  _atom_site_B_iso_or_equiv
  _atom_site_type_symbol
  Cu1      1.0000 0.06932  0.49130  0.24799  Biso   1.000  Cu
  Cu2      1.0000 0.93068  0.50870  0.75201  Biso   1.000  Cu
  Cl1      1.0000 0.72031  0.58701  0.37840  Biso   1.000  Cl
  Cl2      1.0000 0.27969  0.41299  0.62160  Biso   1.000  Cl
  Cl3      1.0000 0.44651  0.10778  0.15239  Biso   1.000  Cl
  Cl4      1.0000 0.55349  0.89222  0.84761  Biso   1.000  Cl
  O1       1.0000 0.78750  0.49140  0.33180  Biso   1.000  O
  O2       1.0000 0.21250  0.50860  0.66820  Biso   1.000  O
  O3       1.0000 0.84350  0.72510  0.39470  Biso   1.000  O
  O4       1.0000 0.15650  0.27490  0.60530  Biso   1.000  O
  O5       1.0000 0.58100  0.61840  0.33340  Biso   1.000  O
  O6       1.0000 0.41900  0.38160  0.66660  Biso   1.000  O
  O7       1.0000 0.60900  0.53380  0.43450  Biso   1.000  O
  O8       1.0000 0.39100  0.46620  0.56550  Biso   1.000  O
  O9       1.0000 0.73900  0.51980  0.44350  Biso   1.000  O
  O10      1.0000 0.26100  0.48020  0.55650  Biso   1.000  O
  O11      1.0000 0.60020  0.08990  0.18700  Biso   1.000  O
  O12      1.0000 0.39980  0.91010  0.81300  Biso   1.000  O
  O13      1.0000 0.29010  0.00710  0.16170  Biso   1.000  O
  O14      1.0000 0.70990  0.99290  0.83830  Biso   1.000  O
  O15      1.0000 0.44970  0.24910  0.13210  Biso   1.000  O
  O16      1.0000 0.55030  0.75090  0.86790  Biso   1.000  O
  O17      1.0000 0.43380  0.18300  0.08920  Biso   1.000  O
  O18      1.0000 0.56620  0.81700  0.91080  Biso   1.000  O
  O19      1.0000 0.40700  0.19670  0.22230  Biso   1.000  O
  O20      1.0000 0.59300  0.80330  0.77770  Biso   1.000  O
  O21      1.0000 0.48510  0.03160  0.07620  Biso   1.000  O
  O22      1.0000 0.51490  0.96840  0.92380  Biso   1.000  O
  O23      1.0000 0.35980  0.50180  0.20451  Biso   1.000  O
  O24      1.0000 0.64020  0.49820  0.79549  Biso   1.000  O
  N1       1.0000 0.98340  0.35410  0.15551  Biso   1.000  N
  N2       1.0000 0.01660  0.64590  0.84449  Biso   1.000  N
  N3       1.0000 0.94240  0.62140  0.18772  Biso   1.000  N
  N4       1.0000 0.05760  0.37860  0.81228  Biso   1.000  N
  N5       1.0000 0.19710  0.65320  0.32358  Biso   1.000  N
  N6       1.0000 0.80290  0.34680  0.67642  Biso   1.000  N
  N7       1.0000 0.07920  0.32560  0.31733  Biso   1.000  N
  N8       1.0000 0.92080  0.67440  0.68267  Biso   1.000  N
  C1       1.0000 0.01530  0.22360  0.13993  Biso   1.000  C
  C2       1.0000 0.98470  0.77640  0.86007  Biso   1.000  C
  H1       1.0000 0.07790  0.18380  0.17670  Biso   1.000  H
  H2       1.0000 0.92210  0.81620  0.82330  Biso   1.000  H
  C3       1.0000 0.95810  0.14390  0.07030  Biso   1.000  C
  C4       1.0000 0.04190  0.85610  0.92970  Biso   1.000  C
  H3       1.0000 0.98420  0.05340  0.06100  Biso   1.000  H
  H4       1.0000 0.01580  0.94660  0.93900  Biso   1.000  H
  C5       1.0000 0.86350  0.19900  0.01551  Biso   1.000  C
  C6       1.0000 0.13650  0.80100  0.98449  Biso   1.000  C
  H5       1.0000 0.82180  0.14520  0.96960  Biso   1.000  H
  H6       1.0000 0.17820  0.85480  0.03040  Biso   1.000  H
  C7       1.0000 0.83020  0.33840  0.02984  Biso   1.000  C
  C8       1.0000 0.16980  0.66160  0.97016  Biso   1.000  C
  C9       1.0000 0.89480  0.41270  0.10083  Biso   1.000  C
  C10      1.0000 0.10520  0.58730  0.89917  Biso   1.000  C
  C11      1.0000 0.90900  0.74960  0.20850  Biso   1.000  C
  C12      1.0000 0.09100  0.25040  0.79150  Biso   1.000  C
  H7       1.0000 0.95740  0.79560  0.25560  Biso   1.000  H
  H8       1.0000 0.04260  0.20440  0.74440  Biso   1.000  H
  C13      1.0000 0.80400  0.81770  0.16230  Biso   1.000  C
  C14      1.0000 0.19600  0.18230  0.83770  Biso   1.000  C
  H9       1.0000 0.77970  0.90520  0.17960  Biso   1.000  H
  H10      1.0000 0.22030  0.09480  0.82040  Biso   1.000  H
  C15      1.0000 0.73730  0.75540  0.09170  Biso   1.000  C
  C16      1.0000 0.26270  0.24460  0.90830  Biso   1.000  C
  H11      1.0000 0.67180  0.80240  0.05980  Biso   1.000  H
  H12      1.0000 0.32820  0.19760  0.94020  Biso   1.000  H
  C17      1.0000 0.76830  0.61860  0.06741  Biso   1.000  C
  C18      1.0000 0.23170  0.38140  0.93259  Biso   1.000  C
  C19      1.0000 0.86810  0.55450  0.11908  Biso   1.000  C
  C20      1.0000 0.13190  0.44550  0.88092  Biso   1.000  C
  C21      1.0000 0.73670  0.40940  0.97632  Biso   1.000  C
  C22      1.0000 0.26330  0.59060  0.02368  Biso   1.000  C
  H13      1.0000 0.69620  0.36340  0.92840  Biso   1.000  H
  H14      1.0000 0.30380  0.63660  0.07160  Biso   1.000  H
  C23      1.0000 0.70660  0.54280  0.99480  Biso   1.000  C
  C24      1.0000 0.29340  0.45720  0.00520  Biso   1.000  C
  H15      1.0000 0.64440  0.58590  0.95930  Biso   1.000  H
  H16      1.0000 0.35560  0.41410  0.04070  Biso   1.000  H
  C25      1.0000 0.29470  0.77480  0.29531  Biso   1.000  C
  C26      1.0000 0.70530  0.22520  0.70469  Biso   1.000  C
  H17      1.0000 0.29650  0.78000  0.24260  Biso   1.000  H
  H18      1.0000 0.70350  0.22000  0.75740  Biso   1.000  H
  C27      1.0000 0.39300  0.89310  0.34200  Biso   1.000  C
  C28      1.0000 0.60700  0.10690  0.65800  Biso   1.000  C
  H19      1.0000 0.45720  0.97710  0.32120  Biso   1.000  H
  H20      1.0000 0.54280  0.02290  0.67880  Biso   1.000  H
  C29      1.0000 0.39290  0.88260  0.42068  Biso   1.000  C
  C30      1.0000 0.60710  0.11740  0.57932  Biso   1.000  C
  C31      1.0000 0.29330  0.75790  0.45043  Biso   1.000  C
  C32      1.0000 0.70670  0.24210  0.54957  Biso   1.000  C
  H21      1.0000 0.29200  0.74930  0.50300  Biso   1.000  H
  H22      1.0000 0.70800  0.25070  0.49700  Biso   1.000  H
  C33      1.0000 0.19510  0.64590  0.39997  Biso   1.000  C
  C34      1.0000 0.80490  0.35410  0.60003  Biso   1.000  C
  H23      1.0000 0.12560  0.56290  0.41960  Biso   1.000  H
  H24      1.0000 0.87440  0.43710  0.58040  Biso   1.000  H
  C35      1.0000 0.49880  0.00820  0.46524  Biso   1.000  C
  C36      1.0000 0.50120  0.99180  0.53476  Biso   1.000  C
  H25      1.0000 0.55930  0.09330  0.44400  Biso   1.000  H
  H26      1.0000 0.44070  0.90670  0.55600  Biso   1.000  H
  C37      1.0000 0.22470  0.32180  0.36036  Biso   1.000  C
  C38      1.0000 0.77530  0.67820  0.63964  Biso   1.000  C
  H27      1.0000 0.32910  0.38900  0.35250  Biso   1.000  H
  H28      1.0000 0.67090  0.61100  0.64750  Biso   1.000  H
  C39      1.0000 0.22470  0.22120  0.41608  Biso   1.000  C
  C40      1.0000 0.77530  0.77880  0.58392  Biso   1.000  C
  H29      1.0000 0.32720  0.22080  0.44540  Biso   1.000  H
  H30      1.0000 0.67280  0.77920  0.55460  Biso   1.000  H
  C41      1.0000 0.06880  0.12130  0.42705  Biso   1.000  C
  C42      1.0000 0.93120  0.87870  0.57295  Biso   1.000  C
  C43      1.0000 0.91970  0.12040  0.38021  Biso   1.000  C
  C44      1.0000 0.08030  0.87960  0.61979  Biso   1.000  C
  H31      1.0000 0.81520  0.05100  0.38520  Biso   1.000  H
  H32      1.0000 0.18480  0.94900  0.61480  Biso   1.000  H
  C45      1.0000 0.92960  0.22400  0.32634  Biso   1.000  C
  C46      1.0000 0.07040  0.77600  0.67366  Biso   1.000  C
  H33      1.0000 0.82980  0.22410  0.29500  Biso   1.000  H
  H34      1.0000 0.17020  0.77590  0.70500  Biso   1.000  H
  C47      1.0000 0.07240  0.02130  0.48650  Biso   1.000  C
  C48      1.0000 0.92760  0.97870  0.51350  Biso   1.000  C
  H35      1.0000 0.17210  0.99150  0.50320  Biso   1.000  H
  H36      1.0000 0.82790  0.00850  0.49680  Biso   1.000  H
  H37      1.0000 0.44300  0.53800  0.23600  Biso   1.000  H
  H38      1.0000 0.55700  0.46200  0.76400  Biso   1.000  H
  H39      1.0000 0.37700  0.42300  0.18800  Biso   1.000  H
  H40      1.0000 0.62300  0.57700  0.81200  Biso   1.000  H
