data_image0
_cell_length_a       11.5171
_cell_length_b       27.088
_cell_length_c       7.8068
_cell_angle_alpha    90
_cell_angle_beta     91.576
_cell_angle_gamma    90

_symmetry_space_group_name_H-M    "P 1"
_symmetry_int_tables_number       1

loop_
  _symmetry_equiv_pos_as_xyz
  'x, y, z'

loop_
  _atom_site_label
  _atom_site_occupancy
  _atom_site_fract_x
  _atom_site_fract_y
  _atom_site_fract_z
  _atom_site_thermal_displace_type
  _atom_site_B_iso_or_equiv
  _atom_site_type_symbol
  Cr1      1.0000 0.25574  0.16757  0.67374  Biso   1.000  Cr
  Cr2      1.0000 0.74426  0.66757  0.82626  Biso   1.000  Cr
  Cr3      1.0000 0.74426  0.83243  0.32626  Biso   1.000  Cr
  Cr4      1.0000 0.25574  0.33243  0.17374  Biso   1.000  Cr
  Cu1      1.0000 0.24142  0.21844  0.10378  Biso   1.000  Cu
  Cu2      1.0000 0.75858  0.71844  0.39622  Biso   1.000  Cu
  Cu3      1.0000 0.75858  0.78156  0.89622  Biso   1.000  Cu
  Cu4      1.0000 0.24142  0.28156  0.60378  Biso   1.000  Cu
  C1       1.0000 0.48480  0.23820  0.01070  Biso   1.000  C
  C2       1.0000 0.51520  0.73820  0.48930  Biso   1.000  C
  C3       1.0000 0.51520  0.76180  0.98930  Biso   1.000  C
  C4       1.0000 0.48480  0.26180  0.51070  Biso   1.000  C
  H1       1.0000 0.45900  0.27020  0.98890  Biso   1.000  H
  H2       1.0000 0.54100  0.77020  0.51110  Biso   1.000  H
  H3       1.0000 0.54100  0.72980  0.01110  Biso   1.000  H
  H4       1.0000 0.45900  0.22980  0.48890  Biso   1.000  H
  C5       1.0000 0.59770  0.22593  0.97290  Biso   1.000  C
  C6       1.0000 0.40230  0.72593  0.52710  Biso   1.000  C
  C7       1.0000 0.40230  0.77407  0.02710  Biso   1.000  C
  C8       1.0000 0.59770  0.27407  0.47290  Biso   1.000  C
  H5       1.0000 0.64770  0.24940  0.92900  Biso   1.000  H
  H6       1.0000 0.35230  0.74940  0.57100  Biso   1.000  H
  H7       1.0000 0.35230  0.75060  0.07100  Biso   1.000  H
  H8       1.0000 0.64770  0.25060  0.42900  Biso   1.000  H
  C9       1.0000 0.63500  0.17801  0.00170  Biso   1.000  C
  C10      1.0000 0.36500  0.67801  0.49830  Biso   1.000  C
  C11      1.0000 0.36500  0.82199  0.99830  Biso   1.000  C
  C12      1.0000 0.63500  0.32199  0.50170  Biso   1.000  C
  H9       1.0000 0.71030  0.16870  0.97580  Biso   1.000  H
  H10      1.0000 0.28970  0.66870  0.52420  Biso   1.000  H
  H11      1.0000 0.28970  0.83130  0.02420  Biso   1.000  H
  H12      1.0000 0.71030  0.33130  0.47580  Biso   1.000  H
  C13      1.0000 0.55880  0.14388  0.06960  Biso   1.000  C
  C14      1.0000 0.44120  0.64388  0.43040  Biso   1.000  C
  C15      1.0000 0.44120  0.85612  0.93040  Biso   1.000  C
  C16      1.0000 0.55880  0.35612  0.56960  Biso   1.000  C
  H13      1.0000 0.58230  0.11150  0.08890  Biso   1.000  H
  H14      1.0000 0.41770  0.61150  0.41110  Biso   1.000  H
  H15      1.0000 0.41770  0.88850  0.91110  Biso   1.000  H
  H16      1.0000 0.58230  0.38850  0.58890  Biso   1.000  H
  C17      1.0000 0.44730  0.15886  0.10820  Biso   1.000  C
  C18      1.0000 0.55270  0.65886  0.39180  Biso   1.000  C
  C19      1.0000 0.55270  0.84114  0.89180  Biso   1.000  C
  C20      1.0000 0.44730  0.34114  0.60820  Biso   1.000  C
  C21      1.0000 0.05810  0.16543  0.25720  Biso   1.000  C
  C22      1.0000 0.94190  0.66543  0.24280  Biso   1.000  C
  C23      1.0000 0.94190  0.83457  0.74280  Biso   1.000  C
  C24      1.0000 0.05810  0.33457  0.75720  Biso   1.000  C
  C25      1.0000 0.95660  0.15502  0.34120  Biso   1.000  C
  C26      1.0000 0.04340  0.65502  0.15880  Biso   1.000  C
  C27      1.0000 0.04340  0.84498  0.65880  Biso   1.000  C
  C28      1.0000 0.95660  0.34498  0.84120  Biso   1.000  C
  H17      1.0000 0.94500  0.12420  0.39060  Biso   1.000  H
  H18      1.0000 0.05500  0.62420  0.10940  Biso   1.000  H
  H19      1.0000 0.05500  0.87580  0.60940  Biso   1.000  H
  H20      1.0000 0.94500  0.37580  0.89060  Biso   1.000  H
  C29      1.0000 0.87260  0.19166  0.34980  Biso   1.000  C
  C30      1.0000 0.12740  0.69166  0.15020  Biso   1.000  C
  C31      1.0000 0.12740  0.80834  0.65020  Biso   1.000  C
  C32      1.0000 0.87260  0.30834  0.84980  Biso   1.000  C
  H21      1.0000 0.80300  0.18550  0.40360  Biso   1.000  H
  H22      1.0000 0.19700  0.68550  0.09640  Biso   1.000  H
  H23      1.0000 0.19700  0.81450  0.59640  Biso   1.000  H
  H24      1.0000 0.80300  0.31450  0.90360  Biso   1.000  H
  C33      1.0000 0.89310  0.23713  0.27810  Biso   1.000  C
  C34      1.0000 0.10690  0.73713  0.22190  Biso   1.000  C
  C35      1.0000 0.10690  0.76287  0.72190  Biso   1.000  C
  C36      1.0000 0.89310  0.26287  0.77810  Biso   1.000  C
  H25      1.0000 0.83700  0.26180  0.28060  Biso   1.000  H
  H26      1.0000 0.16300  0.76180  0.21940  Biso   1.000  H
  H27      1.0000 0.16300  0.73820  0.71940  Biso   1.000  H
  H28      1.0000 0.83700  0.23820  0.78060  Biso   1.000  H
  C37      1.0000 0.99870  0.24577  0.20190  Biso   1.000  C
  C38      1.0000 0.00130  0.74577  0.29810  Biso   1.000  C
  C39      1.0000 0.00130  0.75423  0.79810  Biso   1.000  C
  C40      1.0000 0.99870  0.25423  0.70190  Biso   1.000  C
  H29      1.0000 0.01350  0.27680  0.15640  Biso   1.000  H
  H30      1.0000 0.98650  0.77680  0.34360  Biso   1.000  H
  H31      1.0000 0.98650  0.72320  0.84360  Biso   1.000  H
  H32      1.0000 0.01350  0.22320  0.65640  Biso   1.000  H
  C41      1.0000 0.45420  0.04244  0.24770  Biso   1.000  C
  C42      1.0000 0.54580  0.54244  0.25230  Biso   1.000  C
  C43      1.0000 0.54580  0.95756  0.75230  Biso   1.000  C
  C44      1.0000 0.45420  0.45756  0.74770  Biso   1.000  C
  C45      1.0000 0.44420  0.99309  0.20120  Biso   1.000  C
  C46      1.0000 0.55580  0.49309  0.29880  Biso   1.000  C
  C47      1.0000 0.55580  0.00691  0.79880  Biso   1.000  C
  C48      1.0000 0.44420  0.50691  0.70120  Biso   1.000  C
  H33      1.0000 0.38010  0.98210  0.13680  Biso   1.000  H
  H34      1.0000 0.61990  0.48210  0.36320  Biso   1.000  H
  H35      1.0000 0.61990  0.01790  0.86320  Biso   1.000  H
  H36      1.0000 0.38010  0.51790  0.63680  Biso   1.000  H
  C49      1.0000 0.53120  0.96051  0.25230  Biso   1.000  C
  C50      1.0000 0.46880  0.46051  0.24770  Biso   1.000  C
  C51      1.0000 0.46880  0.03949  0.74770  Biso   1.000  C
  C52      1.0000 0.53120  0.53949  0.75230  Biso   1.000  C
  H37      1.0000 0.52720  0.92740  0.22160  Biso   1.000  H
  H38      1.0000 0.47280  0.42740  0.27840  Biso   1.000  H
  H39      1.0000 0.47280  0.07260  0.77840  Biso   1.000  H
  H40      1.0000 0.52720  0.57260  0.72160  Biso   1.000  H
  C53      1.0000 0.62350  0.97822  0.34940  Biso   1.000  C
  C54      1.0000 0.37650  0.47822  0.15060  Biso   1.000  C
  C55      1.0000 0.37650  0.02178  0.65060  Biso   1.000  C
  C56      1.0000 0.62350  0.52178  0.84940  Biso   1.000  C
  H41      1.0000 0.68140  0.95700  0.39000  Biso   1.000  H
  H42      1.0000 0.31860  0.45700  0.11000  Biso   1.000  H
  H43      1.0000 0.31860  0.04300  0.61000  Biso   1.000  H
  H44      1.0000 0.68140  0.54300  0.89000  Biso   1.000  H
  C57      1.0000 0.62890  0.02821  0.38590  Biso   1.000  C
  C58      1.0000 0.37110  0.52821  0.11410  Biso   1.000  C
  C59      1.0000 0.37110  0.97179  0.61410  Biso   1.000  C
  C60      1.0000 0.62890  0.47179  0.88590  Biso   1.000  C
  H45      1.0000 0.69310  0.04000  0.44810  Biso   1.000  H
  H46      1.0000 0.30690  0.54000  0.05190  Biso   1.000  H
  H47      1.0000 0.30690  0.96000  0.55190  Biso   1.000  H
  H48      1.0000 0.69310  0.46000  0.94810  Biso   1.000  H
  C61      1.0000 0.87010  0.03316  0.09190  Biso   1.000  C
  C62      1.0000 0.12990  0.53316  0.40810  Biso   1.000  C
  C63      1.0000 0.12990  0.96684  0.90810  Biso   1.000  C
  C64      1.0000 0.87010  0.46684  0.59190  Biso   1.000  C
  H49      1.0000 0.80930  0.04400  0.02060  Biso   1.000  H
  H50      1.0000 0.19070  0.54400  0.47940  Biso   1.000  H
  H51      1.0000 0.19070  0.95600  0.97940  Biso   1.000  H
  H52      1.0000 0.80930  0.45600  0.52060  Biso   1.000  H
  C65      1.0000 0.86330  0.98636  0.16080  Biso   1.000  C
  C66      1.0000 0.13670  0.48636  0.33920  Biso   1.000  C
  C67      1.0000 0.13670  0.01364  0.83920  Biso   1.000  C
  C68      1.0000 0.86330  0.51364  0.66080  Biso   1.000  C
  H53      1.0000 0.79980  0.96620  0.13460  Biso   1.000  H
  H54      1.0000 0.20020  0.46620  0.36540  Biso   1.000  H
  H55      1.0000 0.20020  0.03380  0.86540  Biso   1.000  H
  H56      1.0000 0.79980  0.53380  0.63460  Biso   1.000  H
  C69      1.0000 0.95120  0.96983  0.26820  Biso   1.000  C
  C70      1.0000 0.04880  0.46983  0.23180  Biso   1.000  C
  C71      1.0000 0.04880  0.03017  0.73180  Biso   1.000  C
  C72      1.0000 0.95120  0.53017  0.76820  Biso   1.000  C
  H57      1.0000 0.94760  0.93870  0.31820  Biso   1.000  H
  H58      1.0000 0.05240  0.43870  0.18180  Biso   1.000  H
  H59      1.0000 0.05240  0.06130  0.68180  Biso   1.000  H
  H60      1.0000 0.94760  0.56130  0.81820  Biso   1.000  H
  C73      1.0000 0.04550  0.00045  0.30060  Biso   1.000  C
  C74      1.0000 0.95450  0.50045  0.19940  Biso   1.000  C
  C75      1.0000 0.95450  0.99955  0.69940  Biso   1.000  C
  C76      1.0000 0.04550  0.49955  0.80060  Biso   1.000  C
  H61      1.0000 0.10700  0.99020  0.37180  Biso   1.000  H
  H62      1.0000 0.89300  0.49020  0.12820  Biso   1.000  H
  H63      1.0000 0.89300  0.00980  0.62820  Biso   1.000  H
  H64      1.0000 0.10700  0.50980  0.87180  Biso   1.000  H
  C77      1.0000 0.04640  0.04649  0.22480  Biso   1.000  C
  C78      1.0000 0.95360  0.54649  0.27520  Biso   1.000  C
  C79      1.0000 0.95360  0.95351  0.77520  Biso   1.000  C
  C80      1.0000 0.04640  0.45351  0.72480  Biso   1.000  C
  C81      1.0000 0.35450  0.12682  0.17820  Biso   1.000  C
  C82      1.0000 0.64550  0.62682  0.32180  Biso   1.000  C
  C83      1.0000 0.64550  0.87318  0.82180  Biso   1.000  C
  C84      1.0000 0.35450  0.37318  0.67820  Biso   1.000  C
  C85      1.0000 0.35380  0.07608  0.21810  Biso   1.000  C
  C86      1.0000 0.64620  0.57608  0.28190  Biso   1.000  C
  C87      1.0000 0.64620  0.92392  0.78190  Biso   1.000  C
  C88      1.0000 0.35380  0.42392  0.71810  Biso   1.000  C
  C89      1.0000 0.15190  0.07786  0.23600  Biso   1.000  C
  C90      1.0000 0.84810  0.57786  0.26400  Biso   1.000  C
  C91      1.0000 0.84810  0.92214  0.76400  Biso   1.000  C
  C92      1.0000 0.15190  0.42214  0.73600  Biso   1.000  C
  C93      1.0000 0.15380  0.12974  0.23200  Biso   1.000  C
  C94      1.0000 0.84620  0.62974  0.26800  Biso   1.000  C
  C95      1.0000 0.84620  0.87026  0.76800  Biso   1.000  C
  C96      1.0000 0.15380  0.37026  0.73200  Biso   1.000  C
  N1       1.0000 0.41168  0.20578  0.07740  Biso   1.000  N
  N2       1.0000 0.58832  0.70578  0.42260  Biso   1.000  N
  N3       1.0000 0.58832  0.79422  0.92260  Biso   1.000  N
  N4       1.0000 0.41168  0.29422  0.57740  Biso   1.000  N
  N5       1.0000 0.07972  0.21058  0.19240  Biso   1.000  N
  N6       1.0000 0.92028  0.71058  0.30760  Biso   1.000  N
  N7       1.0000 0.92028  0.78942  0.80760  Biso   1.000  N
  N8       1.0000 0.07972  0.28942  0.69240  Biso   1.000  N
  N9       1.0000 0.54630  0.06050  0.33600  Biso   1.000  N
  N10      1.0000 0.45370  0.56050  0.16400  Biso   1.000  N
  N11      1.0000 0.45370  0.93950  0.66400  Biso   1.000  N
  N12      1.0000 0.54630  0.43950  0.83600  Biso   1.000  N
  N13      1.0000 0.95950  0.06363  0.12230  Biso   1.000  N
  N14      1.0000 0.04050  0.56363  0.37770  Biso   1.000  N
  N15      1.0000 0.04050  0.93637  0.87770  Biso   1.000  N
  N16      1.0000 0.95950  0.43637  0.62230  Biso   1.000  N
  N17      1.0000 0.25376  0.15115  0.19280  Biso   1.000  N
  N18      1.0000 0.74624  0.65115  0.30720  Biso   1.000  N
  N19      1.0000 0.74624  0.84885  0.80720  Biso   1.000  N
  N20      1.0000 0.25376  0.34885  0.69280  Biso   1.000  N
  N21      1.0000 0.25156  0.05317  0.23610  Biso   1.000  N
  N22      1.0000 0.74844  0.55317  0.26390  Biso   1.000  N
  N23      1.0000 0.74844  0.94683  0.76390  Biso   1.000  N
  N24      1.0000 0.25156  0.44683  0.73610  Biso   1.000  N
  O1       1.0000 0.18718  0.18024  0.85280  Biso   1.000  O
  O2       1.0000 0.81282  0.68024  0.64720  Biso   1.000  O
  O3       1.0000 0.81282  0.81976  0.14720  Biso   1.000  O
  O4       1.0000 0.18718  0.31976  0.35280  Biso   1.000  O
  O5       1.0000 0.20278  0.11797  0.58640  Biso   1.000  O
  O6       1.0000 0.79722  0.61797  0.91360  Biso   1.000  O
  O7       1.0000 0.79722  0.88203  0.41360  Biso   1.000  O
  O8       1.0000 0.20278  0.38203  0.08640  Biso   1.000  O
  O9       1.0000 0.95220  0.14507  0.88080  Biso   1.000  O
  O10      1.0000 0.04780  0.64507  0.61920  Biso   1.000  O
  O11      1.0000 0.04780  0.85493  0.11920  Biso   1.000  O
  O12      1.0000 0.95220  0.35493  0.38080  Biso   1.000  O
  O13      1.0000 0.39420  0.16066  0.71590  Biso   1.000  O
  O14      1.0000 0.60580  0.66066  0.78410  Biso   1.000  O
  O15      1.0000 0.60580  0.83934  0.28410  Biso   1.000  O
  O16      1.0000 0.39420  0.33934  0.21590  Biso   1.000  O
  O17      1.0000 0.59736  0.14988  0.52920  Biso   1.000  O
  O18      1.0000 0.40264  0.64988  0.97080  Biso   1.000  O
  O19      1.0000 0.40264  0.85012  0.47080  Biso   1.000  O
  O20      1.0000 0.59736  0.35012  0.02920  Biso   1.000  O
  O21      1.0000 0.23515  0.21487  0.53190  Biso   1.000  O
  O22      1.0000 0.76485  0.71487  0.96810  Biso   1.000  O
  O23      1.0000 0.76485  0.78513  0.46810  Biso   1.000  O
  O24      1.0000 0.23515  0.28513  0.03190  Biso   1.000  O
  O25      1.0000 0.20860  0.90263  0.33620  Biso   1.000  O
  O26      1.0000 0.79140  0.40263  0.16380  Biso   1.000  O
  O27      1.0000 0.79140  0.09737  0.66380  Biso   1.000  O
  O28      1.0000 0.20860  0.59737  0.83620  Biso   1.000  O
  H65      1.0000 0.96000  0.12250  0.95500  Biso   1.000  H
  H66      1.0000 0.04000  0.62250  0.54500  Biso   1.000  H
  H67      1.0000 0.04000  0.87750  0.04500  Biso   1.000  H
  H68      1.0000 0.96000  0.37750  0.45500  Biso   1.000  H
  H69      1.0000 0.58100  0.12790  0.47100  Biso   1.000  H
  H70      1.0000 0.41900  0.62790  0.02900  Biso   1.000  H
  H71      1.0000 0.41900  0.87210  0.52900  Biso   1.000  H
  H72      1.0000 0.58100  0.37210  0.97100  Biso   1.000  H
  H73      1.0000 0.54100  0.15230  0.58200  Biso   1.000  H
  H74      1.0000 0.45900  0.65230  0.91800  Biso   1.000  H
  H75      1.0000 0.45900  0.84770  0.41800  Biso   1.000  H
  H76      1.0000 0.54100  0.34770  0.08200  Biso   1.000  H
  H77      1.0000 0.01300  0.15310  0.86400  Biso   1.000  H
  H78      1.0000 0.98700  0.65310  0.63600  Biso   1.000  H
  H79      1.0000 0.98700  0.84690  0.13600  Biso   1.000  H
  H80      1.0000 0.01300  0.34690  0.36400  Biso   1.000  H
  H81      1.0000 0.26100  0.88500  0.35800  Biso   1.000  H
  H82      1.0000 0.73900  0.38500  0.14200  Biso   1.000  H
  H83      1.0000 0.73900  0.11500  0.64200  Biso   1.000  H
  H84      1.0000 0.26100  0.61500  0.85800  Biso   1.000  H
  H85      1.0000 0.16700  0.88690  0.28600  Biso   1.000  H
  H86      1.0000 0.83300  0.38690  0.21400  Biso   1.000  H
  H87      1.0000 0.83300  0.11310  0.71400  Biso   1.000  H
  H88      1.0000 0.16700  0.61310  0.78600  Biso   1.000  H
