data_image0
_cell_length_a       7.8353
_cell_length_b       9.23
_cell_length_c       10.7162
_cell_angle_alpha    88.83
_cell_angle_beta     70.891
_cell_angle_gamma    76.444

_symmetry_space_group_name_H-M    "P 1"
_symmetry_int_tables_number       1

loop_
  _symmetry_equiv_pos_as_xyz
  'x, y, z'

loop_
  _atom_site_label
  _atom_site_occupancy
  _atom_site_fract_x
  _atom_site_fract_y
  _atom_site_fract_z
  _atom_site_thermal_displace_type
  _atom_site_B_iso_or_equiv
  _atom_site_type_symbol
  Cu1      1.0000 0.48690  0.88100  0.29650  Biso   1.000  Cu
  Cu2      1.0000 0.51310  0.11900  0.70350  Biso   1.000  Cu
  V1       1.0000 0.20960  0.64690  0.43670  Biso   1.000  V
  V2       1.0000 0.79040  0.35310  0.56330  Biso   1.000  V
  V3       1.0000 0.83700  0.62410  0.35100  Biso   1.000  V
  V4       1.0000 0.16300  0.37590  0.64900  Biso   1.000  V
  O1       1.0000 0.29320  0.98690  0.45690  Biso   1.000  O
  O2       1.0000 0.70680  0.01310  0.54310  Biso   1.000  O
  O3       1.0000 0.39530  0.70100  0.33630  Biso   1.000  O
  O4       1.0000 0.60470  0.29900  0.66370  Biso   1.000  O
  O5       1.0000 0.08610  0.78460  0.54550  Biso   1.000  O
  O6       1.0000 0.91390  0.21540  0.45450  Biso   1.000  O
  O7       1.0000 0.27520  0.48280  0.51740  Biso   1.000  O
  O8       1.0000 0.72480  0.51720  0.48260  Biso   1.000  O
  O9       1.0000 0.71410  0.80350  0.37770  Biso   1.000  O
  O10      1.0000 0.28590  0.19650  0.62230  Biso   1.000  O
  O11      1.0000 0.07410  0.60700  0.34200  Biso   1.000  O
  O12      1.0000 0.92590  0.39300  0.65800  Biso   1.000  O
  O13      1.0000 0.84630  0.56070  0.20920  Biso   1.000  O
  O14      1.0000 0.15370  0.43930  0.79080  Biso   1.000  O
  C1       1.0000 0.56270  0.18940  0.29910  Biso   1.000  C
  C2       1.0000 0.43730  0.81060  0.70090  Biso   1.000  C
  C3       1.0000 0.64910  0.30240  0.23970  Biso   1.000  C
  C4       1.0000 0.35090  0.69760  0.76030  Biso   1.000  C
  C5       1.0000 0.75290  0.28580  0.10750  Biso   1.000  C
  C6       1.0000 0.24710  0.71420  0.89250  Biso   1.000  C
  C7       1.0000 0.76880  0.15600  0.03280  Biso   1.000  C
  C8       1.0000 0.23120  0.84400  0.96720  Biso   1.000  C
  C9       1.0000 0.67880  0.04860  0.10080  Biso   1.000  C
  C10      1.0000 0.32120  0.95140  0.89920  Biso   1.000  C
  C11      1.0000 0.69310  0.91230  0.03190  Biso   1.000  C
  C12      1.0000 0.30690  0.08770  0.96810  Biso   1.000  C
  C13      1.0000 0.79360  0.88700  0.89610  Biso   1.000  C
  C14      1.0000 0.20640  0.11300  0.10390  Biso   1.000  C
  C15      1.0000 0.80310  0.74890  0.83610  Biso   1.000  C
  C16      1.0000 0.19690  0.25110  0.16390  Biso   1.000  C
  C17      1.0000 0.71590  0.64790  0.91150  Biso   1.000  C
  C18      1.0000 0.28410  0.35210  0.08850  Biso   1.000  C
  C19      1.0000 0.61770  0.68370  0.04680  Biso   1.000  C
  C20      1.0000 0.38230  0.31630  0.95320  Biso   1.000  C
  C21      1.0000 0.86980  0.12780  0.89360  Biso   1.000  C
  C22      1.0000 0.13020  0.87220  0.10640  Biso   1.000  C
  C23      1.0000 0.88050  0.99980  0.82800  Biso   1.000  C
  C24      1.0000 0.11950  0.00020  0.17200  Biso   1.000  C
  N1       1.0000 0.57830  0.06430  0.23180  Biso   1.000  N
  N2       1.0000 0.42170  0.93570  0.76820  Biso   1.000  N
  N3       1.0000 0.60620  0.81270  0.10560  Biso   1.000  N
  N4       1.0000 0.39380  0.18730  0.89440  Biso   1.000  N
  H1       1.0000 0.50200  0.19800  0.39100  Biso   1.000  H
  H2       1.0000 0.49800  0.80200  0.60900  Biso   1.000  H
  H3       1.0000 0.63200  0.38400  0.29000  Biso   1.000  H
  H4       1.0000 0.36800  0.61600  0.71000  Biso   1.000  H
  H5       1.0000 0.81600  0.35400  0.07000  Biso   1.000  H
  H6       1.0000 0.18400  0.64600  0.93000  Biso   1.000  H
  H7       1.0000 0.71500  0.56000  0.87800  Biso   1.000  H
  H8       1.0000 0.28500  0.44000  0.12200  Biso   1.000  H
  H9       1.0000 0.56100  0.61400  0.09600  Biso   1.000  H
  H10      1.0000 0.43900  0.38600  0.90400  Biso   1.000  H
  H11      1.0000 0.92600  0.19900  0.84800  Biso   1.000  H
  H12      1.0000 0.07400  0.80100  0.15200  Biso   1.000  H
  H13      1.0000 0.94200  0.98200  0.73600  Biso   1.000  H
  H14      1.0000 0.05800  0.01800  0.26400  Biso   1.000  H
  H15      1.0000 0.86800  0.73400  0.74400  Biso   1.000  H
  H16      1.0000 0.13200  0.26600  0.25600  Biso   1.000  H
