data_image0
_cell_length_a       14.695
_cell_length_b       6.9747
_cell_length_c       18.807
_cell_angle_alpha    90
_cell_angle_beta     126.603
_cell_angle_gamma    90

_symmetry_space_group_name_H-M    "P 1"
_symmetry_int_tables_number       1

loop_
  _symmetry_equiv_pos_as_xyz
  'x, y, z'

loop_
  _atom_site_label
  _atom_site_occupancy
  _atom_site_fract_x
  _atom_site_fract_y
  _atom_site_fract_z
  _atom_site_thermal_displace_type
  _atom_site_B_iso_or_equiv
  _atom_site_type_symbol
  O1       1.0000 0.04310  0.17220  0.17470  Biso   1.000  O
  O2       1.0000 0.95690  0.67220  0.32530  Biso   1.000  O
  O3       1.0000 0.95690  0.82780  0.82530  Biso   1.000  O
  O4       1.0000 0.04310  0.32780  0.67470  Biso   1.000  O
  N1       1.0000 0.52330  0.32930  0.32540  Biso   1.000  N
  N2       1.0000 0.47670  0.82930  0.17460  Biso   1.000  N
  N3       1.0000 0.47670  0.67070  0.67460  Biso   1.000  N
  N4       1.0000 0.52330  0.17070  0.82540  Biso   1.000  N
  N5       1.0000 0.43190  0.35510  0.32530  Biso   1.000  N
  N6       1.0000 0.56810  0.85510  0.17470  Biso   1.000  N
  N7       1.0000 0.56810  0.64490  0.67470  Biso   1.000  N
  N8       1.0000 0.43190  0.14490  0.82530  Biso   1.000  N
  Cu1      1.0000 0.33828  0.62016  0.09438  Biso   1.000  Cu
  Cu2      1.0000 0.66172  0.12016  0.40562  Biso   1.000  Cu
  Cu3      1.0000 0.66172  0.37984  0.90562  Biso   1.000  Cu
  Cu4      1.0000 0.33828  0.87984  0.59438  Biso   1.000  Cu
  N9       1.0000 0.38890  0.42830  0.04250  Biso   1.000  N
  N10      1.0000 0.61110  0.92830  0.45750  Biso   1.000  N
  N11      1.0000 0.61110  0.57170  0.95750  Biso   1.000  N
  N12      1.0000 0.38890  0.07170  0.54250  Biso   1.000  N
  N13      1.0000 0.45020  0.26420  0.08250  Biso   1.000  N
  N14      1.0000 0.54980  0.76420  0.41750  Biso   1.000  N
  N15      1.0000 0.54980  0.73580  0.91750  Biso   1.000  N
  N16      1.0000 0.45020  0.23580  0.58250  Biso   1.000  N
  N17      1.0000 0.46640  0.17610  0.03140  Biso   1.000  N
  N18      1.0000 0.53360  0.67610  0.46860  Biso   1.000  N
  N19      1.0000 0.53360  0.82390  0.96860  Biso   1.000  N
  N20      1.0000 0.46640  0.32390  0.53140  Biso   1.000  N
  N21      1.0000 0.41600  0.28060  0.95640  Biso   1.000  N
  N22      1.0000 0.58400  0.78060  0.54360  Biso   1.000  N
  N23      1.0000 0.58400  0.71940  0.04360  Biso   1.000  N
  N24      1.0000 0.41600  0.21940  0.45640  Biso   1.000  N
  H1       1.0000 0.41500  0.25230  0.91140  Biso   1.000  H
  H2       1.0000 0.58500  0.75230  0.58860  Biso   1.000  H
  H3       1.0000 0.58500  0.74770  0.08860  Biso   1.000  H
  H4       1.0000 0.41500  0.24770  0.41140  Biso   1.000  H
  N25      1.0000 0.31160  0.57110  0.90120  Biso   1.000  N
  N26      1.0000 0.68840  0.07110  0.59880  Biso   1.000  N
  N27      1.0000 0.68840  0.42890  0.09880  Biso   1.000  N
  N28      1.0000 0.31160  0.92890  0.40120  Biso   1.000  N
  H5       1.0000 0.29780  0.55400  0.85040  Biso   1.000  H
  H6       1.0000 0.70220  0.05400  0.64960  Biso   1.000  H
  H7       1.0000 0.70220  0.44600  0.14960  Biso   1.000  H
  H8       1.0000 0.29780  0.94600  0.35040  Biso   1.000  H
  N29      1.0000 0.23080  0.88390  0.86010  Biso   1.000  N
  N30      1.0000 0.76920  0.38390  0.63990  Biso   1.000  N
  N31      1.0000 0.76920  0.11610  0.13990  Biso   1.000  N
  N32      1.0000 0.23080  0.61610  0.36010  Biso   1.000  N
  N33      1.0000 0.20680  0.01580  0.89990  Biso   1.000  N
  N34      1.0000 0.79320  0.51580  0.60010  Biso   1.000  N
  N35      1.0000 0.79320  0.98420  0.10010  Biso   1.000  N
  N36      1.0000 0.20680  0.48420  0.39990  Biso   1.000  N
  N37      1.0000 0.23600  0.95070  0.97560  Biso   1.000  N
  N38      1.0000 0.76400  0.45070  0.52440  Biso   1.000  N
  N39      1.0000 0.76400  0.04930  0.02440  Biso   1.000  N
  N40      1.0000 0.23600  0.54930  0.47560  Biso   1.000  N
  N41      1.0000 0.27880  0.77050  0.98730  Biso   1.000  N
  N42      1.0000 0.72120  0.27050  0.51270  Biso   1.000  N
  N43      1.0000 0.72120  0.22950  0.01270  Biso   1.000  N
  N44      1.0000 0.27880  0.72950  0.48730  Biso   1.000  N
  N45      1.0000 0.40180  0.48480  0.20620  Biso   1.000  N
  N46      1.0000 0.59820  0.98480  0.29380  Biso   1.000  N
  N47      1.0000 0.59820  0.51520  0.79380  Biso   1.000  N
  N48      1.0000 0.40180  0.01520  0.70620  Biso   1.000  N
  N49      1.0000 0.50580  0.40480  0.25500  Biso   1.000  N
  N50      1.0000 0.49420  0.90480  0.24500  Biso   1.000  N
  N51      1.0000 0.49420  0.59520  0.74500  Biso   1.000  N
  N52      1.0000 0.50580  0.09520  0.75500  Biso   1.000  N
  N53      1.0000 0.25500  0.51260  0.22620  Biso   1.000  N
  N54      1.0000 0.74500  0.01260  0.27380  Biso   1.000  N
  N55      1.0000 0.74500  0.48740  0.77380  Biso   1.000  N
  N56      1.0000 0.25500  0.98740  0.72620  Biso   1.000  N
  H9       1.0000 0.23690  0.49260  0.26150  Biso   1.000  H
  H10      1.0000 0.76310  0.99260  0.23850  Biso   1.000  H
  H11      1.0000 0.76310  0.50740  0.73850  Biso   1.000  H
  H12      1.0000 0.23690  0.00740  0.76150  Biso   1.000  H
  N57      1.0000 0.07780  0.65500  0.11980  Biso   1.000  N
  N58      1.0000 0.92220  0.15500  0.38020  Biso   1.000  N
  N59      1.0000 0.92220  0.34500  0.88020  Biso   1.000  N
  N60      1.0000 0.07780  0.84500  0.61980  Biso   1.000  N
  H13      1.0000 0.04900  0.64320  0.14820  Biso   1.000  H
  H14      1.0000 0.95100  0.14320  0.35180  Biso   1.000  H
  H15      1.0000 0.95100  0.35680  0.85180  Biso   1.000  H
  H16      1.0000 0.04900  0.85680  0.64820  Biso   1.000  H
  N61      1.0000 0.02520  0.73320  0.03820  Biso   1.000  N
  N62      1.0000 0.97480  0.23320  0.46180  Biso   1.000  N
  N63      1.0000 0.97480  0.26680  0.96180  Biso   1.000  N
  N64      1.0000 0.02520  0.76680  0.53820  Biso   1.000  N
  N65      1.0000 0.09460  0.72170  0.01840  Biso   1.000  N
  N66      1.0000 0.90540  0.22170  0.48160  Biso   1.000  N
  N67      1.0000 0.90540  0.27830  0.98160  Biso   1.000  N
  N68      1.0000 0.09460  0.77830  0.51840  Biso   1.000  N
  N69      1.0000 0.19390  0.64020  0.08610  Biso   1.000  N
  N70      1.0000 0.80610  0.14020  0.41390  Biso   1.000  N
  N71      1.0000 0.80610  0.35980  0.91390  Biso   1.000  N
  N72      1.0000 0.19390  0.85980  0.58610  Biso   1.000  N
  C1       1.0000 0.36840  0.43410  0.96330  Biso   1.000  C
  C2       1.0000 0.63160  0.93410  0.53670  Biso   1.000  C
  C3       1.0000 0.63160  0.56590  0.03670  Biso   1.000  C
  C4       1.0000 0.36840  0.06590  0.46330  Biso   1.000  C
  C5       1.0000 0.27490  0.73680  0.91590  Biso   1.000  C
  C6       1.0000 0.72510  0.23680  0.58410  Biso   1.000  C
  C7       1.0000 0.72510  0.26320  0.08410  Biso   1.000  C
  C8       1.0000 0.27490  0.76320  0.41590  Biso   1.000  C
  C9       1.0000 0.35980  0.45330  0.25150  Biso   1.000  C
  C10      1.0000 0.64020  0.95330  0.24850  Biso   1.000  C
  C11      1.0000 0.64020  0.54670  0.74850  Biso   1.000  C
  C12      1.0000 0.35980  0.04670  0.75150  Biso   1.000  C
  C13      1.0000 0.17990  0.60040  0.14844  Biso   1.000  C
  C14      1.0000 0.82010  0.10040  0.35156  Biso   1.000  C
  C15      1.0000 0.82010  0.39960  0.85156  Biso   1.000  C
  C16      1.0000 0.17990  0.89960  0.64844  Biso   1.000  C
  O5       1.0000 0.05450  0.15610  0.32680  Biso   1.000  O
  O6       1.0000 0.94550  0.65610  0.17320  Biso   1.000  O
  O7       1.0000 0.94550  0.84390  0.67320  Biso   1.000  O
  O8       1.0000 0.05450  0.34390  0.82680  Biso   1.000  O
  H17      1.0000 0.11420  0.23440  0.35810  Biso   1.000  H
  H18      1.0000 0.88580  0.73440  0.14190  Biso   1.000  H
  H19      1.0000 0.88580  0.76560  0.64190  Biso   1.000  H
  H20      1.0000 0.11420  0.26560  0.85810  Biso   1.000  H
  H21      1.0000 0.05090  0.15830  0.28000  Biso   1.000  H
  H22      1.0000 0.94910  0.65830  0.22000  Biso   1.000  H
  H23      1.0000 0.94910  0.84170  0.72000  Biso   1.000  H
  H24      1.0000 0.05090  0.34170  0.78000  Biso   1.000  H
  O9       1.0000 0.21210  0.15470  0.10030  Biso   1.000  O
  O10      1.0000 0.78790  0.65470  0.39970  Biso   1.000  O
  O11      1.0000 0.78790  0.84530  0.89970  Biso   1.000  O
  O12      1.0000 0.21210  0.34530  0.60030  Biso   1.000  O
  O13      1.0000 0.30610  0.94980  0.25550  Biso   1.000  O
  O14      1.0000 0.69390  0.44980  0.24450  Biso   1.000  O
  O15      1.0000 0.69390  0.05020  0.74450  Biso   1.000  O
  O16      1.0000 0.30610  0.55020  0.75550  Biso   1.000  O
  H25      1.0000 0.22800  0.09200  0.07600  Biso   1.000  H
  H26      1.0000 0.77200  0.59200  0.42400  Biso   1.000  H
  H27      1.0000 0.77200  0.90800  0.92400  Biso   1.000  H
  H28      1.0000 0.22800  0.40800  0.57600  Biso   1.000  H
  H29      1.0000 0.26500  0.02200  0.21100  Biso   1.000  H
  H30      1.0000 0.73500  0.52200  0.28900  Biso   1.000  H
  H31      1.0000 0.73500  0.97800  0.78900  Biso   1.000  H
  H32      1.0000 0.26500  0.47800  0.71100  Biso   1.000  H
  H33      1.0000 0.35700  0.00500  0.25600  Biso   1.000  H
  H34      1.0000 0.64300  0.50500  0.24400  Biso   1.000  H
  H35      1.0000 0.64300  0.99500  0.74400  Biso   1.000  H
  H36      1.0000 0.35700  0.49500  0.75600  Biso   1.000  H
  H37      1.0000 0.14500  0.16400  0.05700  Biso   1.000  H
  H38      1.0000 0.85500  0.66400  0.44300  Biso   1.000  H
  H39      1.0000 0.85500  0.83600  0.94300  Biso   1.000  H
  H40      1.0000 0.14500  0.33600  0.55700  Biso   1.000  H
  H41      1.0000 0.00000  0.26800  0.17000  Biso   1.000  H
  H42      1.0000 0.00000  0.76800  0.33000  Biso   1.000  H
  H43      1.0000 0.00000  0.73200  0.83000  Biso   1.000  H
  H44      1.0000 0.00000  0.23200  0.67000  Biso   1.000  H
  H45      1.0000 0.00400  0.09200  0.13200  Biso   1.000  H
  H46      1.0000 0.99600  0.59200  0.36800  Biso   1.000  H
  H47      1.0000 0.99600  0.90800  0.86800  Biso   1.000  H
  H48      1.0000 0.00400  0.40800  0.63200  Biso   1.000  H
