data_image0
_cell_length_a       14.6948
_cell_length_b       6.9642
_cell_length_c       15.5028
_cell_angle_alpha    90
_cell_angle_beta     102.974
_cell_angle_gamma    90

_symmetry_space_group_name_H-M    "P 1"
_symmetry_int_tables_number       1

loop_
  _symmetry_equiv_pos_as_xyz
  'x, y, z'

loop_
  _atom_site_label
  _atom_site_occupancy
  _atom_site_fract_x
  _atom_site_fract_y
  _atom_site_fract_z
  _atom_site_thermal_displace_type
  _atom_site_B_iso_or_equiv
  _atom_site_type_symbol
  Cu1      1.0000 0.75610  0.12071  0.59455  Biso   1.000  Cu
  Cu2      1.0000 0.74390  0.62071  0.90545  Biso   1.000  Cu
  Cu3      1.0000 0.24390  0.87929  0.40545  Biso   1.000  Cu
  Cu4      1.0000 0.25610  0.37929  0.09455  Biso   1.000  Cu
  N1       1.0000 0.80425  0.98540  0.70614  Biso   1.000  N
  N2       1.0000 0.69575  0.48540  0.79386  Biso   1.000  N
  N3       1.0000 0.19575  0.01460  0.29386  Biso   1.000  N
  N4       1.0000 0.30425  0.51460  0.20614  Biso   1.000  N
  N5       1.0000 0.97130  0.01130  0.72660  Biso   1.000  N
  N6       1.0000 0.52870  0.51130  0.77340  Biso   1.000  N
  N7       1.0000 0.02870  0.98870  0.27340  Biso   1.000  N
  N8       1.0000 0.47130  0.48870  0.22660  Biso   1.000  N
  N9       1.0000 0.89230  0.14200  0.58673  Biso   1.000  N
  N10      1.0000 0.60770  0.64200  0.91327  Biso   1.000  N
  N11      1.0000 0.10770  0.85800  0.41327  Biso   1.000  N
  N12      1.0000 0.39230  0.35800  0.08673  Biso   1.000  N
  N13      1.0000 0.04210  0.15580  0.61990  Biso   1.000  N
  N14      1.0000 0.45790  0.65580  0.88010  Biso   1.000  N
  N15      1.0000 0.95790  0.84420  0.38010  Biso   1.000  N
  N16      1.0000 0.54210  0.34420  0.11990  Biso   1.000  N
  N17      1.0000 0.92380  0.22320  0.51860  Biso   1.000  N
  N18      1.0000 0.57620  0.72320  0.98140  Biso   1.000  N
  N19      1.0000 0.07620  0.77680  0.48140  Biso   1.000  N
  N20      1.0000 0.42380  0.27680  0.01860  Biso   1.000  N
  N21      1.0000 0.01300  0.23270  0.53860  Biso   1.000  N
  N22      1.0000 0.48700  0.73270  0.96140  Biso   1.000  N
  N23      1.0000 0.98700  0.76730  0.46140  Biso   1.000  N
  N24      1.0000 0.51300  0.26730  0.03860  Biso   1.000  N
  N25      1.0000 0.54030  0.77980  0.45630  Biso   1.000  N
  N26      1.0000 0.95970  0.27980  0.04370  Biso   1.000  N
  N27      1.0000 0.45970  0.22020  0.54370  Biso   1.000  N
  N28      1.0000 0.04030  0.72020  0.95630  Biso   1.000  N
  N29      1.0000 0.62900  0.38520  0.36010  Biso   1.000  N
  N30      1.0000 0.87100  0.88520  0.13990  Biso   1.000  N
  N31      1.0000 0.37100  0.61480  0.63990  Biso   1.000  N
  N32      1.0000 0.12900  0.11480  0.86010  Biso   1.000  N
  N33      1.0000 0.70910  0.27130  0.48714  Biso   1.000  N
  N34      1.0000 0.79090  0.77130  0.01286  Biso   1.000  N
  N35      1.0000 0.29090  0.72870  0.51286  Biso   1.000  N
  N36      1.0000 0.20910  0.22870  0.98714  Biso   1.000  N
  N37      1.0000 0.65370  0.92940  0.54247  Biso   1.000  N
  N38      1.0000 0.84630  0.42940  0.95753  Biso   1.000  N
  N39      1.0000 0.34630  0.07060  0.45753  Biso   1.000  N
  N40      1.0000 0.15370  0.57060  0.04247  Biso   1.000  N
  N41      1.0000 0.58970  0.07170  0.40120  Biso   1.000  N
  N42      1.0000 0.91030  0.57170  0.09880  Biso   1.000  N
  N43      1.0000 0.41030  0.92830  0.59880  Biso   1.000  N
  N44      1.0000 0.08970  0.42830  0.90120  Biso   1.000  N
  N45      1.0000 0.69290  0.51680  0.39990  Biso   1.000  N
  N46      1.0000 0.80710  0.01680  0.10010  Biso   1.000  N
  N47      1.0000 0.30710  0.48320  0.60010  Biso   1.000  N
  N48      1.0000 0.19290  0.98320  0.89990  Biso   1.000  N
  N49      1.0000 0.63270  0.76350  0.58270  Biso   1.000  N
  N50      1.0000 0.86730  0.26350  0.91730  Biso   1.000  N
  N51      1.0000 0.36730  0.23650  0.41730  Biso   1.000  N
  N52      1.0000 0.13270  0.73650  0.08270  Biso   1.000  N
  N53      1.0000 0.73980  0.45070  0.47540  Biso   1.000  N
  N54      1.0000 0.76020  0.95070  0.02460  Biso   1.000  N
  N55      1.0000 0.26020  0.54930  0.52460  Biso   1.000  N
  N56      1.0000 0.23980  0.04930  0.97540  Biso   1.000  N
  N57      1.0000 0.56520  0.67580  0.53190  Biso   1.000  N
  N58      1.0000 0.93480  0.17580  0.96810  Biso   1.000  N
  N59      1.0000 0.43480  0.32420  0.46810  Biso   1.000  N
  N60      1.0000 0.06520  0.82420  0.03190  Biso   1.000  N
  C1       1.0000 0.96780  0.09990  0.64850  Biso   1.000  C
  C2       1.0000 0.53220  0.59990  0.85150  Biso   1.000  C
  C3       1.0000 0.03220  0.90010  0.35150  Biso   1.000  C
  C4       1.0000 0.46780  0.40010  0.14850  Biso   1.000  C
  C5       1.0000 0.59450  0.93410  0.46380  Biso   1.000  C
  C6       1.0000 0.90550  0.43410  0.03620  Biso   1.000  C
  C7       1.0000 0.40550  0.06590  0.53620  Biso   1.000  C
  C8       1.0000 0.09450  0.56590  0.96380  Biso   1.000  C
  C9       1.0000 0.89170  0.95260  0.75170  Biso   1.000  C
  C10      1.0000 0.60830  0.45260  0.74830  Biso   1.000  C
  C11      1.0000 0.10830  0.04740  0.24830  Biso   1.000  C
  C12      1.0000 0.39170  0.54740  0.25170  Biso   1.000  C
  C13      1.0000 0.64100  0.23700  0.41580  Biso   1.000  C
  C14      1.0000 0.85900  0.73700  0.08420  Biso   1.000  C
  C15      1.0000 0.35900  0.76300  0.58420  Biso   1.000  C
  C16      1.0000 0.14100  0.26300  0.91580  Biso   1.000  C
  O1       1.0000 0.44940  0.04980  0.25520  Biso   1.000  O
  O2       1.0000 0.05060  0.54980  0.24480  Biso   1.000  O
  O3       1.0000 0.55060  0.95020  0.74480  Biso   1.000  O
  O4       1.0000 0.94940  0.45020  0.75520  Biso   1.000  O
  O5       1.0000 0.88870  0.65560  0.60100  Biso   1.000  O
  O6       1.0000 0.61130  0.15560  0.89900  Biso   1.000  O
  O7       1.0000 0.11130  0.34440  0.39900  Biso   1.000  O
  O8       1.0000 0.38870  0.84440  0.10100  Biso   1.000  O
  O9       1.0000 0.22810  0.15880  0.67190  Biso   1.000  O
  O10      1.0000 0.27190  0.65880  0.82810  Biso   1.000  O
  O11      1.0000 0.77190  0.84120  0.32810  Biso   1.000  O
  O12      1.0000 0.72810  0.34120  0.17190  Biso   1.000  O
  H1       1.0000 0.25350  0.05010  0.70860  Biso   1.000  H
  H2       1.0000 0.24650  0.55010  0.79140  Biso   1.000  H
  H3       1.0000 0.74650  0.94990  0.29140  Biso   1.000  H
  H4       1.0000 0.75350  0.44990  0.20860  Biso   1.000  H
  H5       1.0000 0.21670  0.27740  0.70070  Biso   1.000  H
  H6       1.0000 0.28330  0.77740  0.79930  Biso   1.000  H
  H7       1.0000 0.78330  0.72260  0.29930  Biso   1.000  H
  H8       1.0000 0.71670  0.22260  0.20070  Biso   1.000  H
  N61      1.0000 0.80250  0.82900  0.82538  Biso   1.000  N
  N62      1.0000 0.69750  0.32900  0.67462  Biso   1.000  N
  N63      1.0000 0.19750  0.17100  0.17462  Biso   1.000  N
  N64      1.0000 0.30250  0.67100  0.32538  Biso   1.000  N
  N65      1.0000 0.74910  0.90510  0.75510  Biso   1.000  N
  N66      1.0000 0.75090  0.40510  0.74490  Biso   1.000  N
  N67      1.0000 0.25090  0.09490  0.24490  Biso   1.000  N
  N68      1.0000 0.24910  0.59490  0.25510  Biso   1.000  N
  N69      1.0000 0.89300  0.85540  0.82509  Biso   1.000  N
  N70      1.0000 0.60700  0.35540  0.67491  Biso   1.000  N
  N71      1.0000 0.10700  0.14460  0.17491  Biso   1.000  N
  N72      1.0000 0.39300  0.64460  0.32509  Biso   1.000  N
  O13      1.0000 0.36690  0.17120  0.82580  Biso   1.000  O
  O14      1.0000 0.13310  0.67120  0.67420  Biso   1.000  O
  O15      1.0000 0.63310  0.82880  0.17420  Biso   1.000  O
  O16      1.0000 0.86690  0.32880  0.32580  Biso   1.000  O
  H9       1.0000 0.38920  0.05890  0.86130  Biso   1.000  H
  H10      1.0000 0.11080  0.55890  0.63870  Biso   1.000  H
  H11      1.0000 0.61080  0.94110  0.13870  Biso   1.000  H
  H12      1.0000 0.88920  0.44110  0.36130  Biso   1.000  H
  H13      1.0000 0.36350  0.29240  0.85580  Biso   1.000  H
  H14      1.0000 0.13650  0.79240  0.64420  Biso   1.000  H
  H15      1.0000 0.63650  0.70760  0.14420  Biso   1.000  H
  H16      1.0000 0.86350  0.20760  0.35580  Biso   1.000  H
  H17      1.0000 0.55200  0.06200  0.36100  Biso   1.000  H
  H18      1.0000 0.94800  0.56200  0.13900  Biso   1.000  H
  H19      1.0000 0.44800  0.93800  0.63900  Biso   1.000  H
  H20      1.0000 0.05200  0.43800  0.86100  Biso   1.000  H
  H21      1.0000 0.50200  0.75000  0.41900  Biso   1.000  H
  H22      1.0000 0.99800  0.25000  0.08100  Biso   1.000  H
  H23      1.0000 0.49800  0.25000  0.58100  Biso   1.000  H
  H24      1.0000 0.00200  0.75000  0.91900  Biso   1.000  H
  H25      1.0000 0.02000  0.03300  0.76500  Biso   1.000  H
  H26      1.0000 0.48000  0.53300  0.73500  Biso   1.000  H
  H27      1.0000 0.98000  0.96700  0.23500  Biso   1.000  H
  H28      1.0000 0.52000  0.46700  0.26500  Biso   1.000  H
  H29      1.0000 0.09400  0.13500  0.63800  Biso   1.000  H
  H30      1.0000 0.40600  0.63500  0.86200  Biso   1.000  H
  H31      1.0000 0.90600  0.86500  0.36200  Biso   1.000  H
  H32      1.0000 0.59400  0.36500  0.13800  Biso   1.000  H
  H33      1.0000 0.40100  0.07000  0.26300  Biso   1.000  H
  H34      1.0000 0.09900  0.57000  0.23700  Biso   1.000  H
  H35      1.0000 0.59900  0.93000  0.73700  Biso   1.000  H
  H36      1.0000 0.90100  0.43000  0.76300  Biso   1.000  H
  H37      1.0000 0.44600  0.97800  0.21600  Biso   1.000  H
  H38      1.0000 0.05400  0.47800  0.28400  Biso   1.000  H
  H39      1.0000 0.55400  0.02200  0.78400  Biso   1.000  H
  H40      1.0000 0.94600  0.52200  0.71600  Biso   1.000  H
  H41      1.0000 0.84900  0.59400  0.57400  Biso   1.000  H
  H42      1.0000 0.65100  0.09400  0.92600  Biso   1.000  H
  H43      1.0000 0.15100  0.40600  0.42600  Biso   1.000  H
  H44      1.0000 0.34900  0.90600  0.07400  Biso   1.000  H
  H45      1.0000 0.91300  0.68200  0.57300  Biso   1.000  H
  H46      1.0000 0.58700  0.18200  0.92700  Biso   1.000  H
  H47      1.0000 0.08700  0.31800  0.42700  Biso   1.000  H
  H48      1.0000 0.41300  0.81800  0.07300  Biso   1.000  H
