data_image0
_cell_length_a       9.001
_cell_length_b       15.0484
_cell_length_c       19.3495
_cell_angle_alpha    90
_cell_angle_beta     90
_cell_angle_gamma    90

_symmetry_space_group_name_H-M    "P 1"
_symmetry_int_tables_number       1

loop_
  _symmetry_equiv_pos_as_xyz
  'x, y, z'

loop_
  _atom_site_label
  _atom_site_occupancy
  _atom_site_fract_x
  _atom_site_fract_y
  _atom_site_fract_z
  _atom_site_thermal_displace_type
  _atom_site_B_iso_or_equiv
  _atom_site_type_symbol
  Cu1      1.0000 0.37179  0.06509  0.66816  Biso   1.000  Cu
  Cu2      1.0000 0.12821  0.93491  0.16816  Biso   1.000  Cu
  Cu3      1.0000 0.62821  0.56509  0.83184  Biso   1.000  Cu
  Cu4      1.0000 0.87179  0.43491  0.33184  Biso   1.000  Cu
  Cu5      1.0000 0.62821  0.93491  0.33184  Biso   1.000  Cu
  Cu6      1.0000 0.87179  0.06509  0.83184  Biso   1.000  Cu
  Cu7      1.0000 0.37179  0.43491  0.16816  Biso   1.000  Cu
  Cu8      1.0000 0.12821  0.56509  0.66816  Biso   1.000  Cu
  O1       1.0000 0.32470  0.33724  0.67034  Biso   1.000  O
  O2       1.0000 0.17530  0.66276  0.17034  Biso   1.000  O
  O3       1.0000 0.67530  0.83724  0.82966  Biso   1.000  O
  O4       1.0000 0.82470  0.16276  0.32966  Biso   1.000  O
  O5       1.0000 0.67530  0.66276  0.32966  Biso   1.000  O
  O6       1.0000 0.82470  0.33724  0.82966  Biso   1.000  O
  O7       1.0000 0.32470  0.16276  0.17034  Biso   1.000  O
  O8       1.0000 0.17530  0.83724  0.67034  Biso   1.000  O
  O9       1.0000 0.68730  0.96074  0.53665  Biso   1.000  O
  O10      1.0000 0.81270  0.03926  0.03665  Biso   1.000  O
  O11      1.0000 0.31270  0.46074  0.96335  Biso   1.000  O
  O12      1.0000 0.18730  0.53926  0.46335  Biso   1.000  O
  O13      1.0000 0.31270  0.03926  0.46335  Biso   1.000  O
  O14      1.0000 0.18730  0.96074  0.96335  Biso   1.000  O
  O15      1.0000 0.68730  0.53926  0.03665  Biso   1.000  O
  O16      1.0000 0.81270  0.46074  0.53665  Biso   1.000  O
  N1       1.0000 0.30000  0.18837  0.69832  Biso   1.000  N
  N2       1.0000 0.20000  0.81163  0.19832  Biso   1.000  N
  N3       1.0000 0.70000  0.68837  0.80168  Biso   1.000  N
  N4       1.0000 0.80000  0.31163  0.30168  Biso   1.000  N
  N5       1.0000 0.70000  0.81163  0.30168  Biso   1.000  N
  N6       1.0000 0.80000  0.18837  0.80168  Biso   1.000  N
  N7       1.0000 0.30000  0.31163  0.19832  Biso   1.000  N
  N8       1.0000 0.20000  0.68837  0.69832  Biso   1.000  N
  N9       1.0000 0.48530  0.14103  0.60505  Biso   1.000  N
  N10      1.0000 0.01470  0.85897  0.10505  Biso   1.000  N
  N11      1.0000 0.51470  0.64103  0.89495  Biso   1.000  N
  N12      1.0000 0.98530  0.35897  0.39495  Biso   1.000  N
  N13      1.0000 0.51470  0.85897  0.39495  Biso   1.000  N
  N14      1.0000 0.98530  0.14103  0.89495  Biso   1.000  N
  N15      1.0000 0.48530  0.35897  0.10505  Biso   1.000  N
  N16      1.0000 0.01470  0.64103  0.60505  Biso   1.000  N
  N17      1.0000 0.52090  0.97570  0.62855  Biso   1.000  N
  N18      1.0000 0.97910  0.02430  0.12855  Biso   1.000  N
  N19      1.0000 0.47910  0.47570  0.87145  Biso   1.000  N
  N20      1.0000 0.02090  0.52430  0.37145  Biso   1.000  N
  N21      1.0000 0.47910  0.02430  0.37145  Biso   1.000  N
  N22      1.0000 0.02090  0.97570  0.87145  Biso   1.000  N
  N23      1.0000 0.52090  0.52430  0.12855  Biso   1.000  N
  N24      1.0000 0.97910  0.47570  0.62855  Biso   1.000  N
  N25      1.0000 0.18120  0.01692  0.60181  Biso   1.000  N
  N26      1.0000 0.31880  0.98308  0.10181  Biso   1.000  N
  N27      1.0000 0.81880  0.51692  0.89819  Biso   1.000  N
  N28      1.0000 0.68120  0.48308  0.39819  Biso   1.000  N
  N29      1.0000 0.81880  0.98308  0.39819  Biso   1.000  N
  N30      1.0000 0.68120  0.01692  0.89819  Biso   1.000  N
  N31      1.0000 0.18120  0.48308  0.10181  Biso   1.000  N
  N32      1.0000 0.31880  0.51692  0.60181  Biso   1.000  N
  H1       1.0000 0.21890  0.01120  0.55840  Biso   1.000  H
  H2       1.0000 0.28110  0.98880  0.05840  Biso   1.000  H
  H3       1.0000 0.78110  0.51120  0.94160  Biso   1.000  H
  H4       1.0000 0.71890  0.48880  0.44160  Biso   1.000  H
  H5       1.0000 0.78110  0.98880  0.44160  Biso   1.000  H
  H6       1.0000 0.71890  0.01120  0.94160  Biso   1.000  H
  H7       1.0000 0.21890  0.48880  0.05840  Biso   1.000  H
  H8       1.0000 0.28110  0.51120  0.55840  Biso   1.000  H
  H9       1.0000 0.16080  0.96090  0.61670  Biso   1.000  H
  H10      1.0000 0.33920  0.03910  0.11670  Biso   1.000  H
  H11      1.0000 0.83920  0.46090  0.88330  Biso   1.000  H
  H12      1.0000 0.66080  0.53910  0.38330  Biso   1.000  H
  H13      1.0000 0.83920  0.03910  0.38330  Biso   1.000  H
  H14      1.0000 0.66080  0.96090  0.88330  Biso   1.000  H
  H15      1.0000 0.16080  0.53910  0.11670  Biso   1.000  H
  H16      1.0000 0.33920  0.46090  0.61670  Biso   1.000  H
  N33      1.0000 0.80200  0.99042  0.75095  Biso   1.000  N
  N34      1.0000 0.69800  0.00958  0.25095  Biso   1.000  N
  N35      1.0000 0.19800  0.49042  0.74905  Biso   1.000  N
  N36      1.0000 0.30200  0.50958  0.24905  Biso   1.000  N
  N37      1.0000 0.19800  0.00958  0.24905  Biso   1.000  N
  N38      1.0000 0.30200  0.99042  0.74905  Biso   1.000  N
  N39      1.0000 0.80200  0.50958  0.25095  Biso   1.000  N
  N40      1.0000 0.69800  0.49042  0.75095  Biso   1.000  N
  H17      1.0000 0.78100  0.94450  0.76740  Biso   1.000  H
  H18      1.0000 0.71900  0.05550  0.26740  Biso   1.000  H
  H19      1.0000 0.21900  0.44450  0.73260  Biso   1.000  H
  H20      1.0000 0.28100  0.55550  0.23260  Biso   1.000  H
  H21      1.0000 0.21900  0.05550  0.23260  Biso   1.000  H
  H22      1.0000 0.28100  0.94450  0.73260  Biso   1.000  H
  H23      1.0000 0.78100  0.55550  0.26740  Biso   1.000  H
  H24      1.0000 0.71900  0.44450  0.76740  Biso   1.000  H
  H25      1.0000 0.71400  0.01380  0.73740  Biso   1.000  H
  H26      1.0000 0.78600  0.98620  0.23740  Biso   1.000  H
  H27      1.0000 0.28600  0.51380  0.76260  Biso   1.000  H
  H28      1.0000 0.21400  0.48620  0.26260  Biso   1.000  H
  H29      1.0000 0.28600  0.98620  0.26260  Biso   1.000  H
  H30      1.0000 0.21400  0.01380  0.76260  Biso   1.000  H
  H31      1.0000 0.71400  0.48620  0.23740  Biso   1.000  H
  H32      1.0000 0.78600  0.51380  0.73740  Biso   1.000  H
  C1       1.0000 0.19920  0.21352  0.75422  Biso   1.000  C
  C2       1.0000 0.30080  0.78648  0.25422  Biso   1.000  C
  C3       1.0000 0.80080  0.71352  0.74578  Biso   1.000  C
  C4       1.0000 0.69920  0.28648  0.24578  Biso   1.000  C
  C5       1.0000 0.80080  0.78648  0.24578  Biso   1.000  C
  C6       1.0000 0.69920  0.21352  0.74578  Biso   1.000  C
  C7       1.0000 0.19920  0.28648  0.25422  Biso   1.000  C
  C8       1.0000 0.30080  0.71352  0.75422  Biso   1.000  C
  H33      1.0000 0.25350  0.24820  0.78880  Biso   1.000  H
  H34      1.0000 0.24650  0.75180  0.28880  Biso   1.000  H
  H35      1.0000 0.74650  0.74820  0.71120  Biso   1.000  H
  H36      1.0000 0.75350  0.25180  0.21120  Biso   1.000  H
  H37      1.0000 0.74650  0.75180  0.21120  Biso   1.000  H
  H38      1.0000 0.75350  0.24820  0.71120  Biso   1.000  H
  H39      1.0000 0.25350  0.25180  0.28880  Biso   1.000  H
  H40      1.0000 0.24650  0.74820  0.78880  Biso   1.000  H
  H41      1.0000 0.15860  0.15980  0.77580  Biso   1.000  H
  H42      1.0000 0.34140  0.84020  0.27580  Biso   1.000  H
  H43      1.0000 0.84140  0.65980  0.72420  Biso   1.000  H
  H44      1.0000 0.65860  0.34020  0.22420  Biso   1.000  H
  H45      1.0000 0.84140  0.84020  0.22420  Biso   1.000  H
  H46      1.0000 0.65860  0.15980  0.72420  Biso   1.000  H
  H47      1.0000 0.15860  0.34020  0.27580  Biso   1.000  H
  H48      1.0000 0.34140  0.65980  0.77580  Biso   1.000  H
  H49      1.0000 0.11770  0.24940  0.73550  Biso   1.000  H
  H50      1.0000 0.38230  0.75060  0.23550  Biso   1.000  H
  H51      1.0000 0.88230  0.74940  0.76450  Biso   1.000  H
  H52      1.0000 0.61770  0.25060  0.26450  Biso   1.000  H
  H53      1.0000 0.88230  0.75060  0.26450  Biso   1.000  H
  H54      1.0000 0.61770  0.24940  0.76450  Biso   1.000  H
  H55      1.0000 0.11770  0.25060  0.23550  Biso   1.000  H
  H56      1.0000 0.38230  0.74940  0.73550  Biso   1.000  H
  C9       1.0000 0.35370  0.25587  0.66211  Biso   1.000  C
  C10      1.0000 0.14630  0.74413  0.16211  Biso   1.000  C
  C11      1.0000 0.64630  0.75587  0.83789  Biso   1.000  C
  C12      1.0000 0.85370  0.24413  0.33789  Biso   1.000  C
  C13      1.0000 0.64630  0.74413  0.33789  Biso   1.000  C
  C14      1.0000 0.85370  0.25587  0.83789  Biso   1.000  C
  C15      1.0000 0.35370  0.24413  0.16211  Biso   1.000  C
  C16      1.0000 0.14630  0.75587  0.66211  Biso   1.000  C
  C17      1.0000 0.46420  0.22858  0.60789  Biso   1.000  C
  C18      1.0000 0.03580  0.77142  0.10789  Biso   1.000  C
  C19      1.0000 0.53580  0.72858  0.89211  Biso   1.000  C
  C20      1.0000 0.96420  0.27142  0.39211  Biso   1.000  C
  C21      1.0000 0.53580  0.77142  0.39211  Biso   1.000  C
  C22      1.0000 0.96420  0.22858  0.89211  Biso   1.000  C
  C23      1.0000 0.46420  0.27142  0.10789  Biso   1.000  C
  C24      1.0000 0.03580  0.72858  0.60789  Biso   1.000  C
  C25      1.0000 0.54770  0.28521  0.56675  Biso   1.000  C
  C26      1.0000 0.95230  0.71479  0.06675  Biso   1.000  C
  C27      1.0000 0.45230  0.78521  0.93325  Biso   1.000  C
  C28      1.0000 0.04770  0.21479  0.43325  Biso   1.000  C
  C29      1.0000 0.45230  0.71479  0.43325  Biso   1.000  C
  C30      1.0000 0.04770  0.28521  0.93325  Biso   1.000  C
  C31      1.0000 0.54770  0.21479  0.06675  Biso   1.000  C
  C32      1.0000 0.95230  0.78521  0.56675  Biso   1.000  C
  H57      1.0000 0.53130  0.34760  0.56750  Biso   1.000  H
  H58      1.0000 0.96870  0.65240  0.06750  Biso   1.000  H
  H59      1.0000 0.46870  0.84760  0.93250  Biso   1.000  H
  H60      1.0000 0.03130  0.15240  0.43250  Biso   1.000  H
  H61      1.0000 0.46870  0.65240  0.43250  Biso   1.000  H
  H62      1.0000 0.03130  0.34760  0.93250  Biso   1.000  H
  H63      1.0000 0.53130  0.15240  0.06750  Biso   1.000  H
  H64      1.0000 0.96870  0.84760  0.56750  Biso   1.000  H
  C33      1.0000 0.65580  0.24833  0.52440  Biso   1.000  C
  C34      1.0000 0.84420  0.75167  0.02440  Biso   1.000  C
  C35      1.0000 0.34420  0.74833  0.97560  Biso   1.000  C
  C36      1.0000 0.15580  0.25167  0.47560  Biso   1.000  C
  C37      1.0000 0.34420  0.75167  0.47560  Biso   1.000  C
  C38      1.0000 0.15580  0.24833  0.97560  Biso   1.000  C
  C39      1.0000 0.65580  0.25167  0.02440  Biso   1.000  C
  C40      1.0000 0.84420  0.74833  0.52440  Biso   1.000  C
  H65      1.0000 0.71590  0.28560  0.49640  Biso   1.000  H
  H66      1.0000 0.78410  0.71440  0.99640  Biso   1.000  H
  H67      1.0000 0.28410  0.78560  0.00360  Biso   1.000  H
  H68      1.0000 0.21590  0.21440  0.50360  Biso   1.000  H
  H69      1.0000 0.28410  0.71440  0.50360  Biso   1.000  H
  H70      1.0000 0.21590  0.28560  0.00360  Biso   1.000  H
  H71      1.0000 0.71590  0.21440  0.99640  Biso   1.000  H
  H72      1.0000 0.78410  0.78560  0.49640  Biso   1.000  H
  C41      1.0000 0.67610  0.15639  0.52301  Biso   1.000  C
  C42      1.0000 0.82390  0.84361  0.02301  Biso   1.000  C
  C43      1.0000 0.32390  0.65639  0.97699  Biso   1.000  C
  C44      1.0000 0.17610  0.34361  0.47699  Biso   1.000  C
  C45      1.0000 0.32390  0.84361  0.47699  Biso   1.000  C
  C46      1.0000 0.17610  0.15639  0.97699  Biso   1.000  C
  C47      1.0000 0.67610  0.34361  0.02301  Biso   1.000  C
  C48      1.0000 0.82390  0.65639  0.52301  Biso   1.000  C
  H73      1.0000 0.74890  0.13020  0.49390  Biso   1.000  H
  H74      1.0000 0.75110  0.86980  0.99390  Biso   1.000  H
  H75      1.0000 0.25110  0.63020  0.00610  Biso   1.000  H
  H76      1.0000 0.24890  0.36980  0.50610  Biso   1.000  H
  H77      1.0000 0.25110  0.86980  0.50610  Biso   1.000  H
  H78      1.0000 0.24890  0.13020  0.00610  Biso   1.000  H
  H79      1.0000 0.74890  0.36980  0.99390  Biso   1.000  H
  H80      1.0000 0.75110  0.63020  0.49390  Biso   1.000  H
  C49      1.0000 0.58750  0.10439  0.56520  Biso   1.000  C
  C50      1.0000 0.91250  0.89561  0.06520  Biso   1.000  C
  C51      1.0000 0.41250  0.60439  0.93480  Biso   1.000  C
  C52      1.0000 0.08750  0.39561  0.43480  Biso   1.000  C
  C53      1.0000 0.41250  0.89561  0.43480  Biso   1.000  C
  C54      1.0000 0.08750  0.10439  0.93480  Biso   1.000  C
  C55      1.0000 0.58750  0.39561  0.06520  Biso   1.000  C
  C56      1.0000 0.91250  0.60439  0.56520  Biso   1.000  C
  C57      1.0000 0.60210  0.00477  0.57509  Biso   1.000  C
  C58      1.0000 0.89790  0.99523  0.07509  Biso   1.000  C
  C59      1.0000 0.39790  0.50477  0.92491  Biso   1.000  C
  C60      1.0000 0.10210  0.49523  0.42491  Biso   1.000  C
  C61      1.0000 0.39790  0.99523  0.42491  Biso   1.000  C
  C62      1.0000 0.10210  0.00477  0.92491  Biso   1.000  C
  C63      1.0000 0.60210  0.49523  0.07509  Biso   1.000  C
  C64      1.0000 0.89790  0.50477  0.57509  Biso   1.000  C
  C65      1.0000 0.52940  0.87990  0.64225  Biso   1.000  C
  C66      1.0000 0.97060  0.12010  0.14225  Biso   1.000  C
  C67      1.0000 0.47060  0.37990  0.85775  Biso   1.000  C
  C68      1.0000 0.02940  0.62010  0.35775  Biso   1.000  C
  C69      1.0000 0.47060  0.12010  0.35775  Biso   1.000  C
  C70      1.0000 0.02940  0.87990  0.85775  Biso   1.000  C
  C71      1.0000 0.52940  0.62010  0.14225  Biso   1.000  C
  C72      1.0000 0.97060  0.37990  0.64225  Biso   1.000  C
  H81      1.0000 0.43460  0.85190  0.63000  Biso   1.000  H
  H82      1.0000 0.06540  0.14810  0.13000  Biso   1.000  H
  H83      1.0000 0.56540  0.35190  0.87000  Biso   1.000  H
  H84      1.0000 0.93460  0.64810  0.37000  Biso   1.000  H
  H85      1.0000 0.56540  0.14810  0.37000  Biso   1.000  H
  H86      1.0000 0.93460  0.85190  0.87000  Biso   1.000  H
  H87      1.0000 0.43460  0.64810  0.13000  Biso   1.000  H
  H88      1.0000 0.06540  0.35190  0.63000  Biso   1.000  H
  H89      1.0000 0.54980  0.87010  0.69140  Biso   1.000  H
  H90      1.0000 0.95020  0.12990  0.19140  Biso   1.000  H
  H91      1.0000 0.45020  0.37010  0.80860  Biso   1.000  H
  H92      1.0000 0.04980  0.62990  0.30860  Biso   1.000  H
  H93      1.0000 0.45020  0.12990  0.30860  Biso   1.000  H
  H94      1.0000 0.04980  0.87010  0.80860  Biso   1.000  H
  H95      1.0000 0.54980  0.62990  0.19140  Biso   1.000  H
  H96      1.0000 0.95020  0.37010  0.69140  Biso   1.000  H
  H97      1.0000 0.60920  0.85380  0.61450  Biso   1.000  H
  H98      1.0000 0.89080  0.14620  0.11450  Biso   1.000  H
  H99      1.0000 0.39080  0.35380  0.88550  Biso   1.000  H
  H100     1.0000 0.10920  0.64620  0.38550  Biso   1.000  H
  H101     1.0000 0.39080  0.14620  0.38550  Biso   1.000  H
  H102     1.0000 0.10920  0.85380  0.88550  Biso   1.000  H
  H103     1.0000 0.60920  0.64620  0.11450  Biso   1.000  H
  H104     1.0000 0.89080  0.35380  0.61450  Biso   1.000  H
  C73      1.0000 0.03570  0.06100  0.59340  Biso   1.000  C
  C74      1.0000 0.46430  0.93900  0.09340  Biso   1.000  C
  C75      1.0000 0.96430  0.56100  0.90660  Biso   1.000  C
  C76      1.0000 0.53570  0.43900  0.40660  Biso   1.000  C
  C77      1.0000 0.96430  0.93900  0.40660  Biso   1.000  C
  C78      1.0000 0.53570  0.06100  0.90660  Biso   1.000  C
  C79      1.0000 0.03570  0.43900  0.09340  Biso   1.000  C
  C80      1.0000 0.46430  0.56100  0.59340  Biso   1.000  C
  H105     1.0000 0.97630  0.02760  0.55910  Biso   1.000  H
  H106     1.0000 0.52370  0.97240  0.05910  Biso   1.000  H
  H107     1.0000 0.02370  0.52760  0.94090  Biso   1.000  H
  H108     1.0000 0.47630  0.47240  0.44090  Biso   1.000  H
  H109     1.0000 0.02370  0.97240  0.44090  Biso   1.000  H
  H110     1.0000 0.47630  0.02760  0.94090  Biso   1.000  H
  H111     1.0000 0.97630  0.47240  0.05910  Biso   1.000  H
  H112     1.0000 0.52370  0.52760  0.55910  Biso   1.000  H
  H113     1.0000 0.05170  0.12160  0.57500  Biso   1.000  H
  H114     1.0000 0.44830  0.87840  0.07500  Biso   1.000  H
  H115     1.0000 0.94830  0.62160  0.92500  Biso   1.000  H
  H116     1.0000 0.55170  0.37840  0.42500  Biso   1.000  H
  H117     1.0000 0.94830  0.87840  0.42500  Biso   1.000  H
  H118     1.0000 0.55170  0.12160  0.92500  Biso   1.000  H
  H119     1.0000 0.05170  0.37840  0.07500  Biso   1.000  H
  H120     1.0000 0.44830  0.62160  0.57500  Biso   1.000  H
  C81      1.0000 0.94810  0.06730  0.66054  Biso   1.000  C
  C82      1.0000 0.55190  0.93270  0.16054  Biso   1.000  C
  C83      1.0000 0.05190  0.56730  0.83946  Biso   1.000  C
  C84      1.0000 0.44810  0.43270  0.33946  Biso   1.000  C
  C85      1.0000 0.05190  0.93270  0.33946  Biso   1.000  C
  C86      1.0000 0.44810  0.06730  0.83946  Biso   1.000  C
  C87      1.0000 0.94810  0.43270  0.16054  Biso   1.000  C
  C88      1.0000 0.55190  0.56730  0.66054  Biso   1.000  C
  H121     1.0000 0.00970  0.09840  0.69540  Biso   1.000  H
  H122     1.0000 0.49030  0.90160  0.19540  Biso   1.000  H
  H123     1.0000 0.99030  0.59840  0.80460  Biso   1.000  H
  H124     1.0000 0.50970  0.40160  0.30460  Biso   1.000  H
  H125     1.0000 0.99030  0.90160  0.30460  Biso   1.000  H
  H126     1.0000 0.50970  0.09840  0.80460  Biso   1.000  H
  H127     1.0000 0.00970  0.40160  0.19540  Biso   1.000  H
  H128     1.0000 0.49030  0.59840  0.69540  Biso   1.000  H
  H129     1.0000 0.85850  0.10390  0.65240  Biso   1.000  H
  H130     1.0000 0.64150  0.89610  0.15240  Biso   1.000  H
  H131     1.0000 0.14150  0.60390  0.84760  Biso   1.000  H
  H132     1.0000 0.35850  0.39610  0.34760  Biso   1.000  H
  H133     1.0000 0.14150  0.89610  0.34760  Biso   1.000  H
  H134     1.0000 0.35850  0.10390  0.84760  Biso   1.000  H
  H135     1.0000 0.85850  0.39610  0.15240  Biso   1.000  H
  H136     1.0000 0.64150  0.60390  0.65240  Biso   1.000  H
  C89      1.0000 0.90040  0.97824  0.68996  Biso   1.000  C
  C90      1.0000 0.59960  0.02176  0.18996  Biso   1.000  C
  C91      1.0000 0.09960  0.47824  0.81004  Biso   1.000  C
  C92      1.0000 0.40040  0.52176  0.31004  Biso   1.000  C
  C93      1.0000 0.09960  0.02176  0.31004  Biso   1.000  C
  C94      1.0000 0.40040  0.97824  0.81004  Biso   1.000  C
  C95      1.0000 0.90040  0.52176  0.18996  Biso   1.000  C
  C96      1.0000 0.59960  0.47824  0.68996  Biso   1.000  C
  H137     1.0000 0.84700  0.94400  0.65400  Biso   1.000  H
  H138     1.0000 0.65300  0.05600  0.15400  Biso   1.000  H
  H139     1.0000 0.15300  0.44400  0.84600  Biso   1.000  H
  H140     1.0000 0.34700  0.55600  0.34600  Biso   1.000  H
  H141     1.0000 0.15300  0.05600  0.34600  Biso   1.000  H
  H142     1.0000 0.34700  0.94400  0.84600  Biso   1.000  H
  H143     1.0000 0.84700  0.55600  0.15400  Biso   1.000  H
  H144     1.0000 0.65300  0.44400  0.65400  Biso   1.000  H
  H145     1.0000 0.98940  0.94390  0.70370  Biso   1.000  H
  H146     1.0000 0.51060  0.05610  0.20370  Biso   1.000  H
  H147     1.0000 0.01060  0.44390  0.79630  Biso   1.000  H
  H148     1.0000 0.48940  0.55610  0.29630  Biso   1.000  H
  H149     1.0000 0.01060  0.05610  0.29630  Biso   1.000  H
  H150     1.0000 0.48940  0.94390  0.79630  Biso   1.000  H
  H151     1.0000 0.98940  0.55610  0.20370  Biso   1.000  H
  H152     1.0000 0.51060  0.44390  0.70370  Biso   1.000  H
