data_image0
_cell_length_a       18.279
_cell_length_b       14.972
_cell_length_c       7.484
_cell_angle_alpha    90
_cell_angle_beta     93.23
_cell_angle_gamma    90

_symmetry_space_group_name_H-M    "P 1"
_symmetry_int_tables_number       1

loop_
  _symmetry_equiv_pos_as_xyz
  'x, y, z'

loop_
  _atom_site_label
  _atom_site_occupancy
  _atom_site_fract_x
  _atom_site_fract_y
  _atom_site_fract_z
  _atom_site_thermal_displace_type
  _atom_site_B_iso_or_equiv
  _atom_site_type_symbol
  Ag1      1.0000 0.11760  0.15043  0.17703  Biso   1.000  Ag
  Ag2      1.0000 0.88240  0.65043  0.32297  Biso   1.000  Ag
  Ag3      1.0000 0.88240  0.84957  0.82297  Biso   1.000  Ag
  Ag4      1.0000 0.11760  0.34957  0.67703  Biso   1.000  Ag
  Cu1      1.0000 0.61917  0.11235  0.66776  Biso   1.000  Cu
  Cu2      1.0000 0.38083  0.61235  0.83224  Biso   1.000  Cu
  Cu3      1.0000 0.38083  0.88765  0.33224  Biso   1.000  Cu
  Cu4      1.0000 0.61917  0.38765  0.16776  Biso   1.000  Cu
  O1       1.0000 0.52280  0.08860  0.74570  Biso   1.000  O
  O2       1.0000 0.47720  0.58860  0.75430  Biso   1.000  O
  O3       1.0000 0.47720  0.91140  0.25430  Biso   1.000  O
  O4       1.0000 0.52280  0.41140  0.24570  Biso   1.000  O
  O5       1.0000 0.58240  0.13280  0.42710  Biso   1.000  O
  O6       1.0000 0.41760  0.63280  0.07290  Biso   1.000  O
  O7       1.0000 0.41760  0.86720  0.57290  Biso   1.000  O
  O8       1.0000 0.58240  0.36720  0.92710  Biso   1.000  O
  O9       1.0000 0.71520  0.10110  0.58930  Biso   1.000  O
  O10      1.0000 0.28480  0.60110  0.91070  Biso   1.000  O
  O11      1.0000 0.28480  0.89890  0.41070  Biso   1.000  O
  O12      1.0000 0.71520  0.39890  0.08930  Biso   1.000  O
  O13      1.0000 0.65290  0.12610  0.90800  Biso   1.000  O
  O14      1.0000 0.34710  0.62610  0.59200  Biso   1.000  O
  O15      1.0000 0.34710  0.87390  0.09200  Biso   1.000  O
  O16      1.0000 0.65290  0.37390  0.40800  Biso   1.000  O
  O17      1.0000 0.19930  0.40630  0.22100  Biso   1.000  O
  O18      1.0000 0.80070  0.90630  0.27900  Biso   1.000  O
  O19      1.0000 0.80070  0.59370  0.77900  Biso   1.000  O
  O20      1.0000 0.19930  0.09370  0.72100  Biso   1.000  O
  O21      1.0000 0.10250  0.37630  0.04610  Biso   1.000  O
  O22      1.0000 0.89750  0.87630  0.45390  Biso   1.000  O
  O23      1.0000 0.89750  0.62370  0.95390  Biso   1.000  O
  O24      1.0000 0.10250  0.12370  0.54610  Biso   1.000  O
  O25      1.0000 0.11580  0.31480  0.30640  Biso   1.000  O
  O26      1.0000 0.88420  0.81480  0.19360  Biso   1.000  O
  O27      1.0000 0.88420  0.68520  0.69360  Biso   1.000  O
  O28      1.0000 0.11580  0.18520  0.80640  Biso   1.000  O
  N1       1.0000 0.23420  0.15020  0.23900  Biso   1.000  N
  N2       1.0000 0.76580  0.65020  0.26100  Biso   1.000  N
  N3       1.0000 0.76580  0.84980  0.76100  Biso   1.000  N
  N4       1.0000 0.23420  0.34980  0.73900  Biso   1.000  N
  N5       1.0000 0.00160  0.14310  0.10560  Biso   1.000  N
  N6       1.0000 0.99840  0.64310  0.39440  Biso   1.000  N
  N7       1.0000 0.99840  0.85690  0.89440  Biso   1.000  N
  N8       1.0000 0.00160  0.35690  0.60560  Biso   1.000  N
  N9       1.0000 0.13990  0.36780  0.19330  Biso   1.000  N
  N10      1.0000 0.86010  0.86780  0.30670  Biso   1.000  N
  N11      1.0000 0.86010  0.63220  0.80670  Biso   1.000  N
  N12      1.0000 0.13990  0.13220  0.69330  Biso   1.000  N
  C1       1.0000 0.39720  0.06600  0.75200  Biso   1.000  C
  C2       1.0000 0.60280  0.56600  0.74800  Biso   1.000  C
  C3       1.0000 0.60280  0.93400  0.24800  Biso   1.000  C
  C4       1.0000 0.39720  0.43400  0.25200  Biso   1.000  C
  H1       1.0000 0.41120  0.01830  0.83670  Biso   1.000  H
  H2       1.0000 0.58880  0.51830  0.66330  Biso   1.000  H
  H3       1.0000 0.58880  0.98170  0.16330  Biso   1.000  H
  H4       1.0000 0.41120  0.48170  0.33670  Biso   1.000  H
  H5       1.0000 0.35810  0.04460  0.66750  Biso   1.000  H
  H6       1.0000 0.64190  0.54460  0.83250  Biso   1.000  H
  H7       1.0000 0.64190  0.95540  0.33250  Biso   1.000  H
  H8       1.0000 0.35810  0.45540  0.16750  Biso   1.000  H
  H9       1.0000 0.37960  0.11770  0.81750  Biso   1.000  H
  H10      1.0000 0.62040  0.61770  0.68250  Biso   1.000  H
  H11      1.0000 0.62040  0.88230  0.18250  Biso   1.000  H
  H12      1.0000 0.37960  0.38230  0.31750  Biso   1.000  H
  C5       1.0000 0.46200  0.09260  0.65190  Biso   1.000  C
  C6       1.0000 0.53800  0.59260  0.84810  Biso   1.000  C
  C7       1.0000 0.53800  0.90740  0.34810  Biso   1.000  C
  C8       1.0000 0.46200  0.40740  0.15190  Biso   1.000  C
  C9       1.0000 0.45480  0.12150  0.47240  Biso   1.000  C
  C10      1.0000 0.54520  0.62150  0.02760  Biso   1.000  C
  C11      1.0000 0.54520  0.87850  0.52760  Biso   1.000  C
  C12      1.0000 0.45480  0.37850  0.97240  Biso   1.000  C
  C13      1.0000 0.51720  0.14000  0.37040  Biso   1.000  C
  C14      1.0000 0.48280  0.64000  0.12960  Biso   1.000  C
  C15      1.0000 0.48280  0.86000  0.62960  Biso   1.000  C
  C16      1.0000 0.51720  0.36000  0.87040  Biso   1.000  C
  C17      1.0000 0.50840  0.16910  0.17650  Biso   1.000  C
  C18      1.0000 0.49160  0.66910  0.32350  Biso   1.000  C
  C19      1.0000 0.49160  0.83090  0.82350  Biso   1.000  C
  C20      1.0000 0.50840  0.33090  0.67650  Biso   1.000  C
  H13      1.0000 0.55140  0.20380  0.14580  Biso   1.000  H
  H14      1.0000 0.44860  0.70380  0.35420  Biso   1.000  H
  H15      1.0000 0.44860  0.79620  0.85420  Biso   1.000  H
  H16      1.0000 0.55140  0.29620  0.64580  Biso   1.000  H
  H17      1.0000 0.46430  0.20610  0.15900  Biso   1.000  H
  H18      1.0000 0.53570  0.70610  0.34100  Biso   1.000  H
  H19      1.0000 0.53570  0.79390  0.84100  Biso   1.000  H
  H20      1.0000 0.46430  0.29390  0.65900  Biso   1.000  H
  H21      1.0000 0.50370  0.11630  0.09930  Biso   1.000  H
  H22      1.0000 0.49630  0.61630  0.40070  Biso   1.000  H
  H23      1.0000 0.49630  0.88370  0.90070  Biso   1.000  H
  H24      1.0000 0.50370  0.38370  0.59930  Biso   1.000  H
  C21      1.0000 0.37910  0.13240  0.38520  Biso   1.000  C
  C22      1.0000 0.62090  0.63240  0.11480  Biso   1.000  C
  C23      1.0000 0.62090  0.86760  0.61480  Biso   1.000  C
  C24      1.0000 0.37910  0.36760  0.88520  Biso   1.000  C
  C25      1.0000 0.32890  0.18850  0.45990  Biso   1.000  C
  C26      1.0000 0.67110  0.68850  0.04010  Biso   1.000  C
  C27      1.0000 0.67110  0.81150  0.54010  Biso   1.000  C
  C28      1.0000 0.32890  0.31150  0.95990  Biso   1.000  C
  H25      1.0000 0.34340  0.22220  0.56340  Biso   1.000  H
  H26      1.0000 0.65660  0.72220  0.93660  Biso   1.000  H
  H27      1.0000 0.65660  0.77780  0.43660  Biso   1.000  H
  H28      1.0000 0.34340  0.27780  0.06340  Biso   1.000  H
  C29      1.0000 0.25820  0.19650  0.38690  Biso   1.000  C
  C30      1.0000 0.74180  0.69650  0.11310  Biso   1.000  C
  C31      1.0000 0.74180  0.80350  0.61310  Biso   1.000  C
  C32      1.0000 0.25820  0.30350  0.88690  Biso   1.000  C
  H29      1.0000 0.22530  0.23560  0.44190  Biso   1.000  H
  H30      1.0000 0.77470  0.73560  0.05810  Biso   1.000  H
  H31      1.0000 0.77470  0.76440  0.55810  Biso   1.000  H
  H32      1.0000 0.22530  0.26440  0.94190  Biso   1.000  H
  C33      1.0000 0.28410  0.09900  0.16200  Biso   1.000  C
  C34      1.0000 0.71590  0.59900  0.33800  Biso   1.000  C
  C35      1.0000 0.71590  0.90100  0.83800  Biso   1.000  C
  C36      1.0000 0.28410  0.40100  0.66200  Biso   1.000  C
  H33      1.0000 0.26910  0.06790  0.05550  Biso   1.000  H
  H34      1.0000 0.73090  0.56790  0.44450  Biso   1.000  H
  H35      1.0000 0.73090  0.93210  0.94450  Biso   1.000  H
  H36      1.0000 0.26910  0.43210  0.55550  Biso   1.000  H
  C37      1.0000 0.35530  0.08880  0.22790  Biso   1.000  C
  C38      1.0000 0.64470  0.58880  0.27210  Biso   1.000  C
  C39      1.0000 0.64470  0.91120  0.77210  Biso   1.000  C
  C40      1.0000 0.35530  0.41120  0.72790  Biso   1.000  C
  H37      1.0000 0.38820  0.05220  0.16650  Biso   1.000  H
  H38      1.0000 0.61180  0.55220  0.33350  Biso   1.000  H
  H39      1.0000 0.61180  0.94780  0.83350  Biso   1.000  H
  H40      1.0000 0.38820  0.44780  0.66650  Biso   1.000  H
  C41      1.0000 0.84120  0.07670  0.58030  Biso   1.000  C
  C42      1.0000 0.15880  0.57670  0.91970  Biso   1.000  C
  C43      1.0000 0.15880  0.92330  0.41970  Biso   1.000  C
  C44      1.0000 0.84120  0.42330  0.08030  Biso   1.000  C
  H41      1.0000 0.82490  0.04360  0.47230  Biso   1.000  H
  H42      1.0000 0.17510  0.54360  0.02770  Biso   1.000  H
  H43      1.0000 0.17510  0.95640  0.52770  Biso   1.000  H
  H44      1.0000 0.82490  0.45640  0.97230  Biso   1.000  H
  H45      1.0000 0.87410  0.03910  0.65590  Biso   1.000  H
  H46      1.0000 0.12590  0.53910  0.84410  Biso   1.000  H
  H47      1.0000 0.12590  0.96090  0.34410  Biso   1.000  H
  H48      1.0000 0.87410  0.46090  0.15590  Biso   1.000  H
  H49      1.0000 0.86720  0.13080  0.54640  Biso   1.000  H
  H50      1.0000 0.13280  0.63080  0.95360  Biso   1.000  H
  H51      1.0000 0.13280  0.86920  0.45360  Biso   1.000  H
  H52      1.0000 0.86720  0.36920  0.04640  Biso   1.000  H
  C45      1.0000 0.77560  0.10220  0.68240  Biso   1.000  C
  C46      1.0000 0.22440  0.60220  0.81760  Biso   1.000  C
  C47      1.0000 0.22440  0.89780  0.31760  Biso   1.000  C
  C48      1.0000 0.77560  0.39780  0.18240  Biso   1.000  C
  C49      1.0000 0.78210  0.12100  0.86910  Biso   1.000  C
  C50      1.0000 0.21790  0.62100  0.63090  Biso   1.000  C
  C51      1.0000 0.21790  0.87900  0.13090  Biso   1.000  C
  C52      1.0000 0.78210  0.37900  0.36910  Biso   1.000  C
  C53      1.0000 0.72120  0.13270  0.96960  Biso   1.000  C
  C54      1.0000 0.27880  0.63270  0.53040  Biso   1.000  C
  C55      1.0000 0.27880  0.86730  0.03040  Biso   1.000  C
  C56      1.0000 0.72120  0.36730  0.46960  Biso   1.000  C
  C57      1.0000 0.73050  0.15050  0.16610  Biso   1.000  C
  C58      1.0000 0.26950  0.65050  0.33390  Biso   1.000  C
  C59      1.0000 0.26950  0.84950  0.83390  Biso   1.000  C
  C60      1.0000 0.73050  0.34950  0.66610  Biso   1.000  C
  H53      1.0000 0.68390  0.17140  0.20980  Biso   1.000  H
  H54      1.0000 0.31610  0.67140  0.29020  Biso   1.000  H
  H55      1.0000 0.31610  0.82860  0.79020  Biso   1.000  H
  H56      1.0000 0.68390  0.32860  0.70980  Biso   1.000  H
  H57      1.0000 0.76810  0.19630  0.18870  Biso   1.000  H
  H58      1.0000 0.23190  0.69630  0.31130  Biso   1.000  H
  H59      1.0000 0.23190  0.80370  0.81130  Biso   1.000  H
  H60      1.0000 0.76810  0.30370  0.68870  Biso   1.000  H
  H61      1.0000 0.74540  0.09540  0.22870  Biso   1.000  H
  H62      1.0000 0.25460  0.59540  0.27130  Biso   1.000  H
  H63      1.0000 0.25460  0.90460  0.77130  Biso   1.000  H
  H64      1.0000 0.74540  0.40460  0.72870  Biso   1.000  H
  C61      1.0000 0.85790  0.12920  0.95580  Biso   1.000  C
  C62      1.0000 0.14210  0.62920  0.54420  Biso   1.000  C
  C63      1.0000 0.14210  0.87080  0.04420  Biso   1.000  C
  C64      1.0000 0.85790  0.37080  0.45580  Biso   1.000  C
  C65      1.0000 0.90370  0.20010  0.91520  Biso   1.000  C
  C66      1.0000 0.09630  0.70010  0.58480  Biso   1.000  C
  C67      1.0000 0.09630  0.79990  0.08480  Biso   1.000  C
  C68      1.0000 0.90370  0.29990  0.41520  Biso   1.000  C
  H65      1.0000 0.88620  0.24510  0.83420  Biso   1.000  H
  H66      1.0000 0.11380  0.74510  0.66580  Biso   1.000  H
  H67      1.0000 0.11380  0.75490  0.16580  Biso   1.000  H
  H68      1.0000 0.88620  0.25490  0.33420  Biso   1.000  H
  C69      1.0000 0.97360  0.20550  0.99070  Biso   1.000  C
  C70      1.0000 0.02640  0.70550  0.50930  Biso   1.000  C
  C71      1.0000 0.02640  0.79450  0.00930  Biso   1.000  C
  C72      1.0000 0.97360  0.29450  0.49070  Biso   1.000  C
  H69      1.0000 0.00340  0.25480  0.96120  Biso   1.000  H
  H70      1.0000 0.99660  0.75480  0.53880  Biso   1.000  H
  H71      1.0000 0.99660  0.74520  0.03880  Biso   1.000  H
  H72      1.0000 0.00340  0.24520  0.46120  Biso   1.000  H
  C73      1.0000 0.95750  0.07390  0.14800  Biso   1.000  C
  C74      1.0000 0.04250  0.57390  0.35200  Biso   1.000  C
  C75      1.0000 0.04250  0.92610  0.85200  Biso   1.000  C
  C76      1.0000 0.95750  0.42610  0.64800  Biso   1.000  C
  H73      1.0000 0.97610  0.02950  0.22900  Biso   1.000  H
  H74      1.0000 0.02390  0.52950  0.27100  Biso   1.000  H
  H75      1.0000 0.02390  0.97050  0.77100  Biso   1.000  H
  H76      1.0000 0.97610  0.47050  0.72900  Biso   1.000  H
  C77      1.0000 0.88560  0.06610  0.07600  Biso   1.000  C
  C78      1.0000 0.11440  0.56610  0.42400  Biso   1.000  C
  C79      1.0000 0.11440  0.93390  0.92400  Biso   1.000  C
  C80      1.0000 0.88560  0.43390  0.57600  Biso   1.000  C
  H77      1.0000 0.85590  0.01750  0.10970  Biso   1.000  H
  H78      1.0000 0.14410  0.51750  0.39030  Biso   1.000  H
  H79      1.0000 0.14410  0.98250  0.89030  Biso   1.000  H
  H80      1.0000 0.85590  0.48250  0.60970  Biso   1.000  H
