data_image0
_cell_length_a       5.7721
_cell_length_b       10.45
_cell_length_c       13.4629
_cell_angle_alpha    97.246
_cell_angle_beta     94.251
_cell_angle_gamma    101.883

_symmetry_space_group_name_H-M    "P 1"
_symmetry_int_tables_number       1

loop_
  _symmetry_equiv_pos_as_xyz
  'x, y, z'

loop_
  _atom_site_label
  _atom_site_occupancy
  _atom_site_fract_x
  _atom_site_fract_y
  _atom_site_fract_z
  _atom_site_thermal_displace_type
  _atom_site_B_iso_or_equiv
  _atom_site_type_symbol
  Cu1      1.0000 0.76440  0.57752  0.99317  Biso   1.000  Cu
  Cu2      1.0000 0.23560  0.42248  0.00683  Biso   1.000  Cu
  Cl1      1.0000 0.09680  0.62210  0.10046  Biso   1.000  Cl
  Cl2      1.0000 0.90320  0.37790  0.89954  Biso   1.000  Cl
  Cl3      1.0000 0.87320  0.74920  0.91050  Biso   1.000  Cl
  Cl4      1.0000 0.12680  0.25080  0.08950  Biso   1.000  Cl
  O1       1.0000 0.44550  0.51950  0.91340  Biso   1.000  O
  O2       1.0000 0.55450  0.48050  0.08660  Biso   1.000  O
  N1       1.0000 0.51330  0.48210  0.74750  Biso   1.000  N
  N2       1.0000 0.48670  0.51790  0.25250  Biso   1.000  N
  H1       1.0000 0.60640  0.42940  0.76360  Biso   1.000  H
  H2       1.0000 0.39360  0.57060  0.23640  Biso   1.000  H
  N3       1.0000 0.25380  0.61230  0.79760  Biso   1.000  N
  N4       1.0000 0.74620  0.38770  0.20240  Biso   1.000  N
  H3       1.0000 0.18620  0.64860  0.84700  Biso   1.000  H
  H4       1.0000 0.81380  0.35140  0.15300  Biso   1.000  H
  C1       1.0000 0.40710  0.53700  0.82030  Biso   1.000  C
  C2       1.0000 0.59290  0.46300  0.17970  Biso   1.000  C
  C3       1.0000 0.48600  0.50320  0.64110  Biso   1.000  C
  C4       1.0000 0.51400  0.49680  0.35890  Biso   1.000  C
  H5       1.0000 0.36610  0.42920  0.60180  Biso   1.000  H
  H6       1.0000 0.63390  0.57080  0.39820  Biso   1.000  H
  H7       1.0000 0.63940  0.50650  0.61200  Biso   1.000  H
  H8       1.0000 0.36060  0.49350  0.38800  Biso   1.000  H
  C5       1.0000 0.40800  0.63190  0.63580  Biso   1.000  C
  C6       1.0000 0.59200  0.36810  0.36420  Biso   1.000  C
  H9       1.0000 0.36440  0.64000  0.56470  Biso   1.000  H
  H10      1.0000 0.63560  0.36000  0.43530  Biso   1.000  H
  H11      1.0000 0.54080  0.70700  0.66350  Biso   1.000  H
  H12      1.0000 0.45920  0.29300  0.33650  Biso   1.000  H
  C7       1.0000 0.19300  0.63730  0.69580  Biso   1.000  C
  C8       1.0000 0.80700  0.36270  0.30420  Biso   1.000  C
  H13      1.0000 0.15330  0.72530  0.69800  Biso   1.000  H
  H14      1.0000 0.84670  0.27470  0.30200  Biso   1.000  H
  H15      1.0000 0.05280  0.56980  0.66310  Biso   1.000  H
  H16      1.0000 0.94720  0.43020  0.33690  Biso   1.000  H
  O3       1.0000 0.52380  0.96200  0.41360  Biso   1.000  O
  O4       1.0000 0.47620  0.03800  0.58640  Biso   1.000  O
  Cu3      1.0000 0.23490  0.91417  0.48356  Biso   1.000  Cu
  Cu4      1.0000 0.76510  0.08583  0.51644  Biso   1.000  Cu
  Cl5      1.0000 0.94000  0.88550  0.58402  Biso   1.000  Cl
  Cl6      1.0000 0.06000  0.11450  0.41598  Biso   1.000  Cl
  Cl7      1.0000 0.09670  0.73180  0.37495  Biso   1.000  Cl
  Cl8      1.0000 0.90330  0.26820  0.62505  Biso   1.000  Cl
  N5       1.0000 0.67040  0.85930  0.28100  Biso   1.000  N
  N6       1.0000 0.32960  0.14070  0.71900  Biso   1.000  N
  H17      1.0000 0.73860  0.81730  0.32340  Biso   1.000  H
  H18      1.0000 0.26140  0.18270  0.67660  Biso   1.000  H
  N7       1.0000 0.41400  0.99640  0.25610  Biso   1.000  N
  N8       1.0000 0.58600  0.00360  0.74390  Biso   1.000  N
  H19      1.0000 0.32010  0.04450  0.28310  Biso   1.000  H
  H20      1.0000 0.67990  0.95550  0.71690  Biso   1.000  H
  C9       1.0000 0.53730  0.93790  0.31590  Biso   1.000  C
  C10      1.0000 0.46270  0.06210  0.68410  Biso   1.000  C
  C11      1.0000 0.71260  0.83710  0.17320  Biso   1.000  C
  C12      1.0000 0.28740  0.16290  0.82680  Biso   1.000  C
  H21      1.0000 0.60150  0.75640  0.13790  Biso   1.000  H
  H22      1.0000 0.39850  0.24360  0.86210  Biso   1.000  H
  H23      1.0000 0.87770  0.82650  0.16700  Biso   1.000  H
  H24      1.0000 0.12230  0.17350  0.83300  Biso   1.000  H
  C13      1.0000 0.67010  0.96110  0.12690  Biso   1.000  C
  C14      1.0000 0.32990  0.03890  0.87310  Biso   1.000  C
  H25      1.0000 0.79390  0.03950  0.15730  Biso   1.000  H
  H26      1.0000 0.20610  0.96050  0.84270  Biso   1.000  H
  H27      1.0000 0.68190  0.94720  0.05350  Biso   1.000  H
  H28      1.0000 0.31810  0.05280  0.94650  Biso   1.000  H
  C15      1.0000 0.42500  0.98520  0.14630  Biso   1.000  C
  C16      1.0000 0.57500  0.01480  0.85370  Biso   1.000  C
  H29      1.0000 0.40270  0.06760  0.12170  Biso   1.000  H
  H30      1.0000 0.59730  0.93240  0.87830  Biso   1.000  H
  H31      1.0000 0.29960  0.91080  0.11100  Biso   1.000  H
  H32      1.0000 0.70040  0.08920  0.88900  Biso   1.000  H
