data_image0
_cell_length_a       8.2892
_cell_length_b       22.8479
_cell_length_c       16.9258
_cell_angle_alpha    90
_cell_angle_beta     99.148
_cell_angle_gamma    90

_symmetry_space_group_name_H-M    "P 1"
_symmetry_int_tables_number       1

loop_
  _symmetry_equiv_pos_as_xyz
  'x, y, z'

loop_
  _atom_site_label
  _atom_site_occupancy
  _atom_site_fract_x
  _atom_site_fract_y
  _atom_site_fract_z
  _atom_site_thermal_displace_type
  _atom_site_B_iso_or_equiv
  _atom_site_type_symbol
  Cu1      1.0000 0.81622  0.80969  0.45578  Biso   1.000  Cu
  Cu2      1.0000 0.81622  0.69031  0.95578  Biso   1.000  Cu
  Cu3      1.0000 0.18378  0.19031  0.54422  Biso   1.000  Cu
  Cu4      1.0000 0.18378  0.30969  0.04422  Biso   1.000  Cu
  Cu5      1.0000 0.87659  0.90301  0.37464  Biso   1.000  Cu
  Cu6      1.0000 0.87659  0.59699  0.87464  Biso   1.000  Cu
  Cu7      1.0000 0.12341  0.09699  0.62536  Biso   1.000  Cu
  Cu8      1.0000 0.12341  0.40301  0.12536  Biso   1.000  Cu
  N1       1.0000 0.23620  0.22750  0.98750  Biso   1.000  N
  N2       1.0000 0.23620  0.27250  0.48750  Biso   1.000  N
  N3       1.0000 0.76380  0.77250  0.01250  Biso   1.000  N
  N4       1.0000 0.76380  0.72750  0.51250  Biso   1.000  N
  N5       1.0000 0.92620  0.98207  0.31290  Biso   1.000  N
  N6       1.0000 0.92620  0.51793  0.81290  Biso   1.000  N
  N7       1.0000 0.07380  0.01793  0.68710  Biso   1.000  N
  N8       1.0000 0.07380  0.48207  0.18710  Biso   1.000  N
  N9       1.0000 0.35130  0.85560  0.90950  Biso   1.000  N
  N10      1.0000 0.35130  0.64440  0.40950  Biso   1.000  N
  N11      1.0000 0.64870  0.14440  0.09050  Biso   1.000  N
  N12      1.0000 0.64870  0.35560  0.59050  Biso   1.000  N
  N13      1.0000 0.13300  0.07464  0.09610  Biso   1.000  N
  N14      1.0000 0.13300  0.42536  0.59610  Biso   1.000  N
  N15      1.0000 0.86700  0.92536  0.90390  Biso   1.000  N
  N16      1.0000 0.86700  0.57464  0.40390  Biso   1.000  N
  N17      1.0000 0.13540  0.97180  0.10560  Biso   1.000  N
  N18      1.0000 0.13540  0.52820  0.60560  Biso   1.000  N
  N19      1.0000 0.86460  0.02820  0.89440  Biso   1.000  N
  N20      1.0000 0.86460  0.47180  0.39440  Biso   1.000  N
  N21      1.0000 0.24800  0.01811  0.00200  Biso   1.000  N
  N22      1.0000 0.24800  0.48189  0.50200  Biso   1.000  N
  N23      1.0000 0.75200  0.98189  0.99800  Biso   1.000  N
  N24      1.0000 0.75200  0.51811  0.49800  Biso   1.000  N
  O1       1.0000 0.59420  0.81644  0.39210  Biso   1.000  O
  O2       1.0000 0.59420  0.68356  0.89210  Biso   1.000  O
  O3       1.0000 0.40580  0.18356  0.60790  Biso   1.000  O
  O4       1.0000 0.40580  0.31644  0.10790  Biso   1.000  O
  O5       1.0000 0.64990  0.89141  0.31840  Biso   1.000  O
  O6       1.0000 0.64990  0.60859  0.81840  Biso   1.000  O
  O7       1.0000 0.35010  0.10859  0.68160  Biso   1.000  O
  O8       1.0000 0.35010  0.39141  0.18160  Biso   1.000  O
  O9       1.0000 0.74840  0.86555  0.53330  Biso   1.000  O
  O10      1.0000 0.74840  0.63445  0.03330  Biso   1.000  O
  O11      1.0000 0.25160  0.13445  0.46670  Biso   1.000  O
  O12      1.0000 0.25160  0.36555  0.96670  Biso   1.000  O
  O13      1.0000 0.78760  0.94360  0.46010  Biso   1.000  O
  O14      1.0000 0.78760  0.55640  0.96010  Biso   1.000  O
  O15      1.0000 0.21240  0.05640  0.53990  Biso   1.000  O
  O16      1.0000 0.21240  0.44360  0.03990  Biso   1.000  O
  O17      1.0000 0.89490  0.76985  0.36470  Biso   1.000  O
  O18      1.0000 0.89490  0.73015  0.86470  Biso   1.000  O
  O19      1.0000 0.10510  0.23015  0.63530  Biso   1.000  O
  O20      1.0000 0.10510  0.26985  0.13530  Biso   1.000  O
  O21      1.0000 0.95400  0.84868  0.29900  Biso   1.000  O
  O22      1.0000 0.95400  0.65132  0.79900  Biso   1.000  O
  O23      1.0000 0.04600  0.15132  0.70100  Biso   1.000  O
  O24      1.0000 0.04600  0.34868  0.20100  Biso   1.000  O
  O25      1.0000 0.09290  0.89807  0.44210  Biso   1.000  O
  O26      1.0000 0.09290  0.60193  0.94210  Biso   1.000  O
  O27      1.0000 0.90710  0.10193  0.55790  Biso   1.000  O
  O28      1.0000 0.90710  0.39807  0.05790  Biso   1.000  O
  O29      1.0000 0.04330  0.81818  0.50880  Biso   1.000  O
  O30      1.0000 0.04330  0.68182  0.00880  Biso   1.000  O
  O31      1.0000 0.95670  0.18182  0.49120  Biso   1.000  O
  O32      1.0000 0.95670  0.31818  0.99120  Biso   1.000  O
  C1       1.0000 0.30560  0.22610  0.92210  Biso   1.000  C
  C2       1.0000 0.30560  0.27390  0.42210  Biso   1.000  C
  C3       1.0000 0.69440  0.77390  0.07790  Biso   1.000  C
  C4       1.0000 0.69440  0.72610  0.57790  Biso   1.000  C
  H1       1.0000 0.33070  0.26120  0.89890  Biso   1.000  H
  H2       1.0000 0.33070  0.23880  0.39890  Biso   1.000  H
  H3       1.0000 0.66930  0.73880  0.10110  Biso   1.000  H
  H4       1.0000 0.66930  0.76120  0.60110  Biso   1.000  H
  C5       1.0000 0.34150  0.17420  0.88780  Biso   1.000  C
  C6       1.0000 0.34150  0.32580  0.38780  Biso   1.000  C
  C7       1.0000 0.65850  0.82580  0.11220  Biso   1.000  C
  C8       1.0000 0.65850  0.67420  0.61220  Biso   1.000  C
  H5       1.0000 0.38830  0.17480  0.84130  Biso   1.000  H
  H6       1.0000 0.38830  0.32520  0.34130  Biso   1.000  H
  H7       1.0000 0.61170  0.82520  0.15870  Biso   1.000  H
  H8       1.0000 0.61170  0.67480  0.65870  Biso   1.000  H
  C9       1.0000 0.30960  0.12190  0.92060  Biso   1.000  C
  C10      1.0000 0.30960  0.37810  0.42060  Biso   1.000  C
  C11      1.0000 0.69040  0.87810  0.07940  Biso   1.000  C
  C12      1.0000 0.69040  0.62190  0.57940  Biso   1.000  C
  H9       1.0000 0.33310  0.08670  0.89730  Biso   1.000  H
  H10      1.0000 0.33310  0.41330  0.39730  Biso   1.000  H
  H11      1.0000 0.66690  0.91330  0.10270  Biso   1.000  H
  H12      1.0000 0.66690  0.58670  0.60270  Biso   1.000  H
  C13      1.0000 0.24010  0.12320  0.99060  Biso   1.000  C
  C14      1.0000 0.24010  0.37680  0.49060  Biso   1.000  C
  C15      1.0000 0.75990  0.87680  0.00940  Biso   1.000  C
  C16      1.0000 0.75990  0.62320  0.50940  Biso   1.000  C
  C17      1.0000 0.20620  0.17720  0.02020  Biso   1.000  C
  C18      1.0000 0.20620  0.32280  0.52020  Biso   1.000  C
  C19      1.0000 0.79380  0.82280  0.97980  Biso   1.000  C
  C20      1.0000 0.79380  0.67720  0.47980  Biso   1.000  C
  H13      1.0000 0.15900  0.17820  0.06650  Biso   1.000  H
  H14      1.0000 0.15900  0.32180  0.56650  Biso   1.000  H
  H15      1.0000 0.84100  0.82180  0.93350  Biso   1.000  H
  H16      1.0000 0.84100  0.67820  0.43350  Biso   1.000  H
  C21      1.0000 0.20450  0.06890  0.03190  Biso   1.000  C
  C22      1.0000 0.20450  0.43110  0.53190  Biso   1.000  C
  C23      1.0000 0.79550  0.93110  0.96810  Biso   1.000  C
  C24      1.0000 0.79550  0.56890  0.46810  Biso   1.000  C
  C25      1.0000 0.10010  0.02500  0.13190  Biso   1.000  C
  C26      1.0000 0.10010  0.47500  0.63190  Biso   1.000  C
  C27      1.0000 0.89990  0.97500  0.86810  Biso   1.000  C
  C28      1.0000 0.89990  0.52500  0.36810  Biso   1.000  C
  C29      1.0000 0.02600  0.02990  0.20430  Biso   1.000  C
  C30      1.0000 0.02600  0.47010  0.70430  Biso   1.000  C
  C31      1.0000 0.97400  0.97010  0.79570  Biso   1.000  C
  C32      1.0000 0.97400  0.52990  0.29570  Biso   1.000  C
  C33      1.0000 0.99620  0.08370  0.23580  Biso   1.000  C
  C34      1.0000 0.99620  0.41630  0.73580  Biso   1.000  C
  C35      1.0000 0.00380  0.91630  0.76420  Biso   1.000  C
  C36      1.0000 0.00380  0.58370  0.26420  Biso   1.000  C
  H17      1.0000 0.01880  0.11780  0.20960  Biso   1.000  H
  H18      1.0000 0.01880  0.38220  0.70960  Biso   1.000  H
  H19      1.0000 0.98120  0.88220  0.79040  Biso   1.000  H
  H20      1.0000 0.98120  0.61780  0.29040  Biso   1.000  H
  C37      1.0000 0.93250  0.08680  0.30640  Biso   1.000  C
  C38      1.0000 0.93250  0.41320  0.80640  Biso   1.000  C
  C39      1.0000 0.06750  0.91320  0.69360  Biso   1.000  C
  C40      1.0000 0.06750  0.58680  0.19360  Biso   1.000  C
  H21      1.0000 0.91130  0.12280  0.32840  Biso   1.000  H
  H22      1.0000 0.91130  0.37720  0.82840  Biso   1.000  H
  H23      1.0000 0.08870  0.87720  0.67160  Biso   1.000  H
  H24      1.0000 0.08870  0.62280  0.17160  Biso   1.000  H
  C41      1.0000 0.90110  0.03490  0.34350  Biso   1.000  C
  C42      1.0000 0.90110  0.46510  0.84350  Biso   1.000  C
  C43      1.0000 0.09890  0.96510  0.65650  Biso   1.000  C
  C44      1.0000 0.09890  0.53490  0.15650  Biso   1.000  C
  H25      1.0000 0.86080  0.03670  0.39170  Biso   1.000  H
  H26      1.0000 0.86080  0.46330  0.89170  Biso   1.000  H
  H27      1.0000 0.13920  0.96330  0.60830  Biso   1.000  H
  H28      1.0000 0.13920  0.53670  0.10830  Biso   1.000  H
  C45      1.0000 0.98970  0.98040  0.24530  Biso   1.000  C
  C46      1.0000 0.98970  0.51960  0.74530  Biso   1.000  C
  C47      1.0000 0.01030  0.01960  0.75470  Biso   1.000  C
  C48      1.0000 0.01030  0.48040  0.25470  Biso   1.000  C
  H29      1.0000 0.01070  0.94400  0.22450  Biso   1.000  H
  H30      1.0000 0.01070  0.55600  0.72450  Biso   1.000  H
  H31      1.0000 0.98930  0.05600  0.77550  Biso   1.000  H
  H32      1.0000 0.98930  0.44400  0.27550  Biso   1.000  H
  C49      1.0000 0.20770  0.97060  0.04160  Biso   1.000  C
  C50      1.0000 0.20770  0.52940  0.54160  Biso   1.000  C
  C51      1.0000 0.79230  0.02940  0.95840  Biso   1.000  C
  C52      1.0000 0.79230  0.47060  0.45840  Biso   1.000  C
  C53      1.0000 0.24670  0.91210  0.01090  Biso   1.000  C
  C54      1.0000 0.24670  0.58790  0.51090  Biso   1.000  C
  C55      1.0000 0.75330  0.08790  0.98910  Biso   1.000  C
  C56      1.0000 0.75330  0.41210  0.48910  Biso   1.000  C
  C57      1.0000 0.20590  0.86220  0.04810  Biso   1.000  C
  C58      1.0000 0.20590  0.63780  0.54810  Biso   1.000  C
  C59      1.0000 0.79410  0.13780  0.95190  Biso   1.000  C
  C60      1.0000 0.79410  0.36220  0.45190  Biso   1.000  C
  H33      1.0000 0.15630  0.86400  0.09360  Biso   1.000  H
  H34      1.0000 0.15630  0.63600  0.59360  Biso   1.000  H
  H35      1.0000 0.84370  0.13600  0.90640  Biso   1.000  H
  H36      1.0000 0.84370  0.36400  0.40640  Biso   1.000  H
  C61      1.0000 0.24150  0.80880  0.01530  Biso   1.000  C
  C62      1.0000 0.24150  0.69120  0.51530  Biso   1.000  C
  C63      1.0000 0.75850  0.19120  0.98470  Biso   1.000  C
  C64      1.0000 0.75850  0.30880  0.48470  Biso   1.000  C
  H37      1.0000 0.21780  0.77380  0.03910  Biso   1.000  H
  H38      1.0000 0.21780  0.72620  0.53910  Biso   1.000  H
  H39      1.0000 0.78220  0.22620  0.96090  Biso   1.000  H
  H40      1.0000 0.78220  0.27380  0.46090  Biso   1.000  H
  C65      1.0000 0.31010  0.80860  0.94930  Biso   1.000  C
  C66      1.0000 0.31010  0.69140  0.44930  Biso   1.000  C
  C67      1.0000 0.68990  0.19140  0.05070  Biso   1.000  C
  C68      1.0000 0.68990  0.30860  0.55070  Biso   1.000  C
  H41      1.0000 0.33170  0.77220  0.92870  Biso   1.000  H
  H42      1.0000 0.33170  0.72780  0.42870  Biso   1.000  H
  H43      1.0000 0.66830  0.22780  0.07130  Biso   1.000  H
  H44      1.0000 0.66830  0.27220  0.57130  Biso   1.000  H
  C69      1.0000 0.31540  0.90690  0.94250  Biso   1.000  C
  C70      1.0000 0.31540  0.59310  0.44250  Biso   1.000  C
  C71      1.0000 0.68460  0.09310  0.05750  Biso   1.000  C
  C72      1.0000 0.68460  0.40690  0.55750  Biso   1.000  C
  H45      1.0000 0.33900  0.94120  0.91710  Biso   1.000  H
  H46      1.0000 0.33900  0.55880  0.41710  Biso   1.000  H
  H47      1.0000 0.66100  0.05880  0.08290  Biso   1.000  H
  H48      1.0000 0.66100  0.44120  0.58290  Biso   1.000  H
  C73      1.0000 0.55620  0.85370  0.33940  Biso   1.000  C
  C74      1.0000 0.55620  0.64630  0.83940  Biso   1.000  C
  C75      1.0000 0.44380  0.14630  0.66060  Biso   1.000  C
  C76      1.0000 0.44380  0.35370  0.16060  Biso   1.000  C
  C77      1.0000 0.38010  0.85400  0.29680  Biso   1.000  C
  C78      1.0000 0.38010  0.64600  0.79680  Biso   1.000  C
  C79      1.0000 0.61990  0.14600  0.70320  Biso   1.000  C
  C80      1.0000 0.61990  0.35400  0.20320  Biso   1.000  C
  H49      1.0000 0.32030  0.82330  0.31790  Biso   1.000  H
  H50      1.0000 0.32030  0.67670  0.81790  Biso   1.000  H
  H51      1.0000 0.67970  0.17670  0.68210  Biso   1.000  H
  H52      1.0000 0.67970  0.32330  0.18210  Biso   1.000  H
  H53      1.0000 0.37820  0.84780  0.24050  Biso   1.000  H
  H54      1.0000 0.37820  0.65220  0.74050  Biso   1.000  H
  H55      1.0000 0.62180  0.15220  0.75950  Biso   1.000  H
  H56      1.0000 0.62180  0.34780  0.25950  Biso   1.000  H
  H57      1.0000 0.33080  0.89110  0.30500  Biso   1.000  H
  H58      1.0000 0.33080  0.60890  0.80500  Biso   1.000  H
  H59      1.0000 0.66920  0.10890  0.69500  Biso   1.000  H
  H60      1.0000 0.66920  0.39110  0.19500  Biso   1.000  H
  C81      1.0000 0.74550  0.91930  0.51990  Biso   1.000  C
  C82      1.0000 0.74550  0.58070  0.01990  Biso   1.000  C
  C83      1.0000 0.25450  0.08070  0.48010  Biso   1.000  C
  C84      1.0000 0.25450  0.41930  0.98010  Biso   1.000  C
  C85      1.0000 0.68180  0.95900  0.57880  Biso   1.000  C
  C86      1.0000 0.68180  0.54100  0.07880  Biso   1.000  C
  C87      1.0000 0.31820  0.04100  0.42120  Biso   1.000  C
  C88      1.0000 0.31820  0.45900  0.92120  Biso   1.000  C
  H61      1.0000 0.68570  0.99890  0.56110  Biso   1.000  H
  H62      1.0000 0.68570  0.50110  0.06110  Biso   1.000  H
  H63      1.0000 0.31430  0.00110  0.43890  Biso   1.000  H
  H64      1.0000 0.31430  0.49890  0.93890  Biso   1.000  H
  H65      1.0000 0.74800  0.95490  0.63040  Biso   1.000  H
  H66      1.0000 0.74800  0.54510  0.13040  Biso   1.000  H
  H67      1.0000 0.25200  0.04510  0.36960  Biso   1.000  H
  H68      1.0000 0.25200  0.45490  0.86960  Biso   1.000  H
  H69      1.0000 0.57090  0.94870  0.58230  Biso   1.000  H
  H70      1.0000 0.57090  0.55130  0.08230  Biso   1.000  H
  H71      1.0000 0.42910  0.05130  0.41770  Biso   1.000  H
  H72      1.0000 0.42910  0.44870  0.91770  Biso   1.000  H
  C89      1.0000 0.94840  0.79480  0.30820  Biso   1.000  C
  C90      1.0000 0.94840  0.70520  0.80820  Biso   1.000  C
  C91      1.0000 0.05160  0.20520  0.69180  Biso   1.000  C
  C92      1.0000 0.05160  0.29480  0.19180  Biso   1.000  C
  C93      1.0000 0.01280  0.75620  0.24840  Biso   1.000  C
  C94      1.0000 0.01280  0.74380  0.74840  Biso   1.000  C
  C95      1.0000 0.98720  0.24380  0.75160  Biso   1.000  C
  C96      1.0000 0.98720  0.25620  0.25160  Biso   1.000  C
  H73      1.0000 0.00030  0.71590  0.26240  Biso   1.000  H
  H74      1.0000 0.00030  0.78410  0.76240  Biso   1.000  H
  H75      1.0000 0.99970  0.28410  0.73760  Biso   1.000  H
  H76      1.0000 0.99970  0.21590  0.23760  Biso   1.000  H
  H77      1.0000 0.12640  0.76450  0.24860  Biso   1.000  H
  H78      1.0000 0.12640  0.73550  0.74860  Biso   1.000  H
  H79      1.0000 0.87360  0.23550  0.75140  Biso   1.000  H
  H80      1.0000 0.87360  0.26450  0.25140  Biso   1.000  H
  H81      1.0000 0.95280  0.76340  0.19600  Biso   1.000  H
  H82      1.0000 0.95280  0.73660  0.69600  Biso   1.000  H
  H83      1.0000 0.04720  0.23660  0.80400  Biso   1.000  H
  H84      1.0000 0.04720  0.26340  0.30400  Biso   1.000  H
  C97      1.0000 0.13490  0.85830  0.49220  Biso   1.000  C
  C98      1.0000 0.13490  0.64170  0.99220  Biso   1.000  C
  C99      1.0000 0.86510  0.14170  0.50780  Biso   1.000  C
  C100     1.0000 0.86510  0.35830  0.00780  Biso   1.000  C
  C101     1.0000 0.30660  0.85890  0.53450  Biso   1.000  C
  C102     1.0000 0.30660  0.64110  0.03450  Biso   1.000  C
  C103     1.0000 0.69340  0.14110  0.46550  Biso   1.000  C
  C104     1.0000 0.69340  0.35890  0.96550  Biso   1.000  C
  H85      1.0000 0.32350  0.82640  0.57090  Biso   1.000  H
  H86      1.0000 0.32350  0.67360  0.07090  Biso   1.000  H
  H87      1.0000 0.67650  0.17360  0.42910  Biso   1.000  H
  H88      1.0000 0.67650  0.32640  0.92910  Biso   1.000  H
  H89      1.0000 0.32710  0.89480  0.56390  Biso   1.000  H
  H90      1.0000 0.32710  0.60520  0.06390  Biso   1.000  H
  H91      1.0000 0.67290  0.10520  0.43610  Biso   1.000  H
  H92      1.0000 0.67290  0.39480  0.93610  Biso   1.000  H
  H93      1.0000 0.37990  0.85580  0.49620  Biso   1.000  H
  H94      1.0000 0.37990  0.64420  0.99620  Biso   1.000  H
  H95      1.0000 0.62010  0.14420  0.50380  Biso   1.000  H
  H96      1.0000 0.62010  0.35580  0.00380  Biso   1.000  H
  O33      1.0000 0.45060  0.02540  0.80340  Biso   1.000  O
  O34      1.0000 0.45060  0.47460  0.30340  Biso   1.000  O
  O35      1.0000 0.54940  0.97460  0.19660  Biso   1.000  O
  O36      1.0000 0.54940  0.52540  0.69660  Biso   1.000  O
  C105     1.0000 0.50720  0.97920  0.76710  Biso   1.000  C
  C106     1.0000 0.50720  0.52080  0.26710  Biso   1.000  C
  C107     1.0000 0.49280  0.02080  0.23290  Biso   1.000  C
  C108     1.0000 0.49280  0.47920  0.73290  Biso   1.000  C
  O37      1.0000 0.40420  0.82680  0.75400  Biso   1.000  O
  O38      1.0000 0.40420  0.67320  0.25400  Biso   1.000  O
  O39      1.0000 0.59580  0.17320  0.24600  Biso   1.000  O
  O40      1.0000 0.59580  0.32680  0.74600  Biso   1.000  O
  C109     1.0000 0.56730  0.81360  0.75590  Biso   1.000  C
  C110     1.0000 0.56730  0.68640  0.25590  Biso   1.000  C
  C111     1.0000 0.43270  0.18640  0.24410  Biso   1.000  C
  C112     1.0000 0.43270  0.31360  0.74410  Biso   1.000  C
