data_image0
_cell_length_a       10.7641
_cell_length_b       12.0908
_cell_length_c       18.9039
_cell_angle_alpha    82.514
_cell_angle_beta     85.268
_cell_angle_gamma    79.746

_symmetry_space_group_name_H-M    "P 1"
_symmetry_int_tables_number       1

loop_
  _symmetry_equiv_pos_as_xyz
  'x, y, z'

loop_
  _atom_site_label
  _atom_site_occupancy
  _atom_site_fract_x
  _atom_site_fract_y
  _atom_site_fract_z
  _atom_site_thermal_displace_type
  _atom_site_B_iso_or_equiv
  _atom_site_type_symbol
  N1       1.0000 0.47791  0.08261  0.34670  Biso   1.000  N
  N2       1.0000 0.52209  0.91739  0.65330  Biso   1.000  N
  N3       1.0000 0.44510  0.15946  0.45790  Biso   1.000  N
  N4       1.0000 0.55490  0.84054  0.54210  Biso   1.000  N
  N5       1.0000 0.59691  0.22079  0.37010  Biso   1.000  N
  N6       1.0000 0.40309  0.77921  0.62990  Biso   1.000  N
  N7       1.0000 0.61218  0.12118  0.13331  Biso   1.000  N
  N8       1.0000 0.38782  0.87882  0.86669  Biso   1.000  N
  N9       1.0000 0.20390  0.88096  0.40998  Biso   1.000  N
  N10      1.0000 0.79610  0.11904  0.59002  Biso   1.000  N
  N11      1.0000 0.70812  0.40924  0.51694  Biso   1.000  N
  N12      1.0000 0.29188  0.59076  0.48306  Biso   1.000  N
  O1       1.0000 0.64024  0.85912  0.94726  Biso   1.000  O
  O2       1.0000 0.35976  0.14088  0.05274  Biso   1.000  O
  O3       1.0000 0.69268  0.94905  0.03434  Biso   1.000  O
  O4       1.0000 0.30732  0.05095  0.96566  Biso   1.000  O
  O5       1.0000 0.41549  0.84148  0.02829  Biso   1.000  O
  O6       1.0000 0.58451  0.15852  0.97171  Biso   1.000  O
  O7       1.0000 0.46626  0.93122  0.11553  Biso   1.000  O
  O8       1.0000 0.53374  0.06878  0.88447  Biso   1.000  O
  O9       1.0000 0.84371  0.59119  0.43060  Biso   1.000  O
  O10      1.0000 0.15629  0.40881  0.56940  Biso   1.000  O
  O11      1.0000 0.96727  0.35205  0.58037  Biso   1.000  O
  O12      1.0000 0.03273  0.64795  0.41963  Biso   1.000  O
  O13      1.0000 0.84508  0.57217  0.57932  Biso   1.000  O
  O14      1.0000 0.15492  0.42783  0.42068  Biso   1.000  O
  O15      1.0000 0.96877  0.36627  0.43381  Biso   1.000  O
  O16      1.0000 0.03123  0.63373  0.56619  Biso   1.000  O
  C1       1.0000 0.71650  0.87700  0.99064  Biso   1.000  C
  C2       1.0000 0.28350  0.12300  0.00936  Biso   1.000  C
  C3       1.0000 0.15400  0.19450  0.00964  Biso   1.000  C
  C4       1.0000 0.84600  0.80550  0.99036  Biso   1.000  C
  C5       1.0000 0.06300  0.16800  0.96987  Biso   1.000  C
  C6       1.0000 0.93700  0.83200  0.03013  Biso   1.000  C
  H1       1.0000 0.08130  0.10460  0.94530  Biso   1.000  H
  H2       1.0000 0.91870  0.89540  0.05470  Biso   1.000  H
  C7       1.0000 0.94500  0.23580  0.96673  Biso   1.000  C
  C8       1.0000 0.05500  0.76420  0.03327  Biso   1.000  C
  H3       1.0000 0.88340  0.21770  0.94060  Biso   1.000  H
  H4       1.0000 0.11660  0.78230  0.05940  Biso   1.000  H
  C9       1.0000 0.91930  0.32990  0.00246  Biso   1.000  C
  C10      1.0000 0.08070  0.67010  0.99754  Biso   1.000  C
  H5       1.0000 0.84080  0.37640  0.99920  Biso   1.000  H
  H6       1.0000 0.15920  0.62360  0.00080  Biso   1.000  H
  C11      1.0000 0.00780  0.35680  0.04301  Biso   1.000  C
  C12      1.0000 0.99220  0.64320  0.95699  Biso   1.000  C
  H7       1.0000 0.98870  0.42010  0.06760  Biso   1.000  H
  H8       1.0000 0.01130  0.57990  0.93240  Biso   1.000  H
  C13      1.0000 0.12670  0.28780  0.04689  Biso   1.000  C
  C14      1.0000 0.87330  0.71220  0.95311  Biso   1.000  C
  H9       1.0000 0.18710  0.30470  0.07440  Biso   1.000  H
  H10      1.0000 0.81290  0.69530  0.92560  Biso   1.000  H
  C15      1.0000 0.42040  0.85370  0.09295  Biso   1.000  C
  C16      1.0000 0.57960  0.14630  0.90705  Biso   1.000  C
  C17      1.0000 0.63510  0.22800  0.85228  Biso   1.000  C
  C18      1.0000 0.36490  0.77200  0.14772  Biso   1.000  C
  C19      1.0000 0.65730  0.20490  0.78206  Biso   1.000  C
  C20      1.0000 0.34270  0.79510  0.21794  Biso   1.000  C
  H11      1.0000 0.63360  0.14080  0.76850  Biso   1.000  H
  H12      1.0000 0.36640  0.85920  0.23150  Biso   1.000  H
  C21      1.0000 0.71500  0.27710  0.73186  Biso   1.000  C
  C22      1.0000 0.28500  0.72290  0.26814  Biso   1.000  C
  H13      1.0000 0.73120  0.26090  0.68490  Biso   1.000  H
  H14      1.0000 0.26880  0.73910  0.31510  Biso   1.000  H
  C23      1.0000 0.74850  0.37340  0.75200  Biso   1.000  C
  C24      1.0000 0.25150  0.62660  0.24800  Biso   1.000  C
  H15      1.0000 0.78840  0.42130  0.71870  Biso   1.000  H
  H16      1.0000 0.21160  0.57870  0.28130  Biso   1.000  H
  C25      1.0000 0.72250  0.39830  0.82152  Biso   1.000  C
  C26      1.0000 0.27750  0.60170  0.17848  Biso   1.000  C
  H17      1.0000 0.74330  0.46400  0.83460  Biso   1.000  H
  H18      1.0000 0.25670  0.53600  0.16540  Biso   1.000  H
  C27      1.0000 0.66600  0.32640  0.87179  Biso   1.000  C
  C28      1.0000 0.33400  0.67360  0.12821  Biso   1.000  C
  H19      1.0000 0.64870  0.34360  0.91850  Biso   1.000  H
  H20      1.0000 0.35130  0.65640  0.08150  Biso   1.000  H
  C29      1.0000 0.71940  0.16360  0.11652  Biso   1.000  C
  C30      1.0000 0.28060  0.83640  0.88348  Biso   1.000  C
  H21      1.0000 0.75150  0.16850  0.06920  Biso   1.000  H
  H22      1.0000 0.24850  0.83150  0.93080  Biso   1.000  H
  C31      1.0000 0.78390  0.20020  0.16701  Biso   1.000  C
  C32      1.0000 0.21610  0.79980  0.83299  Biso   1.000  C
  H23      1.0000 0.85920  0.22720  0.15400  Biso   1.000  H
  H24      1.0000 0.14080  0.77280  0.84600  Biso   1.000  H
  C33      1.0000 0.73490  0.19600  0.23692  Biso   1.000  C
  C34      1.0000 0.26510  0.80400  0.76308  Biso   1.000  C
  H25      1.0000 0.77580  0.22160  0.27140  Biso   1.000  H
  H26      1.0000 0.22420  0.77840  0.72860  Biso   1.000  H
  C35      1.0000 0.62370  0.15298  0.25513  Biso   1.000  C
  C36      1.0000 0.37630  0.84702  0.74487  Biso   1.000  C
  C37      1.0000 0.56620  0.11480  0.20129  Biso   1.000  C
  C38      1.0000 0.43380  0.88520  0.79871  Biso   1.000  C
  H27      1.0000 0.49320  0.08370  0.21330  Biso   1.000  H
  H28      1.0000 0.50680  0.91630  0.78670  Biso   1.000  H
  C39      1.0000 0.32290  0.02060  0.43604  Biso   1.000  C
  C40      1.0000 0.67710  0.97940  0.56396  Biso   1.000  C
  C41      1.0000 0.29320  0.94610  0.39249  Biso   1.000  C
  C42      1.0000 0.70680  0.05390  0.60751  Biso   1.000  C
  H29      1.0000 0.33790  0.94110  0.34850  Biso   1.000  H
  H30      1.0000 0.66210  0.05890  0.65150  Biso   1.000  H
  C43      1.0000 0.14100  0.88940  0.47337  Biso   1.000  C
  C44      1.0000 0.85900  0.11060  0.52663  Biso   1.000  C
  H31      1.0000 0.07880  0.84490  0.48650  Biso   1.000  H
  H32      1.0000 0.92120  0.15510  0.51350  Biso   1.000  H
  C45      1.0000 0.16340  0.96120  0.52090  Biso   1.000  C
  C46      1.0000 0.83660  0.03880  0.47910  Biso   1.000  C
  H33      1.0000 0.11730  0.96460  0.56460  Biso   1.000  H
  H34      1.0000 0.88270  0.03540  0.43540  Biso   1.000  H
  C47      1.0000 0.25540  0.02720  0.50186  Biso   1.000  C
  C48      1.0000 0.74460  0.97280  0.49814  Biso   1.000  C
  H35      1.0000 0.27230  0.07590  0.53270  Biso   1.000  H
  H36      1.0000 0.72770  0.92410  0.46730  Biso   1.000  H
  C49      1.0000 0.67650  0.34177  0.47350  Biso   1.000  C
  C50      1.0000 0.32350  0.65823  0.52650  Biso   1.000  C
  H37      1.0000 0.73220  0.32270  0.43500  Biso   1.000  H
  H38      1.0000 0.26780  0.67730  0.56500  Biso   1.000  H
  C51      1.0000 0.56490  0.29880  0.48297  Biso   1.000  C
  C52      1.0000 0.43510  0.70120  0.51703  Biso   1.000  C
  C53      1.0000 0.48030  0.32760  0.54016  Biso   1.000  C
  C54      1.0000 0.51970  0.67240  0.45984  Biso   1.000  C
  H39      1.0000 0.40470  0.29960  0.54790  Biso   1.000  H
  H40      1.0000 0.59530  0.70040  0.45210  Biso   1.000  H
  C55      1.0000 0.51140  0.39870  0.58509  Biso   1.000  C
  C56      1.0000 0.48860  0.60130  0.41491  Biso   1.000  C
  H41      1.0000 0.45680  0.42060  0.62340  Biso   1.000  H
  H42      1.0000 0.54320  0.57940  0.37660  Biso   1.000  H
  C57      1.0000 0.62640  0.43660  0.57137  Biso   1.000  C
  C58      1.0000 0.37360  0.56340  0.42863  Biso   1.000  C
  H43      1.0000 0.64760  0.48380  0.60190  Biso   1.000  H
  H44      1.0000 0.35240  0.51620  0.39810  Biso   1.000  H
  C59      1.0000 0.56330  0.15050  0.32853  Biso   1.000  C
  C60      1.0000 0.43670  0.84950  0.67147  Biso   1.000  C
  C61      1.0000 0.42060  0.09100  0.41224  Biso   1.000  C
  C62      1.0000 0.57940  0.90900  0.58776  Biso   1.000  C
  C63      1.0000 0.53420  0.22161  0.43429  Biso   1.000  C
  C64      1.0000 0.46580  0.77839  0.56571  Biso   1.000  C
  C65      1.0000 0.92070  0.65420  0.40257  Biso   1.000  C
  C66      1.0000 0.07930  0.34580  0.59743  Biso   1.000  C
  C67      1.0000 0.87740  0.74194  0.34161  Biso   1.000  C
  C68      1.0000 0.12260  0.25806  0.65839  Biso   1.000  C
  C69      1.0000 0.75850  0.75020  0.31710  Biso   1.000  C
  C70      1.0000 0.24150  0.24980  0.68290  Biso   1.000  C
  H45      1.0000 0.70250  0.70530  0.34070  Biso   1.000  H
  H46      1.0000 0.29750  0.29470  0.65930  Biso   1.000  H
  C71      1.0000 0.72220  0.82490  0.25751  Biso   1.000  C
  C72      1.0000 0.27780  0.17510  0.74249  Biso   1.000  C
  H47      1.0000 0.64140  0.83150  0.24170  Biso   1.000  H
  H48      1.0000 0.35860  0.16850  0.75830  Biso   1.000  H
  C73      1.0000 0.80650  0.88970  0.22171  Biso   1.000  C
  C74      1.0000 0.19350  0.11030  0.77829  Biso   1.000  C
  H49      1.0000 0.78350  0.93790  0.18070  Biso   1.000  H
  H50      1.0000 0.21650  0.06210  0.81930  Biso   1.000  H
  C75      1.0000 0.92460  0.88320  0.24654  Biso   1.000  C
  C76      1.0000 0.07540  0.11680  0.75346  Biso   1.000  C
  H51      1.0000 0.98090  0.92740  0.22250  Biso   1.000  H
  H52      1.0000 0.01910  0.07260  0.77750  Biso   1.000  H
  C77      1.0000 0.95960  0.81050  0.30765  Biso   1.000  C
  C78      1.0000 0.04040  0.18950  0.69235  Biso   1.000  C
  H53      1.0000 0.03800  0.80810  0.32560  Biso   1.000  H
  H54      1.0000 0.96200  0.19190  0.67440  Biso   1.000  H
  C79      1.0000 0.92130  0.63190  0.59460  Biso   1.000  C
  C80      1.0000 0.07870  0.36810  0.40540  Biso   1.000  C
  C81      1.0000 0.87900  0.70560  0.65308  Biso   1.000  C
  C82      1.0000 0.12100  0.29440  0.34692  Biso   1.000  C
  C83      1.0000 0.77620  0.68670  0.70049  Biso   1.000  C
  C84      1.0000 0.22380  0.31330  0.29951  Biso   1.000  C
  H55      1.0000 0.72960  0.63160  0.69350  Biso   1.000  H
  H56      1.0000 0.27040  0.36840  0.30650  Biso   1.000  H
  C85      1.0000 0.74300  0.74880  0.75746  Biso   1.000  C
  C86      1.0000 0.25700  0.25120  0.24254  Biso   1.000  C
  H57      1.0000 0.67660  0.73310  0.78980  Biso   1.000  H
  H58      1.0000 0.32340  0.26690  0.21020  Biso   1.000  H
  C87      1.0000 0.80810  0.83420  0.76667  Biso   1.000  C
  C88      1.0000 0.19190  0.16580  0.23333  Biso   1.000  C
  H59      1.0000 0.78510  0.87700  0.80460  Biso   1.000  H
  H60      1.0000 0.21490  0.12300  0.19540  Biso   1.000  H
  C89      1.0000 0.90730  0.85540  0.71906  Biso   1.000  C
  C90      1.0000 0.09270  0.14460  0.28094  Biso   1.000  C
  H61      1.0000 0.95010  0.91380  0.72450  Biso   1.000  H
  H62      1.0000 0.04990  0.08620  0.27550  Biso   1.000  H
  C91      1.0000 0.94420  0.79110  0.66335  Biso   1.000  C
  C92      1.0000 0.05580  0.20890  0.33665  Biso   1.000  C
  H63      1.0000 0.01300  0.80510  0.63250  Biso   1.000  H
  H64      1.0000 0.98700  0.19490  0.36750  Biso   1.000  H
  C93      1.0000 0.09360  0.49260  0.77230  Biso   1.000  C
  C94      1.0000 0.90640  0.50740  0.22770  Biso   1.000  C
  H65      1.0000 0.00740  0.51110  0.76590  Biso   1.000  H
  H66      1.0000 0.99260  0.48890  0.23410  Biso   1.000  H
  C95      1.0000 0.17450  0.54400  0.72743  Biso   1.000  C
  C96      1.0000 0.82550  0.45600  0.27257  Biso   1.000  C
  H67      1.0000 0.14630  0.59500  0.68850  Biso   1.000  H
  H68      1.0000 0.85370  0.40500  0.31150  Biso   1.000  H
  C97      1.0000 0.30390  0.51800  0.74134  Biso   1.000  C
  C98      1.0000 0.69610  0.48200  0.25866  Biso   1.000  C
  H69      1.0000 0.35850  0.55890  0.71260  Biso   1.000  H
  H70      1.0000 0.64150  0.44110  0.28740  Biso   1.000  H
  C99      1.0000 0.35310  0.44240  0.79050  Biso   1.000  C
  C100     1.0000 0.64690  0.55760  0.20950  Biso   1.000  C
  H71      1.0000 0.43990  0.42440  0.79530  Biso   1.000  H
  H72      1.0000 0.56010  0.57560  0.20470  Biso   1.000  H
  C101     1.0000 0.25980  0.38560  0.83940  Biso   1.000  C
  C102     1.0000 0.74020  0.61440  0.16060  Biso   1.000  C
  H73      1.0000 0.29020  0.33250  0.87680  Biso   1.000  H
  H74      1.0000 0.70980  0.66750  0.12320  Biso   1.000  H
  C103     1.0000 0.13930  0.40690  0.83180  Biso   1.000  C
  C104     1.0000 0.86070  0.59310  0.16820  Biso   1.000  C
  H75      1.0000 0.08370  0.37000  0.86250  Biso   1.000  H
  H76      1.0000 0.91630  0.63000  0.13750  Biso   1.000  H
  C105     1.0000 0.53060  0.59480  0.95693  Biso   1.000  C
  C106     1.0000 0.46940  0.40520  0.04307  Biso   1.000  C
  H77      1.0000 0.55110  0.65810  0.92810  Biso   1.000  H
  H78      1.0000 0.44890  0.34190  0.07190  Biso   1.000  H
  C107     1.0000 0.42810  0.54940  0.94375  Biso   1.000  C
  C108     1.0000 0.57190  0.45060  0.05625  Biso   1.000  C
  H79      1.0000 0.37890  0.58240  0.90590  Biso   1.000  H
  H80      1.0000 0.62110  0.41760  0.09410  Biso   1.000  H
  C109     1.0000 0.60310  0.54600  0.01324  Biso   1.000  C
  C110     1.0000 0.39690  0.45400  0.98676  Biso   1.000  C
  H81      1.0000 0.67270  0.57640  0.02260  Biso   1.000  H
  H82      1.0000 0.32730  0.42360  0.97740  Biso   1.000  H
  Cu1      1.0000 0.46857  0.94838  0.94894  Biso   1.000  Cu
  Cu2      1.0000 0.53143  0.05162  0.05106  Biso   1.000  Cu
  Cu3      1.0000 0.88985  0.46572  0.50618  Biso   1.000  Cu
  Cu4      1.0000 0.11015  0.53428  0.49382  Biso   1.000  Cu
