data_image0
_cell_length_a       11.405
_cell_length_b       7.51
_cell_length_c       8.435
_cell_angle_alpha    90
_cell_angle_beta     92.78
_cell_angle_gamma    90

_symmetry_space_group_name_H-M    "P 1"
_symmetry_int_tables_number       1

loop_
  _symmetry_equiv_pos_as_xyz
  'x, y, z'

loop_
  _atom_site_label
  _atom_site_occupancy
  _atom_site_fract_x
  _atom_site_fract_y
  _atom_site_fract_z
  _atom_site_thermal_displace_type
  _atom_site_B_iso_or_equiv
  _atom_site_type_symbol
  Cu1      1.0000 0.25000  0.25000  0.00000  Biso   1.000  Cu
  Cu2      1.0000 0.75000  0.75000  0.00000  Biso   1.000  Cu
  Cu3      1.0000 0.25000  0.75000  0.50000  Biso   1.000  Cu
  Cu4      1.0000 0.75000  0.25000  0.50000  Biso   1.000  Cu
  C1       1.0000 0.99860  0.17470  0.02050  Biso   1.000  C
  C2       1.0000 0.49860  0.67470  0.02050  Biso   1.000  C
  C3       1.0000 0.99860  0.82530  0.52050  Biso   1.000  C
  C4       1.0000 0.49860  0.32530  0.52050  Biso   1.000  C
  C5       1.0000 0.00140  0.82530  0.97950  Biso   1.000  C
  C6       1.0000 0.50140  0.32530  0.97950  Biso   1.000  C
  C7       1.0000 0.00140  0.17470  0.47950  Biso   1.000  C
  C8       1.0000 0.50140  0.67470  0.47950  Biso   1.000  C
  H1       1.0000 0.99650  0.31670  0.03520  Biso   1.000  H
  H2       1.0000 0.49650  0.81670  0.03520  Biso   1.000  H
  H3       1.0000 0.99650  0.68330  0.53520  Biso   1.000  H
  H4       1.0000 0.49650  0.18330  0.53520  Biso   1.000  H
  H5       1.0000 0.00350  0.68330  0.96480  Biso   1.000  H
  H6       1.0000 0.50350  0.18330  0.96480  Biso   1.000  H
  H7       1.0000 0.00350  0.31670  0.46480  Biso   1.000  H
  H8       1.0000 0.50350  0.81670  0.46480  Biso   1.000  H
  N1       1.0000 0.10142  0.09889  0.99679  Biso   1.000  N
  N2       1.0000 0.60142  0.59889  0.99679  Biso   1.000  N
  N3       1.0000 0.10142  0.90111  0.49679  Biso   1.000  N
  N4       1.0000 0.60142  0.40111  0.49679  Biso   1.000  N
  N5       1.0000 0.89858  0.90111  0.00321  Biso   1.000  N
  N6       1.0000 0.39858  0.40111  0.00321  Biso   1.000  N
  N7       1.0000 0.89858  0.09889  0.50321  Biso   1.000  N
  N8       1.0000 0.39858  0.59889  0.50321  Biso   1.000  N
  C9       1.0000 0.89707  0.07600  0.02380  Biso   1.000  C
  C10      1.0000 0.39707  0.57600  0.02380  Biso   1.000  C
  C11      1.0000 0.89707  0.92400  0.52380  Biso   1.000  C
  C12      1.0000 0.39707  0.42400  0.52380  Biso   1.000  C
  C13      1.0000 0.10293  0.92400  0.97620  Biso   1.000  C
  C14      1.0000 0.60293  0.42400  0.97620  Biso   1.000  C
  C15      1.0000 0.10293  0.07600  0.47620  Biso   1.000  C
  C16      1.0000 0.60293  0.57600  0.47620  Biso   1.000  C
  H9       1.0000 0.81330  0.13800  0.04330  Biso   1.000  H
  H10      1.0000 0.31330  0.63800  0.04330  Biso   1.000  H
  H11      1.0000 0.81330  0.86200  0.54330  Biso   1.000  H
  H12      1.0000 0.31330  0.36200  0.54330  Biso   1.000  H
  H13      1.0000 0.18670  0.86200  0.95670  Biso   1.000  H
  H14      1.0000 0.68670  0.36200  0.95670  Biso   1.000  H
  H15      1.0000 0.18670  0.13800  0.45670  Biso   1.000  H
  H16      1.0000 0.68670  0.63800  0.45670  Biso   1.000  H
  O1       1.0000 0.35250  0.01090  0.11080  Biso   1.000  O
  O2       1.0000 0.85250  0.51090  0.11080  Biso   1.000  O
  O3       1.0000 0.35250  0.98910  0.61080  Biso   1.000  O
  O4       1.0000 0.85250  0.48910  0.61080  Biso   1.000  O
  O5       1.0000 0.64750  0.98910  0.88920  Biso   1.000  O
  O6       1.0000 0.14750  0.48910  0.88920  Biso   1.000  O
  O7       1.0000 0.64750  0.01090  0.38920  Biso   1.000  O
  O8       1.0000 0.14750  0.51090  0.38920  Biso   1.000  O
  C17      1.0000 0.33420  0.96970  0.24850  Biso   1.000  C
  C18      1.0000 0.83420  0.46970  0.24850  Biso   1.000  C
  C19      1.0000 0.33420  0.03030  0.74850  Biso   1.000  C
  C20      1.0000 0.83420  0.53030  0.74850  Biso   1.000  C
  C21      1.0000 0.66580  0.03030  0.75150  Biso   1.000  C
  C22      1.0000 0.16580  0.53030  0.75150  Biso   1.000  C
  C23      1.0000 0.66580  0.96970  0.25150  Biso   1.000  C
  C24      1.0000 0.16580  0.46970  0.25150  Biso   1.000  C
  H17      1.0000 0.36350  0.05790  0.34440  Biso   1.000  H
  H18      1.0000 0.86350  0.55790  0.34440  Biso   1.000  H
  H19      1.0000 0.36350  0.94210  0.84440  Biso   1.000  H
  H20      1.0000 0.86350  0.44210  0.84440  Biso   1.000  H
  H21      1.0000 0.63650  0.94210  0.65560  Biso   1.000  H
  H22      1.0000 0.13650  0.44210  0.65560  Biso   1.000  H
  H23      1.0000 0.63650  0.05790  0.15560  Biso   1.000  H
  H24      1.0000 0.13650  0.55790  0.15560  Biso   1.000  H
  O9       1.0000 0.28370  0.82870  0.28790  Biso   1.000  O
  O10      1.0000 0.78370  0.32870  0.28790  Biso   1.000  O
  O11      1.0000 0.28370  0.17130  0.78790  Biso   1.000  O
  O12      1.0000 0.78370  0.67130  0.78790  Biso   1.000  O
  O13      1.0000 0.71630  0.17130  0.71210  Biso   1.000  O
  O14      1.0000 0.21630  0.67130  0.71210  Biso   1.000  O
  O15      1.0000 0.71630  0.82870  0.21210  Biso   1.000  O
  O16      1.0000 0.21630  0.32870  0.21210  Biso   1.000  O
