data_image0
_cell_length_a       7.9857
_cell_length_b       7.9857
_cell_length_c       17.5247
_cell_angle_alpha    90
_cell_angle_beta     90
_cell_angle_gamma    90

_symmetry_space_group_name_H-M    "P 1"
_symmetry_int_tables_number       1

loop_
  _symmetry_equiv_pos_as_xyz
  'x, y, z'

loop_
  _atom_site_label
  _atom_site_occupancy
  _atom_site_fract_x
  _atom_site_fract_y
  _atom_site_fract_z
  _atom_site_thermal_displace_type
  _atom_site_B_iso_or_equiv
  _atom_site_type_symbol
  Cu1      1.0000 0.73950  0.26050  0.25000  Biso   1.000  Cu
  Cu2      1.0000 0.26050  0.73950  0.75000  Biso   1.000  Cu
  Cu3      1.0000 0.23950  0.23950  0.00000  Biso   1.000  Cu
  Cu4      1.0000 0.76050  0.76050  0.50000  Biso   1.000  Cu
  O1       1.0000 0.87370  0.39820  0.33600  Biso   1.000  O
  O2       1.0000 0.12630  0.60180  0.83600  Biso   1.000  O
  O3       1.0000 0.10180  0.37370  0.08600  Biso   1.000  O
  O4       1.0000 0.89820  0.62630  0.58600  Biso   1.000  O
  O5       1.0000 0.62630  0.89820  0.41400  Biso   1.000  O
  O6       1.0000 0.37370  0.10180  0.91400  Biso   1.000  O
  O7       1.0000 0.39820  0.87370  0.66400  Biso   1.000  O
  O8       1.0000 0.60180  0.12630  0.16400  Biso   1.000  O
  O9       1.0000 0.89610  0.60950  0.42050  Biso   1.000  O
  O10      1.0000 0.10390  0.39050  0.92050  Biso   1.000  O
  O11      1.0000 0.89050  0.39610  0.17050  Biso   1.000  O
  O12      1.0000 0.10950  0.60390  0.67050  Biso   1.000  O
  O13      1.0000 0.60390  0.10950  0.32950  Biso   1.000  O
  O14      1.0000 0.39610  0.89050  0.82950  Biso   1.000  O
  O15      1.0000 0.60950  0.89610  0.57950  Biso   1.000  O
  O16      1.0000 0.39050  0.10390  0.07950  Biso   1.000  O
  N1       1.0000 0.55010  0.44990  0.25000  Biso   1.000  N
  N2       1.0000 0.44990  0.55010  0.75000  Biso   1.000  N
  N3       1.0000 0.05010  0.05010  0.00000  Biso   1.000  N
  N4       1.0000 0.94990  0.94990  0.50000  Biso   1.000  N
  N5       1.0000 0.92810  0.07190  0.25000  Biso   1.000  N
  N6       1.0000 0.07190  0.92810  0.75000  Biso   1.000  N
  N7       1.0000 0.42810  0.42810  0.00000  Biso   1.000  N
  N8       1.0000 0.57190  0.57190  0.50000  Biso   1.000  N
  C1       1.0000 0.00490  0.78400  0.23740  Biso   1.000  C
  C2       1.0000 0.99510  0.21600  0.73740  Biso   1.000  C
  C3       1.0000 0.71600  0.50490  0.98740  Biso   1.000  C
  C4       1.0000 0.28400  0.49510  0.48740  Biso   1.000  C
  C5       1.0000 0.49510  0.28400  0.51260  Biso   1.000  C
  C6       1.0000 0.50490  0.71600  0.01260  Biso   1.000  C
  C7       1.0000 0.78400  0.00490  0.76260  Biso   1.000  C
  C8       1.0000 0.21600  0.99510  0.26260  Biso   1.000  C
  H1       1.0000 0.97305  0.67318  0.22985  Biso   1.000  H
  H2       1.0000 0.02695  0.32682  0.72985  Biso   1.000  H
  H3       1.0000 0.82682  0.47305  0.97985  Biso   1.000  H
  H4       1.0000 0.17318  0.52695  0.47985  Biso   1.000  H
  H5       1.0000 0.52695  0.17318  0.52015  Biso   1.000  H
  H6       1.0000 0.47305  0.82682  0.02015  Biso   1.000  H
  H7       1.0000 0.67318  0.97305  0.77015  Biso   1.000  H
  H8       1.0000 0.32682  0.02695  0.27015  Biso   1.000  H
  C9       1.0000 0.17200  0.82800  0.25000  Biso   1.000  C
  C10      1.0000 0.82800  0.17200  0.75000  Biso   1.000  C
  C11      1.0000 0.67200  0.67200  0.00000  Biso   1.000  C
  C12      1.0000 0.32800  0.32800  0.50000  Biso   1.000  C
  C13      1.0000 0.45490  0.71780  0.21050  Biso   1.000  C
  C14      1.0000 0.54510  0.28220  0.71050  Biso   1.000  C
  C15      1.0000 0.78220  0.95490  0.96050  Biso   1.000  C
  C16      1.0000 0.21780  0.04510  0.46050  Biso   1.000  C
  C17      1.0000 0.04510  0.21780  0.53950  Biso   1.000  C
  C18      1.0000 0.95490  0.78220  0.03950  Biso   1.000  C
  C19      1.0000 0.71780  0.45490  0.78950  Biso   1.000  C
  C20      1.0000 0.28220  0.54510  0.28950  Biso   1.000  C
  H9       1.0000 0.47614  0.81635  0.18396  Biso   1.000  H
  H10      1.0000 0.52386  0.18365  0.68396  Biso   1.000  H
  H11      1.0000 0.68365  0.97614  0.93396  Biso   1.000  H
  H12      1.0000 0.31635  0.02386  0.43396  Biso   1.000  H
  H13      1.0000 0.02386  0.31635  0.56604  Biso   1.000  H
  H14      1.0000 0.97614  0.68365  0.06604  Biso   1.000  H
  H15      1.0000 0.81635  0.47614  0.81604  Biso   1.000  H
  H16      1.0000 0.18365  0.52386  0.31604  Biso   1.000  H
  C21      1.0000 0.30410  0.69590  0.25000  Biso   1.000  C
  C22      1.0000 0.69590  0.30410  0.75000  Biso   1.000  C
  C23      1.0000 0.80410  0.80410  0.00000  Biso   1.000  C
  C24      1.0000 0.19590  0.19590  0.50000  Biso   1.000  C
  C25      1.0000 0.82100  0.52430  0.37120  Biso   1.000  C
  C26      1.0000 0.17900  0.47570  0.87120  Biso   1.000  C
  C27      1.0000 0.97570  0.32100  0.12120  Biso   1.000  C
  C28      1.0000 0.02430  0.67900  0.62120  Biso   1.000  C
  C29      1.0000 0.67900  0.02430  0.37880  Biso   1.000  C
  C30      1.0000 0.32100  0.97570  0.87880  Biso   1.000  C
  C31      1.0000 0.52430  0.82100  0.62880  Biso   1.000  C
  C32      1.0000 0.47570  0.17900  0.12880  Biso   1.000  C
  H17      1.0000 0.71343  0.55901  0.35919  Biso   1.000  H
  H18      1.0000 0.28657  0.44099  0.85919  Biso   1.000  H
  H19      1.0000 0.94099  0.21343  0.10919  Biso   1.000  H
  H20      1.0000 0.05901  0.78657  0.60919  Biso   1.000  H
  H21      1.0000 0.78657  0.05901  0.39081  Biso   1.000  H
  H22      1.0000 0.21343  0.94099  0.89081  Biso   1.000  H
  H23      1.0000 0.55901  0.71343  0.64081  Biso   1.000  H
  H24      1.0000 0.44099  0.28657  0.14081  Biso   1.000  H
  C33      1.0000 0.57100  0.59060  0.21190  Biso   1.000  C
  C34      1.0000 0.42900  0.40940  0.71190  Biso   1.000  C
  C35      1.0000 0.90940  0.07100  0.96190  Biso   1.000  C
  C36      1.0000 0.09060  0.92900  0.46190  Biso   1.000  C
  C37      1.0000 0.92900  0.09060  0.53810  Biso   1.000  C
  C38      1.0000 0.07100  0.90940  0.03810  Biso   1.000  C
  C39      1.0000 0.59060  0.57100  0.78810  Biso   1.000  C
  C40      1.0000 0.40940  0.42900  0.28810  Biso   1.000  C
  H25      1.0000 0.66961  0.60463  0.18434  Biso   1.000  H
  H26      1.0000 0.33039  0.39537  0.68434  Biso   1.000  H
  H27      1.0000 0.89537  0.16961  0.93434  Biso   1.000  H
  H28      1.0000 0.10463  0.83039  0.43434  Biso   1.000  H
  H29      1.0000 0.83039  0.10463  0.56566  Biso   1.000  H
  H30      1.0000 0.16961  0.89537  0.06566  Biso   1.000  H
  H31      1.0000 0.60463  0.66961  0.81566  Biso   1.000  H
  H32      1.0000 0.39537  0.33039  0.31566  Biso   1.000  H
  C41      1.0000 0.89040  0.91120  0.23680  Biso   1.000  C
  C42      1.0000 0.10960  0.08880  0.73680  Biso   1.000  C
  C43      1.0000 0.58880  0.39040  0.98680  Biso   1.000  C
  C44      1.0000 0.41120  0.60960  0.48680  Biso   1.000  C
  C45      1.0000 0.60960  0.41120  0.51320  Biso   1.000  C
  C46      1.0000 0.39040  0.58880  0.01320  Biso   1.000  C
  C47      1.0000 0.91120  0.89040  0.76320  Biso   1.000  C
  C48      1.0000 0.08880  0.10960  0.26320  Biso   1.000  C
  H33      1.0000 0.77929  0.88443  0.22657  Biso   1.000  H
  H34      1.0000 0.22071  0.11557  0.72657  Biso   1.000  H
  H35      1.0000 0.61557  0.27929  0.97657  Biso   1.000  H
  H36      1.0000 0.38443  0.72071  0.47657  Biso   1.000  H
  H37      1.0000 0.72071  0.38443  0.52343  Biso   1.000  H
  H38      1.0000 0.27929  0.61557  0.02343  Biso   1.000  H
  H39      1.0000 0.88443  0.77929  0.77343  Biso   1.000  H
  H40      1.0000 0.11557  0.22071  0.27343  Biso   1.000  H
