data_image0
_cell_length_a       11.5799
_cell_length_b       7.6759
_cell_length_c       8.5592
_cell_angle_alpha    90
_cell_angle_beta     90.235
_cell_angle_gamma    90

_symmetry_space_group_name_H-M    "P 1"
_symmetry_int_tables_number       1

loop_
  _symmetry_equiv_pos_as_xyz
  'x, y, z'

loop_
  _atom_site_label
  _atom_site_occupancy
  _atom_site_fract_x
  _atom_site_fract_y
  _atom_site_fract_z
  _atom_site_thermal_displace_type
  _atom_site_B_iso_or_equiv
  _atom_site_type_symbol
  Cu1      1.0000 0.25000  0.25000  0.00000  Biso   1.000  Cu
  Cu2      1.0000 0.75000  0.75000  0.00000  Biso   1.000  Cu
  Cu3      1.0000 0.25000  0.75000  0.50000  Biso   1.000  Cu
  Cu4      1.0000 0.75000  0.25000  0.50000  Biso   1.000  Cu
  N1       1.0000 0.10110  0.09780  0.99830  Biso   1.000  N
  N2       1.0000 0.60110  0.59780  0.99830  Biso   1.000  N
  N3       1.0000 0.10110  0.90220  0.49830  Biso   1.000  N
  N4       1.0000 0.60110  0.40220  0.49830  Biso   1.000  N
  N5       1.0000 0.89890  0.90220  0.00170  Biso   1.000  N
  N6       1.0000 0.39890  0.40220  0.00170  Biso   1.000  N
  N7       1.0000 0.89890  0.09780  0.50170  Biso   1.000  N
  N8       1.0000 0.39890  0.59780  0.50170  Biso   1.000  N
  C1       1.0000 0.99760  0.17320  0.01070  Biso   1.000  C
  C2       1.0000 0.49760  0.67320  0.01070  Biso   1.000  C
  C3       1.0000 0.99760  0.82680  0.51070  Biso   1.000  C
  C4       1.0000 0.49760  0.32680  0.51070  Biso   1.000  C
  C5       1.0000 0.00240  0.82680  0.98930  Biso   1.000  C
  C6       1.0000 0.50240  0.32680  0.98930  Biso   1.000  C
  C7       1.0000 0.00240  0.17320  0.48930  Biso   1.000  C
  C8       1.0000 0.50240  0.67320  0.48930  Biso   1.000  C
  H1       1.0000 0.99290  0.29380  0.01880  Biso   1.000  H
  H2       1.0000 0.49290  0.79380  0.01880  Biso   1.000  H
  H3       1.0000 0.99290  0.70620  0.51880  Biso   1.000  H
  H4       1.0000 0.49290  0.20620  0.51880  Biso   1.000  H
  H5       1.0000 0.00710  0.70620  0.98120  Biso   1.000  H
  H6       1.0000 0.50710  0.20620  0.98120  Biso   1.000  H
  H7       1.0000 0.00710  0.29380  0.48120  Biso   1.000  H
  H8       1.0000 0.50710  0.79380  0.48120  Biso   1.000  H
  C9       1.0000 0.10290  0.92450  0.98810  Biso   1.000  C
  C10      1.0000 0.60290  0.42450  0.98810  Biso   1.000  C
  C11      1.0000 0.10290  0.07550  0.48810  Biso   1.000  C
  C12      1.0000 0.60290  0.57550  0.48810  Biso   1.000  C
  C13      1.0000 0.89710  0.07550  0.01190  Biso   1.000  C
  C14      1.0000 0.39710  0.57550  0.01190  Biso   1.000  C
  C15      1.0000 0.89710  0.92450  0.51190  Biso   1.000  C
  C16      1.0000 0.39710  0.42450  0.51190  Biso   1.000  C
  H9       1.0000 0.17360  0.86770  0.98010  Biso   1.000  H
  H10      1.0000 0.67360  0.36770  0.98010  Biso   1.000  H
  H11      1.0000 0.17360  0.13230  0.48010  Biso   1.000  H
  H12      1.0000 0.67360  0.63230  0.48010  Biso   1.000  H
  H13      1.0000 0.82640  0.13230  0.01990  Biso   1.000  H
  H14      1.0000 0.32640  0.63230  0.01990  Biso   1.000  H
  H15      1.0000 0.82640  0.86770  0.51990  Biso   1.000  H
  H16      1.0000 0.32640  0.36770  0.51990  Biso   1.000  H
  C17      1.0000 0.33480  0.03240  0.74690  Biso   1.000  C
  C18      1.0000 0.83480  0.53240  0.74690  Biso   1.000  C
  C19      1.0000 0.33480  0.96760  0.24690  Biso   1.000  C
  C20      1.0000 0.83480  0.46760  0.24690  Biso   1.000  C
  C21      1.0000 0.66520  0.96760  0.25310  Biso   1.000  C
  C22      1.0000 0.16520  0.46760  0.25310  Biso   1.000  C
  C23      1.0000 0.66520  0.03240  0.75310  Biso   1.000  C
  C24      1.0000 0.16520  0.53240  0.75310  Biso   1.000  C
  H17      1.0000 0.35830  0.95580  0.82500  Biso   1.000  H
  H18      1.0000 0.85830  0.45580  0.82500  Biso   1.000  H
  H19      1.0000 0.35830  0.04420  0.32500  Biso   1.000  H
  H20      1.0000 0.85830  0.54420  0.32500  Biso   1.000  H
  H21      1.0000 0.64170  0.04420  0.17500  Biso   1.000  H
  H22      1.0000 0.14170  0.54420  0.17500  Biso   1.000  H
  H23      1.0000 0.64170  0.95580  0.67500  Biso   1.000  H
  H24      1.0000 0.14170  0.45580  0.67500  Biso   1.000  H
  O1       1.0000 0.28830  0.17280  0.78890  Biso   1.000  O
  O2       1.0000 0.78830  0.67280  0.78890  Biso   1.000  O
  O3       1.0000 0.28830  0.82720  0.28890  Biso   1.000  O
  O4       1.0000 0.78830  0.32720  0.28890  Biso   1.000  O
  O5       1.0000 0.71170  0.82720  0.21110  Biso   1.000  O
  O6       1.0000 0.21170  0.32720  0.21110  Biso   1.000  O
  O7       1.0000 0.71170  0.17280  0.71110  Biso   1.000  O
  O8       1.0000 0.21170  0.67280  0.71110  Biso   1.000  O
  O9       1.0000 0.35180  0.98840  0.61040  Biso   1.000  O
  O10      1.0000 0.85180  0.48840  0.61040  Biso   1.000  O
  O11      1.0000 0.35180  0.01160  0.11040  Biso   1.000  O
  O12      1.0000 0.85180  0.51160  0.11040  Biso   1.000  O
  O13      1.0000 0.64820  0.01160  0.38960  Biso   1.000  O
  O14      1.0000 0.14820  0.51160  0.38960  Biso   1.000  O
  O15      1.0000 0.64820  0.98840  0.88960  Biso   1.000  O
  O16      1.0000 0.14820  0.48840  0.88960  Biso   1.000  O
