data_image0
_cell_length_a       7.8505
_cell_length_b       7.8505
_cell_length_c       18.1513
_cell_angle_alpha    90
_cell_angle_beta     90
_cell_angle_gamma    90

_symmetry_space_group_name_H-M    "P 1"
_symmetry_int_tables_number       1

loop_
  _symmetry_equiv_pos_as_xyz
  'x, y, z'

loop_
  _atom_site_label
  _atom_site_occupancy
  _atom_site_fract_x
  _atom_site_fract_y
  _atom_site_fract_z
  _atom_site_thermal_displace_type
  _atom_site_B_iso_or_equiv
  _atom_site_type_symbol
  Cu1      1.0000 0.26627  0.26627  0.00000  Biso   1.000  Cu
  Cu2      1.0000 0.73373  0.73373  0.50000  Biso   1.000  Cu
  Cu3      1.0000 0.76627  0.23373  0.75000  Biso   1.000  Cu
  Cu4      1.0000 0.23373  0.76627  0.25000  Biso   1.000  Cu
  O1       1.0000 0.13030  0.38790  0.07594  Biso   1.000  O
  O2       1.0000 0.86970  0.61210  0.57594  Biso   1.000  O
  O3       1.0000 0.63030  0.11210  0.67406  Biso   1.000  O
  O4       1.0000 0.36970  0.88790  0.17406  Biso   1.000  O
  O5       1.0000 0.61210  0.86970  0.42406  Biso   1.000  O
  O6       1.0000 0.38790  0.13030  0.92406  Biso   1.000  O
  O7       1.0000 0.88790  0.36970  0.82594  Biso   1.000  O
  O8       1.0000 0.11210  0.63030  0.32594  Biso   1.000  O
  C1       1.0000 0.17100  0.51570  0.11449  Biso   1.000  C
  C2       1.0000 0.82900  0.48430  0.61449  Biso   1.000  C
  C3       1.0000 0.67100  0.98430  0.63551  Biso   1.000  C
  C4       1.0000 0.32900  0.01570  0.13551  Biso   1.000  C
  C5       1.0000 0.48430  0.82900  0.38551  Biso   1.000  C
  C6       1.0000 0.51570  0.17100  0.88551  Biso   1.000  C
  C7       1.0000 0.01570  0.32900  0.86449  Biso   1.000  C
  C8       1.0000 0.98430  0.67100  0.36449  Biso   1.000  C
  H1       1.0000 0.28270  0.55970  0.10790  Biso   1.000  H
  H2       1.0000 0.71730  0.44030  0.60790  Biso   1.000  H
  H3       1.0000 0.78270  0.94030  0.64210  Biso   1.000  H
  H4       1.0000 0.21730  0.05970  0.14210  Biso   1.000  H
  H5       1.0000 0.44030  0.71730  0.39210  Biso   1.000  H
  H6       1.0000 0.55970  0.28270  0.89210  Biso   1.000  H
  H7       1.0000 0.05970  0.21730  0.85790  Biso   1.000  H
  H8       1.0000 0.94030  0.78270  0.35790  Biso   1.000  H
  O9       1.0000 0.07920  0.58870  0.15995  Biso   1.000  O
  O10      1.0000 0.92080  0.41130  0.65995  Biso   1.000  O
  O11      1.0000 0.57920  0.91130  0.59005  Biso   1.000  O
  O12      1.0000 0.42080  0.08870  0.09005  Biso   1.000  O
  O13      1.0000 0.41130  0.92080  0.34005  Biso   1.000  O
  O14      1.0000 0.58870  0.07920  0.84005  Biso   1.000  O
  O15      1.0000 0.08870  0.42080  0.90995  Biso   1.000  O
  O16      1.0000 0.91130  0.57920  0.40995  Biso   1.000  O
  N1       1.0000 0.08700  0.08700  0.00000  Biso   1.000  N
  N2       1.0000 0.91300  0.91300  0.50000  Biso   1.000  N
  N3       1.0000 0.58700  0.41300  0.75000  Biso   1.000  N
  N4       1.0000 0.41300  0.58700  0.25000  Biso   1.000  N
  C9       1.0000 0.91930  0.12390  0.00905  Biso   1.000  C
  C10      1.0000 0.08070  0.87610  0.50905  Biso   1.000  C
  C11      1.0000 0.41930  0.37610  0.74095  Biso   1.000  C
  C12      1.0000 0.58070  0.62390  0.24095  Biso   1.000  C
  C13      1.0000 0.87610  0.08070  0.49095  Biso   1.000  C
  C14      1.0000 0.12390  0.91930  0.99095  Biso   1.000  C
  C15      1.0000 0.62390  0.58070  0.75905  Biso   1.000  C
  C16      1.0000 0.37610  0.41930  0.25905  Biso   1.000  C
  H9       1.0000 0.88890  0.23990  0.01620  Biso   1.000  H
  H10      1.0000 0.11110  0.76010  0.51620  Biso   1.000  H
  H11      1.0000 0.38890  0.26010  0.73380  Biso   1.000  H
  H12      1.0000 0.61110  0.73990  0.23380  Biso   1.000  H
  H13      1.0000 0.76010  0.11110  0.48380  Biso   1.000  H
  H14      1.0000 0.23990  0.88890  0.98380  Biso   1.000  H
  H15      1.0000 0.73990  0.61110  0.76620  Biso   1.000  H
  H16      1.0000 0.26010  0.38890  0.26620  Biso   1.000  H
  C17      1.0000 0.78940  0.00440  0.00865  Biso   1.000  C
  C18      1.0000 0.21060  0.99560  0.50865  Biso   1.000  C
  C19      1.0000 0.28940  0.49560  0.74135  Biso   1.000  C
  C20      1.0000 0.71060  0.50440  0.24135  Biso   1.000  C
  C21      1.0000 0.99560  0.21060  0.49135  Biso   1.000  C
  C22      1.0000 0.00440  0.78940  0.99135  Biso   1.000  C
  C23      1.0000 0.50440  0.71060  0.75865  Biso   1.000  C
  C24      1.0000 0.49560  0.28940  0.25865  Biso   1.000  C
  H17      1.0000 0.67380  0.03800  0.01410  Biso   1.000  H
  H18      1.0000 0.32620  0.96200  0.51410  Biso   1.000  H
  H19      1.0000 0.17380  0.46200  0.73590  Biso   1.000  H
  H20      1.0000 0.82620  0.53800  0.23590  Biso   1.000  H
  H21      1.0000 0.96200  0.32620  0.48590  Biso   1.000  H
  H22      1.0000 0.03800  0.67380  0.98590  Biso   1.000  H
  H23      1.0000 0.53800  0.82620  0.76410  Biso   1.000  H
  H24      1.0000 0.46200  0.17380  0.26410  Biso   1.000  H
  C25      1.0000 0.83310  0.83310  0.00000  Biso   1.000  C
  C26      1.0000 0.16690  0.16690  0.50000  Biso   1.000  C
  C27      1.0000 0.33310  0.66690  0.75000  Biso   1.000  C
  C28      1.0000 0.66690  0.33310  0.25000  Biso   1.000  C
  C29      1.0000 0.69920  0.69920  0.00000  Biso   1.000  C
  C30      1.0000 0.30080  0.30080  0.50000  Biso   1.000  C
  C31      1.0000 0.19920  0.80080  0.75000  Biso   1.000  C
  C32      1.0000 0.80080  0.19920  0.25000  Biso   1.000  C
  C33      1.0000 0.55330  0.71480  0.95651  Biso   1.000  C
  C34      1.0000 0.44670  0.28520  0.45651  Biso   1.000  C
  C35      1.0000 0.05330  0.78520  0.79349  Biso   1.000  C
  C36      1.0000 0.94670  0.21480  0.29349  Biso   1.000  C
  C37      1.0000 0.28520  0.44670  0.54349  Biso   1.000  C
  C38      1.0000 0.71480  0.55330  0.04349  Biso   1.000  C
  C39      1.0000 0.21480  0.94670  0.70651  Biso   1.000  C
  C40      1.0000 0.78520  0.05330  0.20651  Biso   1.000  C
  H25      1.0000 0.53720  0.81270  0.92660  Biso   1.000  H
  H26      1.0000 0.46280  0.18730  0.42660  Biso   1.000  H
  H27      1.0000 0.03720  0.68730  0.82340  Biso   1.000  H
  H28      1.0000 0.96280  0.31270  0.32340  Biso   1.000  H
  H29      1.0000 0.18730  0.46280  0.57340  Biso   1.000  H
  H30      1.0000 0.81270  0.53720  0.07340  Biso   1.000  H
  H31      1.0000 0.31270  0.96280  0.67660  Biso   1.000  H
  H32      1.0000 0.68730  0.03720  0.17660  Biso   1.000  H
  C41      1.0000 0.43300  0.58720  0.95733  Biso   1.000  C
  C42      1.0000 0.56700  0.41280  0.45733  Biso   1.000  C
  C43      1.0000 0.93300  0.91280  0.79267  Biso   1.000  C
  C44      1.0000 0.06700  0.08720  0.29267  Biso   1.000  C
  C45      1.0000 0.41280  0.56700  0.54267  Biso   1.000  C
  C46      1.0000 0.58720  0.43300  0.04267  Biso   1.000  C
  C47      1.0000 0.08720  0.06700  0.70733  Biso   1.000  C
  C48      1.0000 0.91280  0.93300  0.20733  Biso   1.000  C
  H33      1.0000 0.33580  0.59790  0.92650  Biso   1.000  H
  H34      1.0000 0.66420  0.40210  0.42650  Biso   1.000  H
  H35      1.0000 0.83580  0.90210  0.82350  Biso   1.000  H
  H36      1.0000 0.16420  0.09790  0.32350  Biso   1.000  H
  H37      1.0000 0.40210  0.66420  0.57350  Biso   1.000  H
  H38      1.0000 0.59790  0.33580  0.07350  Biso   1.000  H
  H39      1.0000 0.09790  0.16420  0.67650  Biso   1.000  H
  H40      1.0000 0.90210  0.83580  0.17650  Biso   1.000  H
  N5       1.0000 0.44780  0.44780  0.00000  Biso   1.000  N
  N6       1.0000 0.55220  0.55220  0.50000  Biso   1.000  N
  N7       1.0000 0.94780  0.05220  0.75000  Biso   1.000  N
  N8       1.0000 0.05220  0.94780  0.25000  Biso   1.000  N
