data_image0
_cell_length_a       7.8534
_cell_length_b       7.8534
_cell_length_c       18.4799
_cell_angle_alpha    90
_cell_angle_beta     90
_cell_angle_gamma    90

_symmetry_space_group_name_H-M    "P 1"
_symmetry_int_tables_number       1

loop_
  _symmetry_equiv_pos_as_xyz
  'x, y, z'

loop_
  _atom_site_label
  _atom_site_occupancy
  _atom_site_fract_x
  _atom_site_fract_y
  _atom_site_fract_z
  _atom_site_thermal_displace_type
  _atom_site_B_iso_or_equiv
  _atom_site_type_symbol
  Cu1      1.0000 0.23734  0.23734  0.00000  Biso   1.000  Cu
  Cu2      1.0000 0.76266  0.76266  0.50000  Biso   1.000  Cu
  Cu3      1.0000 0.26266  0.73734  0.25000  Biso   1.000  Cu
  Cu4      1.0000 0.73734  0.26266  0.75000  Biso   1.000  Cu
  N1       1.0000 0.42017  0.42017  0.00000  Biso   1.000  N
  N2       1.0000 0.57983  0.57983  0.50000  Biso   1.000  N
  N3       1.0000 0.07983  0.92017  0.25000  Biso   1.000  N
  N4       1.0000 0.92017  0.07983  0.75000  Biso   1.000  N
  N5       1.0000 0.05590  0.05590  0.00000  Biso   1.000  N
  N6       1.0000 0.94410  0.94410  0.50000  Biso   1.000  N
  N7       1.0000 0.44410  0.55590  0.25000  Biso   1.000  N
  N8       1.0000 0.55590  0.44410  0.75000  Biso   1.000  N
  C1       1.0000 0.58390  0.38120  0.01085  Biso   1.000  C
  C2       1.0000 0.41610  0.61880  0.51085  Biso   1.000  C
  C3       1.0000 0.11880  0.08390  0.26085  Biso   1.000  C
  C4       1.0000 0.88120  0.91610  0.76085  Biso   1.000  C
  C5       1.0000 0.38120  0.58390  0.98915  Biso   1.000  C
  C6       1.0000 0.61880  0.41610  0.48915  Biso   1.000  C
  C7       1.0000 0.91610  0.88120  0.23915  Biso   1.000  C
  C8       1.0000 0.08390  0.11880  0.73915  Biso   1.000  C
  H1       1.0000 0.61210  0.26780  0.01890  Biso   1.000  H
  H2       1.0000 0.38790  0.73220  0.51890  Biso   1.000  H
  H3       1.0000 0.23220  0.11210  0.26890  Biso   1.000  H
  H4       1.0000 0.76780  0.88790  0.76890  Biso   1.000  H
  H5       1.0000 0.26780  0.61210  0.98110  Biso   1.000  H
  H6       1.0000 0.73220  0.38790  0.48110  Biso   1.000  H
  H7       1.0000 0.88790  0.76780  0.23110  Biso   1.000  H
  H8       1.0000 0.11210  0.23220  0.73110  Biso   1.000  H
  C9       1.0000 0.71380  0.50050  0.01080  Biso   1.000  C
  C10      1.0000 0.28620  0.49950  0.51080  Biso   1.000  C
  C11      1.0000 0.99950  0.21380  0.26080  Biso   1.000  C
  C12      1.0000 0.00050  0.78620  0.76080  Biso   1.000  C
  C13      1.0000 0.50050  0.71380  0.98920  Biso   1.000  C
  C14      1.0000 0.49950  0.28620  0.48920  Biso   1.000  C
  C15      1.0000 0.78620  0.00050  0.23920  Biso   1.000  C
  C16      1.0000 0.21380  0.99950  0.73920  Biso   1.000  C
  H9       1.0000 0.82640  0.46780  0.01780  Biso   1.000  H
  H10      1.0000 0.17360  0.53220  0.51780  Biso   1.000  H
  H11      1.0000 0.03220  0.32640  0.26780  Biso   1.000  H
  H12      1.0000 0.96780  0.67360  0.76780  Biso   1.000  H
  H13      1.0000 0.46780  0.82640  0.98220  Biso   1.000  H
  H14      1.0000 0.53220  0.17360  0.48220  Biso   1.000  H
  H15      1.0000 0.67360  0.96780  0.23220  Biso   1.000  H
  H16      1.0000 0.32640  0.03220  0.73220  Biso   1.000  H
  C17      1.0000 0.67100  0.67100  0.00000  Biso   1.000  C
  C18      1.0000 0.32900  0.32900  0.50000  Biso   1.000  C
  C19      1.0000 0.82900  0.17100  0.25000  Biso   1.000  C
  C20      1.0000 0.17100  0.82900  0.75000  Biso   1.000  C
  C21      1.0000 0.80510  0.80510  0.00000  Biso   1.000  C
  C22      1.0000 0.19490  0.19490  0.50000  Biso   1.000  C
  C23      1.0000 0.69490  0.30510  0.25000  Biso   1.000  C
  C24      1.0000 0.30510  0.69490  0.75000  Biso   1.000  C
  C25      1.0000 0.78820  0.95030  0.04225  Biso   1.000  C
  C26      1.0000 0.21180  0.04970  0.54225  Biso   1.000  C
  C27      1.0000 0.54970  0.28820  0.29225  Biso   1.000  C
  C28      1.0000 0.45030  0.71180  0.79225  Biso   1.000  C
  C29      1.0000 0.95030  0.78820  0.95775  Biso   1.000  C
  C30      1.0000 0.04970  0.21180  0.45775  Biso   1.000  C
  C31      1.0000 0.71180  0.45030  0.20775  Biso   1.000  C
  C32      1.0000 0.28820  0.54970  0.70775  Biso   1.000  C
  H17      1.0000 0.69190  0.96620  0.07080  Biso   1.000  H
  H18      1.0000 0.30810  0.03380  0.57080  Biso   1.000  H
  H19      1.0000 0.53380  0.19190  0.32080  Biso   1.000  H
  H20      1.0000 0.46620  0.80810  0.82080  Biso   1.000  H
  H21      1.0000 0.96620  0.69190  0.92920  Biso   1.000  H
  H22      1.0000 0.03380  0.30810  0.42920  Biso   1.000  H
  H23      1.0000 0.80810  0.46620  0.17920  Biso   1.000  H
  H24      1.0000 0.19190  0.53380  0.67920  Biso   1.000  H
  C33      1.0000 0.91650  0.07080  0.04132  Biso   1.000  C
  C34      1.0000 0.08350  0.92920  0.54132  Biso   1.000  C
  C35      1.0000 0.42920  0.41650  0.29132  Biso   1.000  C
  C36      1.0000 0.57080  0.58350  0.79132  Biso   1.000  C
  C37      1.0000 0.07080  0.91650  0.95868  Biso   1.000  C
  C38      1.0000 0.92920  0.08350  0.45868  Biso   1.000  C
  C39      1.0000 0.58350  0.57080  0.20868  Biso   1.000  C
  C40      1.0000 0.41650  0.42920  0.70868  Biso   1.000  C
  H25      1.0000 0.90560  0.16640  0.07070  Biso   1.000  H
  H26      1.0000 0.09440  0.83360  0.57070  Biso   1.000  H
  H27      1.0000 0.33360  0.40560  0.32070  Biso   1.000  H
  H28      1.0000 0.66640  0.59440  0.82070  Biso   1.000  H
  H29      1.0000 0.16640  0.90560  0.92930  Biso   1.000  H
  H30      1.0000 0.83360  0.09440  0.42930  Biso   1.000  H
  H31      1.0000 0.59440  0.66640  0.17930  Biso   1.000  H
  H32      1.0000 0.40560  0.33360  0.67930  Biso   1.000  H
  O1       1.0000 0.37397  0.11100  0.07207  Biso   1.000  O
  O2       1.0000 0.62603  0.88900  0.57207  Biso   1.000  O
  O3       1.0000 0.38900  0.87397  0.32207  Biso   1.000  O
  O4       1.0000 0.61100  0.12603  0.82207  Biso   1.000  O
  O5       1.0000 0.11100  0.37397  0.92793  Biso   1.000  O
  O6       1.0000 0.88900  0.62603  0.42793  Biso   1.000  O
  O7       1.0000 0.12603  0.61100  0.17793  Biso   1.000  O
  O8       1.0000 0.87397  0.38900  0.67793  Biso   1.000  O
  O9       1.0000 0.41730  0.91610  0.15710  Biso   1.000  O
  O10      1.0000 0.58270  0.08390  0.65710  Biso   1.000  O
  O11      1.0000 0.58390  0.91730  0.40710  Biso   1.000  O
  O12      1.0000 0.41610  0.08270  0.90710  Biso   1.000  O
  O13      1.0000 0.91610  0.41730  0.84290  Biso   1.000  O
  O14      1.0000 0.08390  0.58270  0.34290  Biso   1.000  O
  O15      1.0000 0.08270  0.41610  0.09290  Biso   1.000  O
  O16      1.0000 0.91730  0.58390  0.59290  Biso   1.000  O
  C41      1.0000 0.33020  0.99620  0.11448  Biso   1.000  C
  C42      1.0000 0.66980  0.00380  0.61448  Biso   1.000  C
  C43      1.0000 0.50380  0.83020  0.36448  Biso   1.000  C
  C44      1.0000 0.49620  0.16980  0.86448  Biso   1.000  C
  C45      1.0000 0.99620  0.33020  0.88552  Biso   1.000  C
  C46      1.0000 0.00380  0.66980  0.38552  Biso   1.000  C
  C47      1.0000 0.16980  0.49620  0.13552  Biso   1.000  C
  C48      1.0000 0.83020  0.50380  0.63552  Biso   1.000  C
  H33      1.0000 0.21530  0.96760  0.11350  Biso   1.000  H
  H34      1.0000 0.78470  0.03240  0.61350  Biso   1.000  H
  H35      1.0000 0.53240  0.71530  0.36350  Biso   1.000  H
  H36      1.0000 0.46760  0.28470  0.86350  Biso   1.000  H
  H37      1.0000 0.96760  0.21530  0.88650  Biso   1.000  H
  H38      1.0000 0.03240  0.78470  0.38650  Biso   1.000  H
  H39      1.0000 0.28470  0.46760  0.13650  Biso   1.000  H
  H40      1.0000 0.71530  0.53240  0.63650  Biso   1.000  H
