data_image0
_cell_length_a       11.5867
_cell_length_b       7.6801
_cell_length_c       8.5641
_cell_angle_alpha    90
_cell_angle_beta     90.338
_cell_angle_gamma    90

_symmetry_space_group_name_H-M    "P 1"
_symmetry_int_tables_number       1

loop_
  _symmetry_equiv_pos_as_xyz
  'x, y, z'

loop_
  _atom_site_label
  _atom_site_occupancy
  _atom_site_fract_x
  _atom_site_fract_y
  _atom_site_fract_z
  _atom_site_thermal_displace_type
  _atom_site_B_iso_or_equiv
  _atom_site_type_symbol
  Cu1      1.0000 0.25000  0.25000  0.00000  Biso   1.000  Cu
  Cu2      1.0000 0.75000  0.75000  0.00000  Biso   1.000  Cu
  Cu3      1.0000 0.75000  0.25000  0.50000  Biso   1.000  Cu
  Cu4      1.0000 0.25000  0.75000  0.50000  Biso   1.000  Cu
  O1       1.0000 0.14812  0.01170  0.88900  Biso   1.000  O
  O2       1.0000 0.64812  0.51170  0.88900  Biso   1.000  O
  O3       1.0000 0.85188  0.01170  0.61100  Biso   1.000  O
  O4       1.0000 0.35188  0.51170  0.61100  Biso   1.000  O
  O5       1.0000 0.85188  0.98830  0.11100  Biso   1.000  O
  O6       1.0000 0.35188  0.48830  0.11100  Biso   1.000  O
  O7       1.0000 0.14812  0.98830  0.38900  Biso   1.000  O
  O8       1.0000 0.64812  0.48830  0.38900  Biso   1.000  O
  O9       1.0000 0.21146  0.82740  0.71040  Biso   1.000  O
  O10      1.0000 0.71146  0.32740  0.71040  Biso   1.000  O
  O11      1.0000 0.78854  0.82740  0.78960  Biso   1.000  O
  O12      1.0000 0.28854  0.32740  0.78960  Biso   1.000  O
  O13      1.0000 0.78854  0.17260  0.28960  Biso   1.000  O
  O14      1.0000 0.28854  0.67260  0.28960  Biso   1.000  O
  O15      1.0000 0.21146  0.17260  0.21040  Biso   1.000  O
  O16      1.0000 0.71146  0.67260  0.21040  Biso   1.000  O
  N1       1.0000 0.39871  0.09830  0.00246  Biso   1.000  N
  N2       1.0000 0.89871  0.59830  0.00246  Biso   1.000  N
  N3       1.0000 0.60129  0.09830  0.49754  Biso   1.000  N
  N4       1.0000 0.10129  0.59830  0.49754  Biso   1.000  N
  N5       1.0000 0.60129  0.90170  0.99754  Biso   1.000  N
  N6       1.0000 0.10129  0.40170  0.99754  Biso   1.000  N
  N7       1.0000 0.39871  0.90170  0.50246  Biso   1.000  N
  N8       1.0000 0.89871  0.40170  0.50246  Biso   1.000  N
  C1       1.0000 0.50223  0.17230  0.98970  Biso   1.000  C
  C2       1.0000 0.00223  0.67230  0.98970  Biso   1.000  C
  C3       1.0000 0.49777  0.17230  0.51030  Biso   1.000  C
  C4       1.0000 0.99777  0.67230  0.51030  Biso   1.000  C
  C5       1.0000 0.49777  0.82770  0.01030  Biso   1.000  C
  C6       1.0000 0.99777  0.32770  0.01030  Biso   1.000  C
  C7       1.0000 0.50223  0.82770  0.48970  Biso   1.000  C
  C8       1.0000 0.00223  0.32770  0.48970  Biso   1.000  C
  H1       1.0000 0.50710  0.29290  0.98170  Biso   1.000  H
  H2       1.0000 0.00710  0.79290  0.98170  Biso   1.000  H
  H3       1.0000 0.49290  0.29290  0.51830  Biso   1.000  H
  H4       1.0000 0.99290  0.79290  0.51830  Biso   1.000  H
  H5       1.0000 0.49290  0.70710  0.01830  Biso   1.000  H
  H6       1.0000 0.99290  0.20710  0.01830  Biso   1.000  H
  H7       1.0000 0.50710  0.70710  0.48170  Biso   1.000  H
  H8       1.0000 0.00710  0.20710  0.48170  Biso   1.000  H
  C9       1.0000 0.39718  0.92520  0.01190  Biso   1.000  C
  C10      1.0000 0.89718  0.42520  0.01190  Biso   1.000  C
  C11      1.0000 0.60282  0.92520  0.48810  Biso   1.000  C
  C12      1.0000 0.10282  0.42520  0.48810  Biso   1.000  C
  C13      1.0000 0.60282  0.07480  0.98810  Biso   1.000  C
  C14      1.0000 0.10282  0.57480  0.98810  Biso   1.000  C
  C15      1.0000 0.39718  0.07480  0.51190  Biso   1.000  C
  C16      1.0000 0.89718  0.57480  0.51190  Biso   1.000  C
  H9       1.0000 0.32660  0.86820  0.01980  Biso   1.000  H
  H10      1.0000 0.82660  0.36820  0.01980  Biso   1.000  H
  H11      1.0000 0.67340  0.86820  0.48020  Biso   1.000  H
  H12      1.0000 0.17340  0.36820  0.48020  Biso   1.000  H
  H13      1.0000 0.67340  0.13180  0.98020  Biso   1.000  H
  H14      1.0000 0.17340  0.63180  0.98020  Biso   1.000  H
  H15      1.0000 0.32660  0.13180  0.51980  Biso   1.000  H
  H16      1.0000 0.82660  0.63180  0.51980  Biso   1.000  H
  C17      1.0000 0.16564  0.96700  0.75290  Biso   1.000  C
  C18      1.0000 0.66564  0.46700  0.75290  Biso   1.000  C
  C19      1.0000 0.83436  0.96700  0.74710  Biso   1.000  C
  C20      1.0000 0.33436  0.46700  0.74710  Biso   1.000  C
  C21      1.0000 0.83436  0.03300  0.24710  Biso   1.000  C
  C22      1.0000 0.33436  0.53300  0.24710  Biso   1.000  C
  C23      1.0000 0.16564  0.03300  0.25290  Biso   1.000  C
  C24      1.0000 0.66564  0.53300  0.25290  Biso   1.000  C
  H17      1.0000 0.14280  0.04400  0.67480  Biso   1.000  H
  H18      1.0000 0.64280  0.54400  0.67480  Biso   1.000  H
  H19      1.0000 0.85720  0.04400  0.82520  Biso   1.000  H
  H20      1.0000 0.35720  0.54400  0.82520  Biso   1.000  H
  H21      1.0000 0.85720  0.95600  0.32520  Biso   1.000  H
  H22      1.0000 0.35720  0.45600  0.32520  Biso   1.000  H
  H23      1.0000 0.14280  0.95600  0.17480  Biso   1.000  H
  H24      1.0000 0.64280  0.45600  0.17480  Biso   1.000  H
