data_image0
_cell_length_a       6.541
_cell_length_b       7.344
_cell_length_c       11.309
_cell_angle_alpha    108.347
_cell_angle_beta     93.974
_cell_angle_gamma    91.668

_symmetry_space_group_name_H-M    "P 1"
_symmetry_int_tables_number       1

loop_
  _symmetry_equiv_pos_as_xyz
  'x, y, z'

loop_
  _atom_site_label
  _atom_site_occupancy
  _atom_site_fract_x
  _atom_site_fract_y
  _atom_site_fract_z
  _atom_site_thermal_displace_type
  _atom_site_B_iso_or_equiv
  _atom_site_type_symbol
  Cu1      1.0000 0.27003  0.09199  0.97112  Biso   1.000  Cu
  Cu2      1.0000 0.72997  0.90801  0.02888  Biso   1.000  Cu
  O1       1.0000 0.58550  0.30580  0.30170  Biso   1.000  O
  O2       1.0000 0.41450  0.69420  0.69830  Biso   1.000  O
  O3       1.0000 0.50630  0.19900  0.09660  Biso   1.000  O
  O4       1.0000 0.49370  0.80100  0.90340  Biso   1.000  O
  O5       1.0000 0.65360  0.85510  0.17840  Biso   1.000  O
  O6       1.0000 0.34640  0.14490  0.82160  Biso   1.000  O
  O7       1.0000 0.75860  0.89190  0.37590  Biso   1.000  O
  O8       1.0000 0.24140  0.10810  0.62410  Biso   1.000  O
  O9       1.0000 0.25440  0.64860  0.44580  Biso   1.000  O
  O10      1.0000 0.74560  0.35140  0.55420  Biso   1.000  O
  N1       1.0000 0.15600  0.06880  0.11550  Biso   1.000  N
  N2       1.0000 0.84400  0.93120  0.88450  Biso   1.000  N
  N3       1.0000 0.97780  0.99650  0.13290  Biso   1.000  N
  N4       1.0000 0.02220  0.00350  0.86710  Biso   1.000  N
  N5       1.0000 0.17970  0.60130  0.31180  Biso   1.000  N
  N6       1.0000 0.82030  0.39870  0.68820  Biso   1.000  N
  C1       1.0000 0.47140  0.21880  0.21180  Biso   1.000  C
  C2       1.0000 0.52860  0.78120  0.78820  Biso   1.000  C
  C3       1.0000 0.27010  0.12890  0.22440  Biso   1.000  C
  C4       1.0000 0.72990  0.87110  0.77560  Biso   1.000  C
  C5       1.0000 0.78370  0.91450  0.27590  Biso   1.000  C
  C6       1.0000 0.21630  0.08550  0.72410  Biso   1.000  C
  C7       1.0000 0.97670  0.00720  0.25240  Biso   1.000  C
  C8       1.0000 0.02330  0.99280  0.74760  Biso   1.000  C
  C9       1.0000 0.16180  0.09170  0.31560  Biso   1.000  C
  C10      1.0000 0.83820  0.90830  0.68440  Biso   1.000  C
  H1       1.0000 0.20400  0.11500  0.39940  Biso   1.000  H
  H2       1.0000 0.79600  0.88500  0.60060  Biso   1.000  H
  C11      1.0000 0.29900  0.64460  0.23330  Biso   1.000  C
  C12      1.0000 0.70100  0.35540  0.76670  Biso   1.000  C
  H3       1.0000 0.42890  0.70290  0.26240  Biso   1.000  H
  H4       1.0000 0.57110  0.29710  0.73760  Biso   1.000  H
  C13      1.0000 0.23270  0.60440  0.11000  Biso   1.000  C
  C14      1.0000 0.76730  0.39560  0.89000  Biso   1.000  C
  H5       1.0000 0.31820  0.63380  0.05540  Biso   1.000  H
  H6       1.0000 0.68180  0.36620  0.94460  Biso   1.000  H
  C15      1.0000 0.03970  0.52060  0.06650  Biso   1.000  C
  C16      1.0000 0.96030  0.47940  0.93350  Biso   1.000  C
  C17      1.0000 0.92000  0.47390  0.14990  Biso   1.000  C
  C18      1.0000 0.08000  0.52610  0.85010  Biso   1.000  C
  H7       1.0000 0.79010  0.41420  0.12310  Biso   1.000  H
  H8       1.0000 0.20990  0.58580  0.87690  Biso   1.000  H
  C19      1.0000 0.99360  0.51610  0.27170  Biso   1.000  C
  C20      1.0000 0.00640  0.48390  0.72830  Biso   1.000  C
  H9       1.0000 0.91270  0.48490  0.32780  Biso   1.000  H
  H10      1.0000 0.08730  0.51510  0.67220  Biso   1.000  H
  H11      1.0000 0.65000  0.81000  0.37300  Biso   1.000  H
  H12      1.0000 0.35000  0.19000  0.62700  Biso   1.000  H
