data_image0
_cell_length_a       11.2861
_cell_length_b       13.9823
_cell_length_c       11.9367
_cell_angle_alpha    90
_cell_angle_beta     91.985
_cell_angle_gamma    90

_symmetry_space_group_name_H-M    "P 1"
_symmetry_int_tables_number       1

loop_
  _symmetry_equiv_pos_as_xyz
  'x, y, z'

loop_
  _atom_site_label
  _atom_site_occupancy
  _atom_site_fract_x
  _atom_site_fract_y
  _atom_site_fract_z
  _atom_site_thermal_displace_type
  _atom_site_B_iso_or_equiv
  _atom_site_type_symbol
  Cu1      1.0000 0.00000  0.50000  0.00000  Biso   1.000  Cu
  Cu2      1.0000 0.00000  0.00000  0.50000  Biso   1.000  Cu
  C1       1.0000 0.91530  0.31966  0.05770  Biso   1.000  C
  C2       1.0000 0.08470  0.81966  0.44230  Biso   1.000  C
  C3       1.0000 0.08470  0.68034  0.94230  Biso   1.000  C
  C4       1.0000 0.91530  0.18034  0.55770  Biso   1.000  C
  C5       1.0000 0.79800  0.34544  0.02470  Biso   1.000  C
  C6       1.0000 0.20200  0.84544  0.47530  Biso   1.000  C
  C7       1.0000 0.20200  0.65456  0.97530  Biso   1.000  C
  C8       1.0000 0.79800  0.15456  0.52470  Biso   1.000  C
  C9       1.0000 0.70080  0.29140  0.06280  Biso   1.000  C
  C10      1.0000 0.29920  0.79140  0.43720  Biso   1.000  C
  C11      1.0000 0.29920  0.70860  0.93720  Biso   1.000  C
  C12      1.0000 0.70080  0.20860  0.56280  Biso   1.000  C
  H1       1.0000 0.62430  0.30810  0.03870  Biso   1.000  H
  H2       1.0000 0.37570  0.80810  0.46130  Biso   1.000  H
  H3       1.0000 0.37570  0.69190  0.96130  Biso   1.000  H
  H4       1.0000 0.62430  0.19190  0.53870  Biso   1.000  H
  C13      1.0000 0.71660  0.21610  0.13340  Biso   1.000  C
  C14      1.0000 0.28340  0.71610  0.36660  Biso   1.000  C
  C15      1.0000 0.28340  0.78390  0.86660  Biso   1.000  C
  C16      1.0000 0.71660  0.28390  0.63340  Biso   1.000  C
  C17      1.0000 0.83270  0.18970  0.16370  Biso   1.000  C
  C18      1.0000 0.16730  0.68970  0.33630  Biso   1.000  C
  C19      1.0000 0.16730  0.81030  0.83630  Biso   1.000  C
  C20      1.0000 0.83270  0.31030  0.66370  Biso   1.000  C
  H5       1.0000 0.84480  0.13740  0.21070  Biso   1.000  H
  H6       1.0000 0.15520  0.63740  0.28930  Biso   1.000  H
  H7       1.0000 0.15520  0.86260  0.78930  Biso   1.000  H
  H8       1.0000 0.84480  0.36260  0.71070  Biso   1.000  H
  C21      1.0000 0.92970  0.23830  0.12660  Biso   1.000  C
  C22      1.0000 0.07030  0.73830  0.37340  Biso   1.000  C
  C23      1.0000 0.07030  0.76170  0.87340  Biso   1.000  C
  C24      1.0000 0.92970  0.26170  0.62660  Biso   1.000  C
  H9       1.0000 0.00560  0.21730  0.14720  Biso   1.000  H
  H10      1.0000 0.99440  0.71730  0.35280  Biso   1.000  H
  H11      1.0000 0.99440  0.78270  0.85280  Biso   1.000  H
  H12      1.0000 0.00560  0.28270  0.64720  Biso   1.000  H
  C25      1.0000 0.79930  0.54003  0.83080  Biso   1.000  C
  C26      1.0000 0.20070  0.04003  0.66920  Biso   1.000  C
  C27      1.0000 0.20070  0.45997  0.16920  Biso   1.000  C
  C28      1.0000 0.79930  0.95997  0.33080  Biso   1.000  C
  C29      1.0000 0.87910  0.57010  0.75340  Biso   1.000  C
  C30      1.0000 0.12090  0.07010  0.74660  Biso   1.000  C
  C31      1.0000 0.12090  0.42990  0.24660  Biso   1.000  C
  C32      1.0000 0.87910  0.92990  0.25340  Biso   1.000  C
  H13      1.0000 0.95720  0.54880  0.75810  Biso   1.000  H
  H14      1.0000 0.04280  0.04880  0.74190  Biso   1.000  H
  H15      1.0000 0.04280  0.45120  0.24190  Biso   1.000  H
  H16      1.0000 0.95720  0.95120  0.25810  Biso   1.000  H
  C33      1.0000 0.84300  0.63170  0.66920  Biso   1.000  C
  C34      1.0000 0.15700  0.13170  0.83080  Biso   1.000  C
  C35      1.0000 0.15700  0.36830  0.33080  Biso   1.000  C
  C36      1.0000 0.84300  0.86830  0.16920  Biso   1.000  C
  H17      1.0000 0.89600  0.65090  0.61560  Biso   1.000  H
  H18      1.0000 0.10400  0.15090  0.88440  Biso   1.000  H
  H19      1.0000 0.10400  0.34910  0.38440  Biso   1.000  H
  H20      1.0000 0.89600  0.84910  0.11560  Biso   1.000  H
  C37      1.0000 0.72800  0.66469  0.66460  Biso   1.000  C
  C38      1.0000 0.27200  0.16469  0.83540  Biso   1.000  C
  C39      1.0000 0.27200  0.33531  0.33540  Biso   1.000  C
  C40      1.0000 0.72800  0.83531  0.16460  Biso   1.000  C
  C41      1.0000 0.64820  0.63583  0.74210  Biso   1.000  C
  C42      1.0000 0.35180  0.13583  0.75790  Biso   1.000  C
  C43      1.0000 0.35180  0.36417  0.25790  Biso   1.000  C
  C44      1.0000 0.64820  0.86417  0.24210  Biso   1.000  C
  H21      1.0000 0.57090  0.65900  0.73860  Biso   1.000  H
  H22      1.0000 0.42910  0.15900  0.76140  Biso   1.000  H
  H23      1.0000 0.42910  0.34100  0.26140  Biso   1.000  H
  H24      1.0000 0.57090  0.84100  0.23860  Biso   1.000  H
  C45      1.0000 0.68360  0.57210  0.82550  Biso   1.000  C
  C46      1.0000 0.31640  0.07210  0.67450  Biso   1.000  C
  C47      1.0000 0.31640  0.42790  0.17450  Biso   1.000  C
  C48      1.0000 0.68360  0.92790  0.32550  Biso   1.000  C
  H25      1.0000 0.62980  0.55110  0.87740  Biso   1.000  H
  H26      1.0000 0.37020  0.05110  0.62260  Biso   1.000  H
  H27      1.0000 0.37020  0.44890  0.12260  Biso   1.000  H
  H28      1.0000 0.62980  0.94890  0.37740  Biso   1.000  H
  C49      1.0000 0.76830  0.90300  0.65520  Biso   1.000  C
  C50      1.0000 0.23170  0.40300  0.84480  Biso   1.000  C
  C51      1.0000 0.23170  0.09700  0.34480  Biso   1.000  C
  C52      1.0000 0.76830  0.59700  0.15520  Biso   1.000  C
  C53      1.0000 0.67680  0.92760  0.72540  Biso   1.000  C
  C54      1.0000 0.32320  0.42760  0.77460  Biso   1.000  C
  C55      1.0000 0.32320  0.07240  0.27460  Biso   1.000  C
  C56      1.0000 0.67680  0.57240  0.22540  Biso   1.000  C
  H29      1.0000 0.60150  0.90060  0.72630  Biso   1.000  H
  H30      1.0000 0.39850  0.40060  0.77370  Biso   1.000  H
  H31      1.0000 0.39850  0.09940  0.27370  Biso   1.000  H
  H32      1.0000 0.60150  0.59940  0.22630  Biso   1.000  H
  C57      1.0000 0.71880  0.99710  0.79020  Biso   1.000  C
  C58      1.0000 0.28120  0.49710  0.70980  Biso   1.000  C
  C59      1.0000 0.28120  0.00290  0.20980  Biso   1.000  C
  C60      1.0000 0.71880  0.50290  0.29020  Biso   1.000  C
  C61      1.0000 0.67290  0.05390  0.88390  Biso   1.000  C
  C62      1.0000 0.32710  0.55390  0.61610  Biso   1.000  C
  C63      1.0000 0.32710  0.94610  0.11610  Biso   1.000  C
  C64      1.0000 0.67290  0.44610  0.38390  Biso   1.000  C
  H33      1.0000 0.59680  0.02960  0.90350  Biso   1.000  H
  H34      1.0000 0.40320  0.52960  0.59650  Biso   1.000  H
  H35      1.0000 0.40320  0.97040  0.09650  Biso   1.000  H
  H36      1.0000 0.59680  0.47040  0.40350  Biso   1.000  H
  H37      1.0000 0.66530  0.11960  0.86140  Biso   1.000  H
  H38      1.0000 0.33470  0.61960  0.63860  Biso   1.000  H
  H39      1.0000 0.33470  0.88040  0.13860  Biso   1.000  H
  H40      1.0000 0.66530  0.38040  0.36140  Biso   1.000  H
  H41      1.0000 0.72700  0.04940  0.94760  Biso   1.000  H
  H42      1.0000 0.27300  0.54940  0.55240  Biso   1.000  H
  H43      1.0000 0.27300  0.95060  0.05240  Biso   1.000  H
  H44      1.0000 0.72700  0.45060  0.44760  Biso   1.000  H
  C65      1.0000 0.61260  0.16040  0.17660  Biso   1.000  C
  C66      1.0000 0.38740  0.66040  0.32340  Biso   1.000  C
  C67      1.0000 0.38740  0.83960  0.82340  Biso   1.000  C
  C68      1.0000 0.61260  0.33960  0.67660  Biso   1.000  C
  H45      1.0000 0.54000  0.18690  0.14610  Biso   1.000  H
  H46      1.0000 0.46000  0.68690  0.35390  Biso   1.000  H
  H47      1.0000 0.46000  0.81310  0.85390  Biso   1.000  H
  H48      1.0000 0.54000  0.31310  0.64610  Biso   1.000  H
  H49      1.0000 0.61320  0.16420  0.25690  Biso   1.000  H
  H50      1.0000 0.38680  0.66420  0.24310  Biso   1.000  H
  H51      1.0000 0.38680  0.83580  0.74310  Biso   1.000  H
  H52      1.0000 0.61320  0.33580  0.75690  Biso   1.000  H
  H53      1.0000 0.61880  0.09470  0.15420  Biso   1.000  H
  H54      1.0000 0.38120  0.59470  0.34580  Biso   1.000  H
  H55      1.0000 0.38120  0.90530  0.84580  Biso   1.000  H
  H56      1.0000 0.61880  0.40530  0.65420  Biso   1.000  H
  H57      1.0000 0.83600  0.82900  0.54600  Biso   1.000  H
  H58      1.0000 0.16400  0.32900  0.95400  Biso   1.000  H
  H59      1.0000 0.16400  0.17100  0.45400  Biso   1.000  H
  H60      1.0000 0.83600  0.67100  0.04600  Biso   1.000  H
  N1       1.0000 0.86100  0.95690  0.67260  Biso   1.000  N
  N2       1.0000 0.13900  0.45690  0.82740  Biso   1.000  N
  N3       1.0000 0.13900  0.04310  0.32740  Biso   1.000  N
  N4       1.0000 0.86100  0.54310  0.17260  Biso   1.000  N
  N5       1.0000 0.77170  0.83678  0.56930  Biso   1.000  N
  N6       1.0000 0.22830  0.33678  0.93070  Biso   1.000  N
  N7       1.0000 0.22830  0.16322  0.43070  Biso   1.000  N
  N8       1.0000 0.77170  0.66322  0.06930  Biso   1.000  N
  N9       1.0000 0.84360  0.47626  0.91772  Biso   1.000  N
  N10      1.0000 0.15640  0.97626  0.58228  Biso   1.000  N
  N11      1.0000 0.15640  0.52374  0.08228  Biso   1.000  N
  N12      1.0000 0.84360  0.02374  0.41772  Biso   1.000  N
  N13      1.0000 0.76610  0.41625  0.94773  Biso   1.000  N
  N14      1.0000 0.23390  0.91625  0.55227  Biso   1.000  N
  N15      1.0000 0.23390  0.58375  0.05227  Biso   1.000  N
  N16      1.0000 0.76610  0.08375  0.44773  Biso   1.000  N
  O1       1.0000 0.82960  0.01817  0.76050  Biso   1.000  O
  O2       1.0000 0.17040  0.51817  0.73950  Biso   1.000  O
  O3       1.0000 0.17040  0.98183  0.23950  Biso   1.000  O
  O4       1.0000 0.82960  0.48183  0.26050  Biso   1.000  O
  O5       1.0000 0.71570  0.70189  0.45153  Biso   1.000  O
  O6       1.0000 0.28430  0.20189  0.04847  Biso   1.000  O
  O7       1.0000 0.28430  0.29811  0.54847  Biso   1.000  O
  O8       1.0000 0.71570  0.79811  0.95153  Biso   1.000  O
  O9       1.0000 0.56660  0.77382  0.57330  Biso   1.000  O
  O10      1.0000 0.43340  0.27382  0.92670  Biso   1.000  O
  O11      1.0000 0.43340  0.22618  0.42670  Biso   1.000  O
  O12      1.0000 0.56660  0.72618  0.07330  Biso   1.000  O
  O13      1.0000 0.00933  0.36631  0.02556  Biso   1.000  O
  O14      1.0000 0.99067  0.86631  0.47444  Biso   1.000  O
  O15      1.0000 0.99067  0.63369  0.97444  Biso   1.000  O
  O16      1.0000 0.00933  0.13369  0.52556  Biso   1.000  O
  S1       1.0000 0.68511  0.74412  0.55524  Biso   1.000  S
  S2       1.0000 0.31489  0.24412  0.94476  Biso   1.000  S
  S3       1.0000 0.31489  0.25588  0.44476  Biso   1.000  S
  S4       1.0000 0.68511  0.75588  0.05524  Biso   1.000  S
