data_image0
_cell_length_a       7.3291
_cell_length_b       14.643
_cell_length_c       16.161
_cell_angle_alpha    90
_cell_angle_beta     96.731
_cell_angle_gamma    90

_symmetry_space_group_name_H-M    "P 1"
_symmetry_int_tables_number       1

loop_
  _symmetry_equiv_pos_as_xyz
  'x, y, z'

loop_
  _atom_site_label
  _atom_site_occupancy
  _atom_site_fract_x
  _atom_site_fract_y
  _atom_site_fract_z
  _atom_site_thermal_displace_type
  _atom_site_B_iso_or_equiv
  _atom_site_type_symbol
  Cu1      1.0000 0.27048  0.43074  0.10453  Biso   1.000  Cu
  Cu2      1.0000 0.77048  0.06926  0.60453  Biso   1.000  Cu
  Cu3      1.0000 0.72952  0.56926  0.89547  Biso   1.000  Cu
  Cu4      1.0000 0.22952  0.93074  0.39547  Biso   1.000  Cu
  Cl1      1.0000 0.50000  0.50000  0.00000  Biso   1.000  Cl
  Cl2      1.0000 0.00000  0.00000  0.50000  Biso   1.000  Cl
  N1       1.0000 0.13520  0.35660  0.00950  Biso   1.000  N
  N2       1.0000 0.63520  0.14340  0.50950  Biso   1.000  N
  N3       1.0000 0.86480  0.64340  0.99050  Biso   1.000  N
  N4       1.0000 0.36480  0.85660  0.49050  Biso   1.000  N
  O1       1.0000 0.88320  0.46510  0.89900  Biso   1.000  O
  O2       1.0000 0.38320  0.03490  0.39900  Biso   1.000  O
  O3       1.0000 0.11680  0.53490  0.10100  Biso   1.000  O
  O4       1.0000 0.61680  0.96510  0.60100  Biso   1.000  O
  N5       1.0000 0.38420  0.31520  0.13240  Biso   1.000  N
  N6       1.0000 0.88420  0.18480  0.63240  Biso   1.000  N
  N7       1.0000 0.61580  0.68480  0.86760  Biso   1.000  N
  N8       1.0000 0.11580  0.81520  0.36760  Biso   1.000  N
  C1       1.0000 0.79530  0.38570  0.88160  Biso   1.000  C
  C2       1.0000 0.29530  0.11430  0.38160  Biso   1.000  C
  C3       1.0000 0.20470  0.61430  0.11840  Biso   1.000  C
  C4       1.0000 0.70470  0.88570  0.61840  Biso   1.000  C
  C5       1.0000 0.82080  0.31420  0.94020  Biso   1.000  C
  C6       1.0000 0.32080  0.18580  0.44020  Biso   1.000  C
  C7       1.0000 0.17920  0.68580  0.05980  Biso   1.000  C
  C8       1.0000 0.67920  0.81420  0.55980  Biso   1.000  C
  N9       1.0000 0.43530  0.46970  0.20890  Biso   1.000  N
  N10      1.0000 0.93530  0.03030  0.70890  Biso   1.000  N
  N11      1.0000 0.56470  0.53030  0.79110  Biso   1.000  N
  N12      1.0000 0.06470  0.96970  0.29110  Biso   1.000  N
  C9       1.0000 0.36250  0.24860  0.07620  Biso   1.000  C
  C10      1.0000 0.86250  0.25140  0.57620  Biso   1.000  C
  C11      1.0000 0.63750  0.75140  0.92380  Biso   1.000  C
  C12      1.0000 0.13750  0.74860  0.42380  Biso   1.000  C
  C13      1.0000 0.48440  0.30450  0.20560  Biso   1.000  C
  C14      1.0000 0.98440  0.19550  0.70560  Biso   1.000  C
  C15      1.0000 0.51560  0.69550  0.79440  Biso   1.000  C
  C16      1.0000 0.01560  0.80450  0.29440  Biso   1.000  C
  C17      1.0000 0.55120  0.15510  0.17080  Biso   1.000  C
  C18      1.0000 0.05120  0.34490  0.67080  Biso   1.000  C
  C19      1.0000 0.44880  0.84490  0.82920  Biso   1.000  C
  C20      1.0000 0.94880  0.65510  0.32920  Biso   1.000  C
  H1       1.0000 0.60800  0.09940  0.18430  Biso   1.000  H
  H2       1.0000 0.10800  0.40060  0.68430  Biso   1.000  H
  H3       1.0000 0.39200  0.90060  0.81570  Biso   1.000  H
  H4       1.0000 0.89200  0.59940  0.31570  Biso   1.000  H
  C21      1.0000 0.58380  0.28940  0.79470  Biso   1.000  C
  C22      1.0000 0.08380  0.21060  0.29470  Biso   1.000  C
  C23      1.0000 0.41620  0.71060  0.20530  Biso   1.000  C
  C24      1.0000 0.91620  0.78940  0.70530  Biso   1.000  C
  H5       1.0000 0.50370  0.28140  0.74620  Biso   1.000  H
  H6       1.0000 0.00370  0.21860  0.24620  Biso   1.000  H
  H7       1.0000 0.49630  0.71860  0.25380  Biso   1.000  H
  H8       1.0000 0.99630  0.78140  0.75380  Biso   1.000  H
  C25      1.0000 0.94000  0.33080  0.02090  Biso   1.000  C
  C26      1.0000 0.44000  0.16920  0.52090  Biso   1.000  C
  C27      1.0000 0.06000  0.66920  0.97910  Biso   1.000  C
  C28      1.0000 0.56000  0.83080  0.47910  Biso   1.000  C
  H9       1.0000 0.94200  0.27610  0.05470  Biso   1.000  H
  H10      1.0000 0.44200  0.22390  0.55470  Biso   1.000  H
  H11      1.0000 0.05800  0.72390  0.94530  Biso   1.000  H
  H12      1.0000 0.55800  0.77610  0.44530  Biso   1.000  H
  H13      1.0000 0.88620  0.37940  0.05080  Biso   1.000  H
  H14      1.0000 0.38620  0.12060  0.55080  Biso   1.000  H
  H15      1.0000 0.11380  0.62060  0.94920  Biso   1.000  H
  H16      1.0000 0.61380  0.87940  0.44920  Biso   1.000  H
  C29      1.0000 0.60830  0.21880  0.85030  Biso   1.000  C
  C30      1.0000 0.10830  0.28120  0.35030  Biso   1.000  C
  C31      1.0000 0.39170  0.78120  0.14970  Biso   1.000  C
  C32      1.0000 0.89170  0.71880  0.64970  Biso   1.000  C
  C33      1.0000 0.24940  0.27500  0.99630  Biso   1.000  C
  C34      1.0000 0.74940  0.22500  0.49630  Biso   1.000  C
  C35      1.0000 0.75060  0.72500  0.00370  Biso   1.000  C
  C36      1.0000 0.25060  0.77500  0.50370  Biso   1.000  C
  H17      1.0000 0.32970  0.28850  0.95420  Biso   1.000  H
  H18      1.0000 0.82970  0.21150  0.45420  Biso   1.000  H
  H19      1.0000 0.67030  0.71150  0.04580  Biso   1.000  H
  H20      1.0000 0.17030  0.78850  0.54580  Biso   1.000  H
  H21      1.0000 0.17040  0.22450  0.97640  Biso   1.000  H
  H22      1.0000 0.67040  0.27550  0.47640  Biso   1.000  H
  H23      1.0000 0.82960  0.77550  0.02360  Biso   1.000  H
  H24      1.0000 0.32960  0.72450  0.52360  Biso   1.000  H
  C37      1.0000 0.35560  0.55030  0.25070  Biso   1.000  C
  C38      1.0000 0.85560  0.94970  0.75070  Biso   1.000  C
  C39      1.0000 0.64440  0.44970  0.74930  Biso   1.000  C
  C40      1.0000 0.14440  0.05030  0.24930  Biso   1.000  C
  H25      1.0000 0.24040  0.53290  0.27020  Biso   1.000  H
  H26      1.0000 0.74040  0.96710  0.77020  Biso   1.000  H
  H27      1.0000 0.75960  0.46710  0.72980  Biso   1.000  H
  H28      1.0000 0.25960  0.03290  0.22980  Biso   1.000  H
  H29      1.0000 0.43960  0.56920  0.29850  Biso   1.000  H
  H30      1.0000 0.93960  0.93080  0.79850  Biso   1.000  H
  H31      1.0000 0.56040  0.43080  0.70150  Biso   1.000  H
  H32      1.0000 0.06040  0.06920  0.20150  Biso   1.000  H
  C41      1.0000 0.48080  0.38780  0.26080  Biso   1.000  C
  C42      1.0000 0.98080  0.11220  0.76080  Biso   1.000  C
  C43      1.0000 0.51920  0.61220  0.73920  Biso   1.000  C
  C44      1.0000 0.01920  0.88780  0.23920  Biso   1.000  C
  H33      1.0000 0.38990  0.37950  0.29920  Biso   1.000  H
  H34      1.0000 0.88990  0.12050  0.79920  Biso   1.000  H
  H35      1.0000 0.61010  0.62050  0.70080  Biso   1.000  H
  H36      1.0000 0.11010  0.87950  0.20080  Biso   1.000  H
  H37      1.0000 0.59980  0.39570  0.29320  Biso   1.000  H
  H38      1.0000 0.09980  0.10430  0.79320  Biso   1.000  H
  H39      1.0000 0.40020  0.60430  0.70680  Biso   1.000  H
  H40      1.0000 0.90020  0.89570  0.20680  Biso   1.000  H
  C45      1.0000 0.67530  0.37390  0.80810  Biso   1.000  C
  C46      1.0000 0.17530  0.12610  0.30810  Biso   1.000  C
  C47      1.0000 0.32470  0.62610  0.19190  Biso   1.000  C
  C48      1.0000 0.82470  0.87390  0.69190  Biso   1.000  C
  C49      1.0000 0.44840  0.16410  0.09520  Biso   1.000  C
  C50      1.0000 0.94840  0.33590  0.59520  Biso   1.000  C
  C51      1.0000 0.55160  0.83590  0.90480  Biso   1.000  C
  C52      1.0000 0.05160  0.66410  0.40480  Biso   1.000  C
  H41      1.0000 0.43550  0.11590  0.05750  Biso   1.000  H
  H42      1.0000 0.93550  0.38410  0.55750  Biso   1.000  H
  H43      1.0000 0.56450  0.88410  0.94250  Biso   1.000  H
  H44      1.0000 0.06450  0.61590  0.44250  Biso   1.000  H
  C53      1.0000 0.57340  0.22310  0.22610  Biso   1.000  C
  C54      1.0000 0.07340  0.27690  0.72610  Biso   1.000  C
  C55      1.0000 0.42660  0.77690  0.77390  Biso   1.000  C
  C56      1.0000 0.92660  0.72310  0.27390  Biso   1.000  C
  H45      1.0000 0.64640  0.21590  0.27680  Biso   1.000  H
  H46      1.0000 0.14640  0.28410  0.77680  Biso   1.000  H
  H47      1.0000 0.35360  0.78410  0.72320  Biso   1.000  H
  H48      1.0000 0.85360  0.71590  0.22320  Biso   1.000  H
  Cl3      1.0000 0.00000  0.00000  0.00000  Biso   1.000  Cl
  Cl4      1.0000 0.50000  0.50000  0.50000  Biso   1.000  Cl
  C57      1.0000 0.72880  0.23200  0.92290  Biso   1.000  C
  C58      1.0000 0.22880  0.26800  0.42290  Biso   1.000  C
  C59      1.0000 0.27120  0.76800  0.07710  Biso   1.000  C
  C60      1.0000 0.77120  0.73200  0.57710  Biso   1.000  C
  H49      1.0000 0.74820  0.18430  0.96100  Biso   1.000  H
  H50      1.0000 0.24820  0.31570  0.46100  Biso   1.000  H
  H51      1.0000 0.25180  0.81570  0.03900  Biso   1.000  H
  H52      1.0000 0.75180  0.68430  0.53900  Biso   1.000  H
  C61      1.0000 0.50560  0.13000  0.83630  Biso   1.000  C
  C62      1.0000 0.00560  0.37000  0.33630  Biso   1.000  C
  C63      1.0000 0.49440  0.87000  0.16370  Biso   1.000  C
  C64      1.0000 0.99440  0.63000  0.66370  Biso   1.000  C
  H53      1.0000 0.42860  0.13230  0.78410  Biso   1.000  H
  H54      1.0000 0.92860  0.36770  0.28410  Biso   1.000  H
  H55      1.0000 0.57140  0.86770  0.21590  Biso   1.000  H
  H56      1.0000 0.07140  0.63230  0.71590  Biso   1.000  H
  H57      1.0000 0.59180  0.08070  0.83550  Biso   1.000  H
  H58      1.0000 0.09180  0.41930  0.33550  Biso   1.000  H
  H59      1.0000 0.40820  0.91930  0.16450  Biso   1.000  H
  H60      1.0000 0.90820  0.58070  0.66450  Biso   1.000  H
  H61      1.0000 0.43110  0.12040  0.88060  Biso   1.000  H
  H62      1.0000 0.93110  0.37960  0.38060  Biso   1.000  H
  H63      1.0000 0.56890  0.87960  0.11940  Biso   1.000  H
  H64      1.0000 0.06890  0.62040  0.61940  Biso   1.000  H
  O5       1.0000 0.78650  0.52280  0.15910  Biso   1.000  O
  O6       1.0000 0.28650  0.97720  0.65910  Biso   1.000  O
  O7       1.0000 0.21350  0.47720  0.84090  Biso   1.000  O
  O8       1.0000 0.71350  0.02280  0.34090  Biso   1.000  O
  O9       1.0000 0.03800  0.06480  0.94330  Biso   1.000  O
  O10      1.0000 0.53800  0.43520  0.44330  Biso   1.000  O
  O11      1.0000 0.96200  0.93520  0.05670  Biso   1.000  O
  O12      1.0000 0.46200  0.56480  0.55670  Biso   1.000  O
  O13      1.0000 0.18300  0.98420  0.05410  Biso   1.000  O
  O14      1.0000 0.68300  0.51580  0.55410  Biso   1.000  O
  O15      1.0000 0.81700  0.01580  0.94590  Biso   1.000  O
  O16      1.0000 0.31700  0.48420  0.44590  Biso   1.000  O
  O17      1.0000 0.01400  0.91070  0.95110  Biso   1.000  O
  O18      1.0000 0.51400  0.58930  0.45110  Biso   1.000  O
  O19      1.0000 0.98600  0.08930  0.04890  Biso   1.000  O
  O20      1.0000 0.48600  0.41070  0.54890  Biso   1.000  O
  O21      1.0000 0.11800  0.00400  0.95500  Biso   1.000  O
  O22      1.0000 0.61800  0.49600  0.45500  Biso   1.000  O
  O23      1.0000 0.88200  0.99600  0.04500  Biso   1.000  O
  O24      1.0000 0.38200  0.50400  0.54500  Biso   1.000  O
