data_image0
_cell_length_a       11.116
_cell_length_b       8.489
_cell_length_c       9.023
_cell_angle_alpha    90
_cell_angle_beta     106.293
_cell_angle_gamma    90

_symmetry_space_group_name_H-M    "P 1"
_symmetry_int_tables_number       1

loop_
  _symmetry_equiv_pos_as_xyz
  'x, y, z'

loop_
  _atom_site_label
  _atom_site_occupancy
  _atom_site_fract_x
  _atom_site_fract_y
  _atom_site_fract_z
  _atom_site_thermal_displace_type
  _atom_site_B_iso_or_equiv
  _atom_site_type_symbol
  Br1      1.0000 0.78949  0.09209  0.98440  Biso   1.000  Br
  Br2      1.0000 0.78949  0.40791  0.48440  Biso   1.000  Br
  Br3      1.0000 0.21051  0.90791  0.01560  Biso   1.000  Br
  Br4      1.0000 0.21051  0.59209  0.51560  Biso   1.000  Br
  Cu1      1.0000 0.00000  0.00000  0.00000  Biso   1.000  Cu
  Cu2      1.0000 0.00000  0.50000  0.50000  Biso   1.000  Cu
  O1       1.0000 0.40000  0.37690  0.07630  Biso   1.000  O
  O2       1.0000 0.40000  0.12310  0.57630  Biso   1.000  O
  O3       1.0000 0.60000  0.62310  0.92370  Biso   1.000  O
  O4       1.0000 0.60000  0.87690  0.42370  Biso   1.000  O
  N1       1.0000 0.14167  0.42758  0.96786  Biso   1.000  N
  N2       1.0000 0.14167  0.07242  0.46786  Biso   1.000  N
  N3       1.0000 0.85833  0.57242  0.03214  Biso   1.000  N
  N4       1.0000 0.85833  0.92758  0.53214  Biso   1.000  N
  N5       1.0000 0.07013  0.29770  0.92580  Biso   1.000  N
  N6       1.0000 0.07013  0.20230  0.42580  Biso   1.000  N
  N7       1.0000 0.92987  0.70230  0.07420  Biso   1.000  N
  N8       1.0000 0.92987  0.79770  0.57420  Biso   1.000  N
  N9       1.0000 0.02075  0.30540  0.77890  Biso   1.000  N
  N10      1.0000 0.02075  0.19460  0.27890  Biso   1.000  N
  N11      1.0000 0.97925  0.69460  0.22110  Biso   1.000  N
  N12      1.0000 0.97925  0.80540  0.72110  Biso   1.000  N
  N13      1.0000 0.05986  0.43869  0.72312  Biso   1.000  N
  N14      1.0000 0.05986  0.06131  0.22312  Biso   1.000  N
  N15      1.0000 0.94014  0.56131  0.27688  Biso   1.000  N
  N16      1.0000 0.94014  0.93869  0.77688  Biso   1.000  N
  C1       1.0000 0.13509  0.51230  0.84150  Biso   1.000  C
  C2       1.0000 0.13509  0.98770  0.34150  Biso   1.000  C
  C3       1.0000 0.86491  0.48770  0.15850  Biso   1.000  C
  C4       1.0000 0.86491  0.01230  0.65850  Biso   1.000  C
  H1       1.0000 0.17640  0.60680  0.83760  Biso   1.000  H
  H2       1.0000 0.17640  0.89320  0.33760  Biso   1.000  H
  H3       1.0000 0.82360  0.39320  0.16240  Biso   1.000  H
  H4       1.0000 0.82360  0.10680  0.66240  Biso   1.000  H
  C5       1.0000 0.21410  0.45600  0.12800  Biso   1.000  C
  C6       1.0000 0.21410  0.04400  0.62800  Biso   1.000  C
  C7       1.0000 0.78590  0.54400  0.87200  Biso   1.000  C
  C8       1.0000 0.78590  0.95600  0.37200  Biso   1.000  C
  H5       1.0000 0.24270  0.56450  0.13910  Biso   1.000  H
  H6       1.0000 0.24270  0.93550  0.63910  Biso   1.000  H
  H7       1.0000 0.75730  0.43550  0.86090  Biso   1.000  H
  H8       1.0000 0.75730  0.06450  0.36090  Biso   1.000  H
  H9       1.0000 0.16090  0.43990  0.19540  Biso   1.000  H
  H10      1.0000 0.16090  0.06010  0.69540  Biso   1.000  H
  H11      1.0000 0.83910  0.56010  0.80460  Biso   1.000  H
  H12      1.0000 0.83910  0.93990  0.30460  Biso   1.000  H
  C9       1.0000 0.32480  0.34830  0.17530  Biso   1.000  C
  C10      1.0000 0.32480  0.15170  0.67530  Biso   1.000  C
  C11      1.0000 0.67520  0.65170  0.82470  Biso   1.000  C
  C12      1.0000 0.67520  0.84830  0.32470  Biso   1.000  C
  H13      1.0000 0.29730  0.23940  0.16690  Biso   1.000  H
  H14      1.0000 0.29730  0.26060  0.66690  Biso   1.000  H
  H15      1.0000 0.70270  0.76060  0.83310  Biso   1.000  H
  H16      1.0000 0.70270  0.73940  0.33310  Biso   1.000  H
  H17      1.0000 0.37180  0.36870  0.28150  Biso   1.000  H
  H18      1.0000 0.37180  0.13130  0.78150  Biso   1.000  H
  H19      1.0000 0.62820  0.63130  0.71850  Biso   1.000  H
  H20      1.0000 0.62820  0.86870  0.21850  Biso   1.000  H
  C13      1.0000 0.50830  0.27770  0.10910  Biso   1.000  C
  C14      1.0000 0.50830  0.22230  0.60910  Biso   1.000  C
  C15      1.0000 0.49170  0.72230  0.89090  Biso   1.000  C
  C16      1.0000 0.49170  0.77770  0.39090  Biso   1.000  C
  H21      1.0000 0.48250  0.16940  0.09710  Biso   1.000  H
  H22      1.0000 0.48250  0.33060  0.59710  Biso   1.000  H
  H23      1.0000 0.51750  0.83060  0.90290  Biso   1.000  H
  H24      1.0000 0.51750  0.66940  0.40290  Biso   1.000  H
  H25      1.0000 0.55660  0.30170  0.03890  Biso   1.000  H
  H26      1.0000 0.55660  0.19830  0.53890  Biso   1.000  H
  H27      1.0000 0.44340  0.69830  0.96110  Biso   1.000  H
  H28      1.0000 0.44340  0.80170  0.46110  Biso   1.000  H
  H29      1.0000 0.55840  0.29550  0.21320  Biso   1.000  H
  H30      1.0000 0.55840  0.20450  0.71320  Biso   1.000  H
  H31      1.0000 0.44160  0.70450  0.78680  Biso   1.000  H
  H32      1.0000 0.44160  0.79550  0.28680  Biso   1.000  H
