data_image0
_cell_length_a       11.0015
_cell_length_b       8.3934
_cell_length_c       8.9823
_cell_angle_alpha    90
_cell_angle_beta     105.989
_cell_angle_gamma    90

_symmetry_space_group_name_H-M    "P 1"
_symmetry_int_tables_number       1

loop_
  _symmetry_equiv_pos_as_xyz
  'x, y, z'

loop_
  _atom_site_label
  _atom_site_occupancy
  _atom_site_fract_x
  _atom_site_fract_y
  _atom_site_fract_z
  _atom_site_thermal_displace_type
  _atom_site_B_iso_or_equiv
  _atom_site_type_symbol
  Br1      1.0000 0.78635  0.09049  0.98414  Biso   1.000  Br
  Br2      1.0000 0.78635  0.40951  0.48414  Biso   1.000  Br
  Br3      1.0000 0.21365  0.90951  0.01586  Biso   1.000  Br
  Br4      1.0000 0.21365  0.59049  0.51586  Biso   1.000  Br
  Cu1      1.0000 0.00000  0.00000  0.00000  Biso   1.000  Cu
  Cu2      1.0000 0.00000  0.50000  0.50000  Biso   1.000  Cu
  O1       1.0000 0.40100  0.37960  0.07310  Biso   1.000  O
  O2       1.0000 0.40100  0.12040  0.57310  Biso   1.000  O
  O3       1.0000 0.59900  0.62040  0.92690  Biso   1.000  O
  O4       1.0000 0.59900  0.87960  0.42690  Biso   1.000  O
  N1       1.0000 0.14060  0.42790  0.96910  Biso   1.000  N
  N2       1.0000 0.14060  0.07210  0.46910  Biso   1.000  N
  N3       1.0000 0.85940  0.57210  0.03090  Biso   1.000  N
  N4       1.0000 0.85940  0.92790  0.53090  Biso   1.000  N
  N5       1.0000 0.06690  0.29720  0.92680  Biso   1.000  N
  N6       1.0000 0.06690  0.20280  0.42680  Biso   1.000  N
  N7       1.0000 0.93310  0.70280  0.07320  Biso   1.000  N
  N8       1.0000 0.93310  0.79720  0.57320  Biso   1.000  N
  N9       1.0000 0.01840  0.30470  0.77930  Biso   1.000  N
  N10      1.0000 0.01840  0.19530  0.27930  Biso   1.000  N
  N11      1.0000 0.98160  0.69530  0.22070  Biso   1.000  N
  N12      1.0000 0.98160  0.80470  0.72070  Biso   1.000  N
  N13      1.0000 0.05940  0.43870  0.72320  Biso   1.000  N
  N14      1.0000 0.05940  0.06130  0.22320  Biso   1.000  N
  N15      1.0000 0.94060  0.56130  0.27680  Biso   1.000  N
  N16      1.0000 0.94060  0.93870  0.77680  Biso   1.000  N
  C1       1.0000 0.13580  0.51270  0.84260  Biso   1.000  C
  C2       1.0000 0.13580  0.98730  0.34260  Biso   1.000  C
  C3       1.0000 0.86420  0.48730  0.15740  Biso   1.000  C
  C4       1.0000 0.86420  0.01270  0.65740  Biso   1.000  C
  H1       1.0000 0.17960  0.60950  0.83870  Biso   1.000  H
  H2       1.0000 0.17960  0.89050  0.33870  Biso   1.000  H
  H3       1.0000 0.82040  0.39050  0.16130  Biso   1.000  H
  H4       1.0000 0.82040  0.10950  0.66130  Biso   1.000  H
  C5       1.0000 0.21360  0.45610  0.13030  Biso   1.000  C
  C6       1.0000 0.21360  0.04390  0.63030  Biso   1.000  C
  C7       1.0000 0.78640  0.54390  0.86970  Biso   1.000  C
  C8       1.0000 0.78640  0.95610  0.36970  Biso   1.000  C
  H5       1.0000 0.24160  0.56860  0.14280  Biso   1.000  H
  H6       1.0000 0.24160  0.93140  0.64280  Biso   1.000  H
  H7       1.0000 0.75840  0.43140  0.85720  Biso   1.000  H
  H8       1.0000 0.75840  0.06860  0.35720  Biso   1.000  H
  H9       1.0000 0.15930  0.43640  0.19980  Biso   1.000  H
  H10      1.0000 0.15930  0.06360  0.69980  Biso   1.000  H
  H11      1.0000 0.84070  0.56360  0.80020  Biso   1.000  H
  H12      1.0000 0.84070  0.93640  0.30020  Biso   1.000  H
  C9       1.0000 0.32720  0.34830  0.17480  Biso   1.000  C
  C10      1.0000 0.32720  0.15170  0.67480  Biso   1.000  C
  C11      1.0000 0.67280  0.65170  0.82520  Biso   1.000  C
  C12      1.0000 0.67280  0.84830  0.32520  Biso   1.000  C
  H13      1.0000 0.30010  0.23540  0.16640  Biso   1.000  H
  H14      1.0000 0.30010  0.26460  0.66640  Biso   1.000  H
  H15      1.0000 0.69990  0.76460  0.83360  Biso   1.000  H
  H16      1.0000 0.69990  0.73540  0.33360  Biso   1.000  H
  H17      1.0000 0.37660  0.36930  0.28290  Biso   1.000  H
  H18      1.0000 0.37660  0.13070  0.78290  Biso   1.000  H
  H19      1.0000 0.62340  0.63070  0.71710  Biso   1.000  H
  H20      1.0000 0.62340  0.86930  0.21710  Biso   1.000  H
  C13      1.0000 0.50970  0.28200  0.10050  Biso   1.000  C
  C14      1.0000 0.50970  0.21800  0.60050  Biso   1.000  C
  C15      1.0000 0.49030  0.71800  0.89950  Biso   1.000  C
  C16      1.0000 0.49030  0.78200  0.39950  Biso   1.000  C
  H21      1.0000 0.48480  0.16990  0.10040  Biso   1.000  H
  H22      1.0000 0.48480  0.33010  0.60040  Biso   1.000  H
  H23      1.0000 0.51520  0.83010  0.89960  Biso   1.000  H
  H24      1.0000 0.51520  0.66990  0.39960  Biso   1.000  H
  H25      1.0000 0.55170  0.29960  0.01890  Biso   1.000  H
  H26      1.0000 0.55170  0.20040  0.51890  Biso   1.000  H
  H27      1.0000 0.44830  0.70040  0.98110  Biso   1.000  H
  H28      1.0000 0.44830  0.79960  0.48110  Biso   1.000  H
  H29      1.0000 0.56790  0.30890  0.20120  Biso   1.000  H
  H30      1.0000 0.56790  0.19110  0.70120  Biso   1.000  H
  H31      1.0000 0.43210  0.69110  0.79880  Biso   1.000  H
  H32      1.0000 0.43210  0.80890  0.29880  Biso   1.000  H
