data_image0
_cell_length_a       10.955
_cell_length_b       8.3625
_cell_length_c       8.957
_cell_angle_alpha    90
_cell_angle_beta     105.909
_cell_angle_gamma    90

_symmetry_space_group_name_H-M    "P 1"
_symmetry_int_tables_number       1

loop_
  _symmetry_equiv_pos_as_xyz
  'x, y, z'

loop_
  _atom_site_label
  _atom_site_occupancy
  _atom_site_fract_x
  _atom_site_fract_y
  _atom_site_fract_z
  _atom_site_thermal_displace_type
  _atom_site_B_iso_or_equiv
  _atom_site_type_symbol
  Br1      1.0000 0.78573  0.09022  0.98420  Biso   1.000  Br
  Br2      1.0000 0.78573  0.40978  0.48420  Biso   1.000  Br
  Br3      1.0000 0.21427  0.90978  0.01580  Biso   1.000  Br
  Br4      1.0000 0.21427  0.59022  0.51580  Biso   1.000  Br
  Cu1      1.0000 0.00000  0.00000  0.00000  Biso   1.000  Cu
  Cu2      1.0000 0.00000  0.50000  0.50000  Biso   1.000  Cu
  O1       1.0000 0.40115  0.38070  0.07210  Biso   1.000  O
  O2       1.0000 0.40115  0.11930  0.57210  Biso   1.000  O
  O3       1.0000 0.59885  0.61930  0.92790  Biso   1.000  O
  O4       1.0000 0.59885  0.88070  0.42790  Biso   1.000  O
  N1       1.0000 0.14011  0.42750  0.96940  Biso   1.000  N
  N2       1.0000 0.14011  0.07250  0.46940  Biso   1.000  N
  N3       1.0000 0.85989  0.57250  0.03060  Biso   1.000  N
  N4       1.0000 0.85989  0.92750  0.53060  Biso   1.000  N
  N5       1.0000 0.06617  0.29710  0.92740  Biso   1.000  N
  N6       1.0000 0.06617  0.20290  0.42740  Biso   1.000  N
  N7       1.0000 0.93383  0.70290  0.07260  Biso   1.000  N
  N8       1.0000 0.93383  0.79710  0.57260  Biso   1.000  N
  N9       1.0000 0.01773  0.30420  0.77930  Biso   1.000  N
  N10      1.0000 0.01773  0.19580  0.27930  Biso   1.000  N
  N11      1.0000 0.98227  0.69580  0.22070  Biso   1.000  N
  N12      1.0000 0.98227  0.80420  0.72070  Biso   1.000  N
  N13      1.0000 0.05939  0.43820  0.72320  Biso   1.000  N
  N14      1.0000 0.05939  0.06180  0.22320  Biso   1.000  N
  N15      1.0000 0.94061  0.56180  0.27680  Biso   1.000  N
  N16      1.0000 0.94061  0.93820  0.77680  Biso   1.000  N
  C1       1.0000 0.13620  0.51250  0.84260  Biso   1.000  C
  C2       1.0000 0.13620  0.98750  0.34260  Biso   1.000  C
  C3       1.0000 0.86380  0.48750  0.15740  Biso   1.000  C
  C4       1.0000 0.86380  0.01250  0.65740  Biso   1.000  C
  H1       1.0000 0.18070  0.60920  0.83870  Biso   1.000  H
  H2       1.0000 0.18070  0.89080  0.33870  Biso   1.000  H
  H3       1.0000 0.81930  0.39080  0.16130  Biso   1.000  H
  H4       1.0000 0.81930  0.10920  0.66130  Biso   1.000  H
  C5       1.0000 0.21370  0.45600  0.13070  Biso   1.000  C
  C6       1.0000 0.21370  0.04400  0.63070  Biso   1.000  C
  C7       1.0000 0.78630  0.54400  0.86930  Biso   1.000  C
  C8       1.0000 0.78630  0.95600  0.36930  Biso   1.000  C
  H5       1.0000 0.24190  0.56890  0.14270  Biso   1.000  H
  H6       1.0000 0.24190  0.93110  0.64270  Biso   1.000  H
  H7       1.0000 0.75810  0.43110  0.85730  Biso   1.000  H
  H8       1.0000 0.75810  0.06890  0.35730  Biso   1.000  H
  H9       1.0000 0.15940  0.43670  0.20080  Biso   1.000  H
  H10      1.0000 0.15940  0.06330  0.70080  Biso   1.000  H
  H11      1.0000 0.84060  0.56330  0.79920  Biso   1.000  H
  H12      1.0000 0.84060  0.93670  0.29920  Biso   1.000  H
  C9       1.0000 0.32790  0.34780  0.17530  Biso   1.000  C
  C10      1.0000 0.32790  0.15220  0.67530  Biso   1.000  C
  C11      1.0000 0.67210  0.65220  0.82470  Biso   1.000  C
  C12      1.0000 0.67210  0.84780  0.32470  Biso   1.000  C
  H13      1.0000 0.30100  0.23430  0.16680  Biso   1.000  H
  H14      1.0000 0.30100  0.26570  0.66680  Biso   1.000  H
  H15      1.0000 0.69900  0.76570  0.83320  Biso   1.000  H
  H16      1.0000 0.69900  0.73430  0.33320  Biso   1.000  H
  H17      1.0000 0.37770  0.36890  0.28360  Biso   1.000  H
  H18      1.0000 0.37770  0.13110  0.78360  Biso   1.000  H
  H19      1.0000 0.62230  0.63110  0.71640  Biso   1.000  H
  H20      1.0000 0.62230  0.86890  0.21640  Biso   1.000  H
  C13      1.0000 0.51030  0.28140  0.09990  Biso   1.000  C
  C14      1.0000 0.51030  0.21860  0.59990  Biso   1.000  C
  C15      1.0000 0.48970  0.71860  0.90010  Biso   1.000  C
  C16      1.0000 0.48970  0.78140  0.40010  Biso   1.000  C
  H21      1.0000 0.48390  0.16910  0.08720  Biso   1.000  H
  H22      1.0000 0.48390  0.33090  0.58720  Biso   1.000  H
  H23      1.0000 0.51610  0.83090  0.91280  Biso   1.000  H
  H24      1.0000 0.51610  0.66910  0.41280  Biso   1.000  H
  H25      1.0000 0.55840  0.30770  0.02570  Biso   1.000  H
  H26      1.0000 0.55840  0.19230  0.52570  Biso   1.000  H
  H27      1.0000 0.44160  0.69230  0.97430  Biso   1.000  H
  H28      1.0000 0.44160  0.80770  0.47430  Biso   1.000  H
  H29      1.0000 0.56370  0.29880  0.20580  Biso   1.000  H
  H30      1.0000 0.56370  0.20120  0.70580  Biso   1.000  H
  H31      1.0000 0.43630  0.70120  0.79420  Biso   1.000  H
  H32      1.0000 0.43630  0.79880  0.29420  Biso   1.000  H
