data_image0
_cell_length_a       12.0458
_cell_length_b       15.2355
_cell_length_c       21.0978
_cell_angle_alpha    90
_cell_angle_beta     95.409
_cell_angle_gamma    90

_symmetry_space_group_name_H-M    "P 1"
_symmetry_int_tables_number       1

loop_
  _symmetry_equiv_pos_as_xyz
  'x, y, z'

loop_
  _atom_site_label
  _atom_site_occupancy
  _atom_site_fract_x
  _atom_site_fract_y
  _atom_site_fract_z
  _atom_site_thermal_displace_type
  _atom_site_B_iso_or_equiv
  _atom_site_type_symbol
  Cu1      1.0000 0.04803  0.11635  0.11296  Biso   1.000  Cu
  Cu2      1.0000 0.54803  0.38365  0.61296  Biso   1.000  Cu
  Cu3      1.0000 0.95197  0.88365  0.88704  Biso   1.000  Cu
  Cu4      1.0000 0.45197  0.61635  0.38704  Biso   1.000  Cu
  Fe1      1.0000 0.28193  0.28277  0.93522  Biso   1.000  Fe
  Fe2      1.0000 0.78193  0.21723  0.43522  Biso   1.000  Fe
  Fe3      1.0000 0.71807  0.71723  0.06478  Biso   1.000  Fe
  Fe4      1.0000 0.21807  0.78277  0.56478  Biso   1.000  Fe
  C1       1.0000 0.84350  0.09940  0.03310  Biso   1.000  C
  C2       1.0000 0.34350  0.40060  0.53310  Biso   1.000  C
  C3       1.0000 0.15650  0.90060  0.96690  Biso   1.000  C
  C4       1.0000 0.65650  0.59940  0.46690  Biso   1.000  C
  H1       1.0000 0.81200  0.09910  0.07170  Biso   1.000  H
  H2       1.0000 0.31200  0.40090  0.57170  Biso   1.000  H
  H3       1.0000 0.18800  0.90090  0.92830  Biso   1.000  H
  H4       1.0000 0.68800  0.59910  0.42830  Biso   1.000  H
  C5       1.0000 0.99690  0.10530  0.97760  Biso   1.000  C
  C6       1.0000 0.49690  0.39470  0.47760  Biso   1.000  C
  C7       1.0000 0.00310  0.89470  0.02240  Biso   1.000  C
  C8       1.0000 0.50310  0.60530  0.52240  Biso   1.000  C
  H5       1.0000 0.07390  0.10880  0.97730  Biso   1.000  H
  H6       1.0000 0.57390  0.39120  0.47730  Biso   1.000  H
  H7       1.0000 0.92610  0.89120  0.02270  Biso   1.000  H
  H8       1.0000 0.42610  0.60880  0.52270  Biso   1.000  H
  C9       1.0000 0.77290  0.09370  0.97660  Biso   1.000  C
  C10      1.0000 0.27290  0.40630  0.47660  Biso   1.000  C
  C11      1.0000 0.22710  0.90630  0.02340  Biso   1.000  C
  C12      1.0000 0.72710  0.59370  0.52340  Biso   1.000  C
  H9       1.0000 0.69620  0.08940  0.97790  Biso   1.000  H
  H10      1.0000 0.19620  0.41060  0.47790  Biso   1.000  H
  H11      1.0000 0.30380  0.91060  0.02210  Biso   1.000  H
  H12      1.0000 0.80380  0.58940  0.52210  Biso   1.000  H
  C13      1.0000 0.93150  0.10050  0.91930  Biso   1.000  C
  C14      1.0000 0.43150  0.39950  0.41930  Biso   1.000  C
  C15      1.0000 0.06850  0.89950  0.08070  Biso   1.000  C
  C16      1.0000 0.56850  0.60050  0.58070  Biso   1.000  C
  H13      1.0000 0.96480  0.10130  0.88130  Biso   1.000  H
  H14      1.0000 0.46480  0.39870  0.38130  Biso   1.000  H
  H15      1.0000 0.03520  0.89870  0.11870  Biso   1.000  H
  H16      1.0000 0.53520  0.60130  0.61870  Biso   1.000  H
  C17      1.0000 0.81810  0.09450  0.91870  Biso   1.000  C
  C18      1.0000 0.31810  0.40550  0.41870  Biso   1.000  C
  C19      1.0000 0.18190  0.90550  0.08130  Biso   1.000  C
  C20      1.0000 0.68190  0.59450  0.58130  Biso   1.000  C
  C21      1.0000 0.74460  0.09060  0.85720  Biso   1.000  C
  C22      1.0000 0.24460  0.40940  0.35720  Biso   1.000  C
  C23      1.0000 0.25540  0.90940  0.14280  Biso   1.000  C
  C24      1.0000 0.75540  0.59060  0.64280  Biso   1.000  C
  C25      1.0000 0.64120  0.05140  0.85530  Biso   1.000  C
  C26      1.0000 0.14120  0.44860  0.35530  Biso   1.000  C
  C27      1.0000 0.35880  0.94860  0.14470  Biso   1.000  C
  C28      1.0000 0.85880  0.55140  0.64470  Biso   1.000  C
  H17      1.0000 0.61810  0.02420  0.89130  Biso   1.000  H
  H18      1.0000 0.11810  0.47580  0.39130  Biso   1.000  H
  H19      1.0000 0.38190  0.97580  0.10870  Biso   1.000  H
  H20      1.0000 0.88190  0.52420  0.60870  Biso   1.000  H
  C29      1.0000 0.77930  0.12550  0.80170  Biso   1.000  C
  C30      1.0000 0.27930  0.37450  0.30170  Biso   1.000  C
  C31      1.0000 0.22070  0.87450  0.19830  Biso   1.000  C
  C32      1.0000 0.72070  0.62550  0.69830  Biso   1.000  C
  H21      1.0000 0.85020  0.14970  0.80200  Biso   1.000  H
  H22      1.0000 0.35020  0.35030  0.30200  Biso   1.000  H
  H23      1.0000 0.14980  0.85030  0.19800  Biso   1.000  H
  H24      1.0000 0.64980  0.64970  0.69800  Biso   1.000  H
  C33      1.0000 0.57250  0.05340  0.79890  Biso   1.000  C
  C34      1.0000 0.07250  0.44660  0.29890  Biso   1.000  C
  C35      1.0000 0.42750  0.94660  0.20110  Biso   1.000  C
  C36      1.0000 0.92750  0.55340  0.70110  Biso   1.000  C
  H25      1.0000 0.50130  0.02940  0.79720  Biso   1.000  H
  H26      1.0000 0.00130  0.47060  0.29720  Biso   1.000  H
  H27      1.0000 0.49870  0.97060  0.20280  Biso   1.000  H
  H28      1.0000 0.99870  0.52940  0.70280  Biso   1.000  H
  C37      1.0000 0.70930  0.12430  0.74610  Biso   1.000  C
  C38      1.0000 0.20930  0.37570  0.24610  Biso   1.000  C
  C39      1.0000 0.29070  0.87570  0.25390  Biso   1.000  C
  C40      1.0000 0.79070  0.62430  0.75390  Biso   1.000  C
  H29      1.0000 0.73270  0.14740  0.70880  Biso   1.000  H
  H30      1.0000 0.23270  0.35260  0.20880  Biso   1.000  H
  H31      1.0000 0.26730  0.85260  0.29120  Biso   1.000  H
  H32      1.0000 0.76730  0.64740  0.79120  Biso   1.000  H
  C41      1.0000 0.53380  0.09210  0.68780  Biso   1.000  C
  C42      1.0000 0.03380  0.40790  0.18780  Biso   1.000  C
  C43      1.0000 0.46620  0.90790  0.31220  Biso   1.000  C
  C44      1.0000 0.96620  0.59210  0.81220  Biso   1.000  C
  C45      1.0000 0.44290  0.15090  0.68300  Biso   1.000  C
  C46      1.0000 0.94290  0.34910  0.18300  Biso   1.000  C
  C47      1.0000 0.55710  0.84910  0.31700  Biso   1.000  C
  C48      1.0000 0.05710  0.65090  0.81700  Biso   1.000  C
  C49      1.0000 0.41600  0.20910  0.73010  Biso   1.000  C
  C50      1.0000 0.91600  0.29090  0.23010  Biso   1.000  C
  C51      1.0000 0.58400  0.79090  0.26990  Biso   1.000  C
  C52      1.0000 0.08400  0.70910  0.76990  Biso   1.000  C
  H33      1.0000 0.45920  0.21120  0.76900  Biso   1.000  H
  H34      1.0000 0.95920  0.28880  0.26900  Biso   1.000  H
  H35      1.0000 0.54080  0.78880  0.23100  Biso   1.000  H
  H36      1.0000 0.04080  0.71120  0.73100  Biso   1.000  H
  C53      1.0000 0.32620  0.26300  0.71910  Biso   1.000  C
  C54      1.0000 0.82620  0.23700  0.21910  Biso   1.000  C
  C55      1.0000 0.67380  0.73700  0.28090  Biso   1.000  C
  C56      1.0000 0.17380  0.76300  0.78090  Biso   1.000  C
  H37      1.0000 0.30820  0.30200  0.75040  Biso   1.000  H
  H38      1.0000 0.80820  0.19800  0.25040  Biso   1.000  H
  H39      1.0000 0.69180  0.69800  0.24960  Biso   1.000  H
  H40      1.0000 0.19180  0.80200  0.74960  Biso   1.000  H
  C57      1.0000 0.26150  0.25970  0.66110  Biso   1.000  C
  C58      1.0000 0.76150  0.24030  0.16110  Biso   1.000  C
  C59      1.0000 0.73850  0.74030  0.33890  Biso   1.000  C
  C60      1.0000 0.23850  0.75970  0.83890  Biso   1.000  C
  H41      1.0000 0.19920  0.29580  0.65460  Biso   1.000  H
  H42      1.0000 0.69920  0.20420  0.15460  Biso   1.000  H
  H43      1.0000 0.80080  0.70420  0.34540  Biso   1.000  H
  H44      1.0000 0.30080  0.79580  0.84540  Biso   1.000  H
  C61      1.0000 0.28680  0.20470  0.61330  Biso   1.000  C
  C62      1.0000 0.78680  0.29530  0.11330  Biso   1.000  C
  C63      1.0000 0.71320  0.79530  0.38670  Biso   1.000  C
  C64      1.0000 0.21320  0.70470  0.88670  Biso   1.000  C
  H45      1.0000 0.24360  0.20460  0.57440  Biso   1.000  H
  H46      1.0000 0.74360  0.29540  0.07440  Biso   1.000  H
  H47      1.0000 0.75640  0.79540  0.42560  Biso   1.000  H
  H48      1.0000 0.25640  0.70460  0.92560  Biso   1.000  H
  C65      1.0000 0.37760  0.14940  0.62360  Biso   1.000  C
  C66      1.0000 0.87760  0.35060  0.12360  Biso   1.000  C
  C67      1.0000 0.62240  0.85060  0.37640  Biso   1.000  C
  C68      1.0000 0.12240  0.64940  0.87640  Biso   1.000  C
  C69      1.0000 0.41590  0.09090  0.57860  Biso   1.000  C
  C70      1.0000 0.91590  0.40910  0.07860  Biso   1.000  C
  C71      1.0000 0.58410  0.90910  0.42140  Biso   1.000  C
  C72      1.0000 0.08410  0.59090  0.92140  Biso   1.000  C
  C73      1.0000 0.29190  0.02440  0.49450  Biso   1.000  C
  C74      1.0000 0.79190  0.47560  0.99450  Biso   1.000  C
  C75      1.0000 0.70810  0.97560  0.50550  Biso   1.000  C
  C76      1.0000 0.20810  0.52440  0.00550  Biso   1.000  C
  H49      1.0000 0.27830  0.97870  0.52200  Biso   1.000  H
  H50      1.0000 0.77830  0.52130  0.02200  Biso   1.000  H
  H51      1.0000 0.72170  0.02130  0.47800  Biso   1.000  H
  H52      1.0000 0.22170  0.47870  0.97800  Biso   1.000  H
  C77      1.0000 0.38520  0.15410  0.47380  Biso   1.000  C
  C78      1.0000 0.88520  0.34590  0.97380  Biso   1.000  C
  C79      1.0000 0.61480  0.84590  0.52620  Biso   1.000  C
  C80      1.0000 0.11480  0.65410  0.02620  Biso   1.000  C
  H53      1.0000 0.43630  0.19740  0.48760  Biso   1.000  H
  H54      1.0000 0.93630  0.30260  0.98760  Biso   1.000  H
  H55      1.0000 0.56370  0.80260  0.51240  Biso   1.000  H
  H56      1.0000 0.06370  0.69740  0.01240  Biso   1.000  H
  C81      1.0000 0.24090  0.02500  0.43330  Biso   1.000  C
  C82      1.0000 0.74090  0.47500  0.93330  Biso   1.000  C
  C83      1.0000 0.75910  0.97500  0.56670  Biso   1.000  C
  C84      1.0000 0.25910  0.52500  0.06670  Biso   1.000  C
  H57      1.0000 0.19210  0.97990  0.41990  Biso   1.000  H
  H58      1.0000 0.69210  0.52010  0.91990  Biso   1.000  H
  H59      1.0000 0.80790  0.02010  0.58010  Biso   1.000  H
  H60      1.0000 0.30790  0.47990  0.08010  Biso   1.000  H
  C85      1.0000 0.33660  0.15640  0.41420  Biso   1.000  C
  C86      1.0000 0.83660  0.34360  0.91420  Biso   1.000  C
  C87      1.0000 0.66340  0.84360  0.58580  Biso   1.000  C
  C88      1.0000 0.16340  0.65640  0.08580  Biso   1.000  C
  H61      1.0000 0.35330  0.20180  0.38720  Biso   1.000  H
  H62      1.0000 0.85330  0.29820  0.88720  Biso   1.000  H
  H63      1.0000 0.64670  0.79820  0.61280  Biso   1.000  H
  H64      1.0000 0.14670  0.70180  0.11280  Biso   1.000  H
  C89      1.0000 0.26100  0.09110  0.39190  Biso   1.000  C
  C90      1.0000 0.76100  0.40890  0.89190  Biso   1.000  C
  C91      1.0000 0.73900  0.90890  0.60810  Biso   1.000  C
  C92      1.0000 0.23900  0.59110  0.10810  Biso   1.000  C
  C93      1.0000 0.20910  0.09320  0.32540  Biso   1.000  C
  C94      1.0000 0.70910  0.40680  0.82540  Biso   1.000  C
  C95      1.0000 0.79090  0.90680  0.67460  Biso   1.000  C
  C96      1.0000 0.29090  0.59320  0.17460  Biso   1.000  C
  C97      1.0000 0.10160  0.06400  0.30900  Biso   1.000  C
  C98      1.0000 0.60160  0.43600  0.80900  Biso   1.000  C
  C99      1.0000 0.89840  0.93600  0.69100  Biso   1.000  C
  C100     1.0000 0.39840  0.56400  0.19100  Biso   1.000  C
  H65      1.0000 0.06100  0.03990  0.34010  Biso   1.000  H
  H66      1.0000 0.56100  0.46010  0.84010  Biso   1.000  H
  H67      1.0000 0.93900  0.96010  0.65990  Biso   1.000  H
  H68      1.0000 0.43900  0.53990  0.15990  Biso   1.000  H
  C101     1.0000 0.26560  0.12820  0.27710  Biso   1.000  C
  C102     1.0000 0.76560  0.37180  0.77710  Biso   1.000  C
  C103     1.0000 0.73440  0.87180  0.72290  Biso   1.000  C
  C104     1.0000 0.23440  0.62820  0.22290  Biso   1.000  C
  H69      1.0000 0.33790  0.14940  0.28580  Biso   1.000  H
  H70      1.0000 0.83790  0.35060  0.78580  Biso   1.000  H
  H71      1.0000 0.66210  0.85060  0.71420  Biso   1.000  H
  H72      1.0000 0.16210  0.64940  0.21420  Biso   1.000  H
  C105     1.0000 0.05440  0.07010  0.24810  Biso   1.000  C
  C106     1.0000 0.55440  0.42990  0.74810  Biso   1.000  C
  C107     1.0000 0.94560  0.92990  0.75190  Biso   1.000  C
  C108     1.0000 0.44560  0.57010  0.25190  Biso   1.000  C
  H73      1.0000 0.98200  0.04970  0.23860  Biso   1.000  H
  H74      1.0000 0.48200  0.45030  0.73860  Biso   1.000  H
  H75      1.0000 0.01800  0.95030  0.76140  Biso   1.000  H
  H76      1.0000 0.51800  0.54970  0.26140  Biso   1.000  H
  C109     1.0000 0.21450  0.13150  0.21680  Biso   1.000  C
  C110     1.0000 0.71450  0.36850  0.71680  Biso   1.000  C
  C111     1.0000 0.78550  0.86850  0.78320  Biso   1.000  C
  C112     1.0000 0.28550  0.63150  0.28320  Biso   1.000  C
  H77      1.0000 0.25520  0.15330  0.18500  Biso   1.000  H
  H78      1.0000 0.75520  0.34670  0.68500  Biso   1.000  H
  H79      1.0000 0.74480  0.84670  0.81500  Biso   1.000  H
  H80      1.0000 0.24480  0.65330  0.31500  Biso   1.000  H
  C113     1.0000 0.50460  0.32430  0.96680  Biso   1.000  C
  C114     1.0000 0.00460  0.17570  0.46680  Biso   1.000  C
  C115     1.0000 0.49540  0.67570  0.03320  Biso   1.000  C
  C116     1.0000 0.99540  0.82430  0.53320  Biso   1.000  C
  C117     1.0000 0.17140  0.25850  0.04550  Biso   1.000  C
  C118     1.0000 0.67140  0.24150  0.54550  Biso   1.000  C
  C119     1.0000 0.82860  0.74150  0.95450  Biso   1.000  C
  C120     1.0000 0.32860  0.75850  0.45450  Biso   1.000  C
  C121     1.0000 0.23940  0.17340  0.03790  Biso   1.000  C
  C122     1.0000 0.73940  0.32660  0.53790  Biso   1.000  C
  C123     1.0000 0.76060  0.82660  0.96210  Biso   1.000  C
  C124     1.0000 0.26060  0.67340  0.46210  Biso   1.000  C
  C125     1.0000 0.50110  0.26540  0.90770  Biso   1.000  C
  C126     1.0000 0.00110  0.23460  0.40770  Biso   1.000  C
  C127     1.0000 0.49890  0.73460  0.09230  Biso   1.000  C
  C128     1.0000 0.99890  0.76540  0.59230  Biso   1.000  C
  C129     1.0000 0.10050  0.26960  0.84010  Biso   1.000  C
  C130     1.0000 0.60050  0.23040  0.34010  Biso   1.000  C
  C131     1.0000 0.89950  0.73040  0.15990  Biso   1.000  C
  C132     1.0000 0.39950  0.76960  0.65990  Biso   1.000  C
  C133     1.0000 0.14320  0.36320  0.83670  Biso   1.000  C
  C134     1.0000 0.64320  0.13680  0.33670  Biso   1.000  C
  C135     1.0000 0.85680  0.63680  0.16330  Biso   1.000  C
  C136     1.0000 0.35680  0.86320  0.66330  Biso   1.000  C
  N1       1.0000 0.10940  0.10530  0.20030  Biso   1.000  N
  N2       1.0000 0.60940  0.39470  0.70030  Biso   1.000  N
  N3       1.0000 0.89060  0.89470  0.79970  Biso   1.000  N
  N4       1.0000 0.39060  0.60530  0.29970  Biso   1.000  N
  N5       1.0000 0.95370  0.10510  0.03380  Biso   1.000  N
  N6       1.0000 0.45370  0.39490  0.53380  Biso   1.000  N
  N7       1.0000 0.04630  0.89490  0.96620  Biso   1.000  N
  N8       1.0000 0.54630  0.60510  0.46620  Biso   1.000  N
  N9       1.0000 0.60880  0.09020  0.74650  Biso   1.000  N
  N10      1.0000 0.10880  0.40980  0.24650  Biso   1.000  N
  N11      1.0000 0.39120  0.90980  0.25350  Biso   1.000  N
  N12      1.0000 0.89120  0.59020  0.75350  Biso   1.000  N
  N13      1.0000 0.56240  0.03780  0.64490  Biso   1.000  N
  N14      1.0000 0.06240  0.46220  0.14490  Biso   1.000  N
  N15      1.0000 0.43760  0.96220  0.35510  Biso   1.000  N
  N16      1.0000 0.93760  0.53780  0.85510  Biso   1.000  N
  N17      1.0000 0.50080  0.03700  0.58730  Biso   1.000  N
  N18      1.0000 0.00080  0.46300  0.08730  Biso   1.000  N
  N19      1.0000 0.49920  0.96300  0.41270  Biso   1.000  N
  N20      1.0000 0.99920  0.53700  0.91270  Biso   1.000  N
  N21      1.0000 0.36080  0.08960  0.51420  Biso   1.000  N
  N22      1.0000 0.86080  0.41040  0.01420  Biso   1.000  N
  N23      1.0000 0.63920  0.91040  0.48580  Biso   1.000  N
  N24      1.0000 0.13920  0.58960  0.98580  Biso   1.000  N
  O1       1.0000 0.23100  0.11110  0.07320  Biso   1.000  O
  O2       1.0000 0.73100  0.38890  0.57320  Biso   1.000  O
  O3       1.0000 0.76900  0.88890  0.92680  Biso   1.000  O
  O4       1.0000 0.26900  0.61110  0.42680  Biso   1.000  O
  O5       1.0000 0.11030  0.26280  0.08870  Biso   1.000  O
  O6       1.0000 0.61030  0.23720  0.58870  Biso   1.000  O
  O7       1.0000 0.88970  0.73720  0.91130  Biso   1.000  O
  O8       1.0000 0.38970  0.76280  0.41130  Biso   1.000  O
  O9       1.0000 0.18150  0.31600  0.00300  Biso   1.000  O
  O10      1.0000 0.68150  0.18400  0.50300  Biso   1.000  O
  O11      1.0000 0.81850  0.68400  0.99700  Biso   1.000  O
  O12      1.0000 0.31850  0.81600  0.49700  Biso   1.000  O
  O13      1.0000 0.30290  0.17670  0.99160  Biso   1.000  O
  O14      1.0000 0.80290  0.32330  0.49160  Biso   1.000  O
  O15      1.0000 0.69710  0.82330  0.00840  Biso   1.000  O
  O16      1.0000 0.19710  0.67670  0.50840  Biso   1.000  O
  O17      1.0000 0.10670  0.41460  0.79590  Biso   1.000  O
  O18      1.0000 0.60670  0.08540  0.29590  Biso   1.000  O
  O19      1.0000 0.89330  0.58540  0.20410  Biso   1.000  O
  O20      1.0000 0.39330  0.91460  0.70410  Biso   1.000  O
  O21      1.0000 0.01820  0.24680  0.80590  Biso   1.000  O
  O22      1.0000 0.51820  0.25320  0.30590  Biso   1.000  O
  O23      1.0000 0.98180  0.75320  0.19410  Biso   1.000  O
  O24      1.0000 0.48180  0.74680  0.69410  Biso   1.000  O
  O25      1.0000 0.22550  0.38410  0.87970  Biso   1.000  O
  O26      1.0000 0.72550  0.11590  0.37970  Biso   1.000  O
  O27      1.0000 0.77450  0.61590  0.12030  Biso   1.000  O
  O28      1.0000 0.27450  0.88410  0.62030  Biso   1.000  O
  O29      1.0000 0.15930  0.22120  0.87960  Biso   1.000  O
  O30      1.0000 0.65930  0.27880  0.37960  Biso   1.000  O
  O31      1.0000 0.84070  0.77880  0.12040  Biso   1.000  O
  O32      1.0000 0.34070  0.72120  0.62040  Biso   1.000  O
  O33      1.0000 0.58570  0.24520  0.88310  Biso   1.000  O
  O34      1.0000 0.08570  0.25480  0.38310  Biso   1.000  O
  O35      1.0000 0.41430  0.75480  0.11690  Biso   1.000  O
  O36      1.0000 0.91430  0.74520  0.61690  Biso   1.000  O
  O37      1.0000 0.59160  0.34380  0.99670  Biso   1.000  O
  O38      1.0000 0.09160  0.15620  0.49670  Biso   1.000  O
  O39      1.0000 0.40840  0.65620  0.00330  Biso   1.000  O
  O40      1.0000 0.90840  0.84380  0.50330  Biso   1.000  O
  O41      1.0000 0.40270  0.24310  0.88510  Biso   1.000  O
  O42      1.0000 0.90270  0.25690  0.38510  Biso   1.000  O
  O43      1.0000 0.59730  0.75690  0.11490  Biso   1.000  O
  O44      1.0000 0.09730  0.74310  0.61490  Biso   1.000  O
  O45      1.0000 0.40740  0.34810  0.98080  Biso   1.000  O
  O46      1.0000 0.90740  0.15190  0.48080  Biso   1.000  O
  O47      1.0000 0.59260  0.65190  0.01920  Biso   1.000  O
  O48      1.0000 0.09260  0.84810  0.51920  Biso   1.000  O
  O49      1.0000 0.47900  0.16730  0.17680  Biso   1.000  O
  O50      1.0000 0.97900  0.33270  0.67680  Biso   1.000  O
  O51      1.0000 0.52100  0.83270  0.82320  Biso   1.000  O
  O52      1.0000 0.02100  0.66730  0.32320  Biso   1.000  O
  O53      1.0000 0.92190  0.96400  0.40340  Biso   1.000  O
  O54      1.0000 0.42190  0.53600  0.90340  Biso   1.000  O
  O55      1.0000 0.07810  0.03600  0.59660  Biso   1.000  O
  O56      1.0000 0.57810  0.46400  0.09660  Biso   1.000  O
  O57      1.0000 0.80830  0.97460  0.29140  Biso   1.000  O
  O58      1.0000 0.30830  0.52540  0.79140  Biso   1.000  O
  O59      1.0000 0.19170  0.02540  0.70860  Biso   1.000  O
  O60      1.0000 0.69170  0.47460  0.20860  Biso   1.000  O
  O61      1.0000 0.89180  0.17460  0.63120  Biso   1.000  O
  O62      1.0000 0.39180  0.32540  0.13120  Biso   1.000  O
  O63      1.0000 0.10820  0.82540  0.36880  Biso   1.000  O
  O64      1.0000 0.60820  0.67460  0.86880  Biso   1.000  O
  O65      1.0000 0.80410  0.96090  0.16270  Biso   1.000  O
  O66      1.0000 0.30410  0.53910  0.66270  Biso   1.000  O
  O67      1.0000 0.19590  0.03910  0.83730  Biso   1.000  O
  O68      1.0000 0.69590  0.46090  0.33730  Biso   1.000  O
  O69      1.0000 0.60060  0.05080  0.10910  Biso   1.000  O
  O70      1.0000 0.10060  0.44920  0.60910  Biso   1.000  O
  O71      1.0000 0.39940  0.94920  0.89090  Biso   1.000  O
  O72      1.0000 0.89940  0.55080  0.39090  Biso   1.000  O
  O73      1.0000 0.48360  0.05760  0.99860  Biso   1.000  O
  O74      1.0000 0.98360  0.44240  0.49860  Biso   1.000  O
  O75      1.0000 0.51640  0.94240  0.00140  Biso   1.000  O
  O76      1.0000 0.01640  0.55760  0.50140  Biso   1.000  O
