data_image0
_cell_length_a       8.0368
_cell_length_b       5.4782
_cell_length_c       25.5765
_cell_angle_alpha    90
_cell_angle_beta     91.251
_cell_angle_gamma    90

_symmetry_space_group_name_H-M    "P 1"
_symmetry_int_tables_number       1

loop_
  _symmetry_equiv_pos_as_xyz
  'x, y, z'

loop_
  _atom_site_label
  _atom_site_occupancy
  _atom_site_fract_x
  _atom_site_fract_y
  _atom_site_fract_z
  _atom_site_thermal_displace_type
  _atom_site_B_iso_or_equiv
  _atom_site_type_symbol
  C1       1.0000 0.94190  0.70630  0.08160  Biso   1.000  C
  C2       1.0000 0.55810  0.20630  0.41840  Biso   1.000  C
  C3       1.0000 0.05810  0.29370  0.91840  Biso   1.000  C
  C4       1.0000 0.44190  0.79370  0.58160  Biso   1.000  C
  H1       1.0000 0.87940  0.66880  0.05170  Biso   1.000  H
  H2       1.0000 0.62060  0.16880  0.44830  Biso   1.000  H
  H3       1.0000 0.12060  0.33120  0.94830  Biso   1.000  H
  H4       1.0000 0.37940  0.83120  0.55170  Biso   1.000  H
  C5       1.0000 0.72100  0.50200  0.11950  Biso   1.000  C
  C6       1.0000 0.77900  0.00200  0.38050  Biso   1.000  C
  C7       1.0000 0.27900  0.49800  0.88050  Biso   1.000  C
  C8       1.0000 0.22100  0.99800  0.61950  Biso   1.000  C
  H5       1.0000 0.71290  0.36400  0.14300  Biso   1.000  H
  H6       1.0000 0.78710  0.86400  0.35700  Biso   1.000  H
  H7       1.0000 0.28710  0.63600  0.85700  Biso   1.000  H
  H8       1.0000 0.21290  0.13600  0.64300  Biso   1.000  H
  H9       1.0000 0.71650  0.43710  0.08420  Biso   1.000  H
  H10      1.0000 0.78350  0.93710  0.41580  Biso   1.000  H
  H11      1.0000 0.28350  0.56290  0.91580  Biso   1.000  H
  H12      1.0000 0.21650  0.06290  0.58420  Biso   1.000  H
  C9       1.0000 0.56580  0.65500  0.12620  Biso   1.000  C
  C10      1.0000 0.93420  0.15500  0.37380  Biso   1.000  C
  C11      1.0000 0.43420  0.34500  0.87380  Biso   1.000  C
  C12      1.0000 0.06580  0.84500  0.62620  Biso   1.000  C
  H13      1.0000 0.46910  0.55020  0.12250  Biso   1.000  H
  H14      1.0000 0.03090  0.05020  0.37750  Biso   1.000  H
  H15      1.0000 0.53090  0.44980  0.87750  Biso   1.000  H
  H16      1.0000 0.96910  0.94980  0.62250  Biso   1.000  H
  H17      1.0000 0.55970  0.77530  0.09840  Biso   1.000  H
  H18      1.0000 0.94030  0.27530  0.40160  Biso   1.000  H
  H19      1.0000 0.44030  0.22470  0.90160  Biso   1.000  H
  H20      1.0000 0.05970  0.72470  0.59840  Biso   1.000  H
  C13      1.0000 0.55810  0.78780  0.17880  Biso   1.000  C
  C14      1.0000 0.94190  0.28780  0.32120  Biso   1.000  C
  C15      1.0000 0.44190  0.21220  0.82120  Biso   1.000  C
  C16      1.0000 0.05810  0.71220  0.67880  Biso   1.000  C
  H21      1.0000 0.44530  0.84050  0.18560  Biso   1.000  H
  H22      1.0000 0.05470  0.34050  0.31440  Biso   1.000  H
  H23      1.0000 0.55470  0.15950  0.81440  Biso   1.000  H
  H24      1.0000 0.94530  0.65950  0.68560  Biso   1.000  H
  H25      1.0000 0.63060  0.92930  0.17930  Biso   1.000  H
  H26      1.0000 0.86940  0.42930  0.32070  Biso   1.000  H
  H27      1.0000 0.36940  0.07070  0.82070  Biso   1.000  H
  H28      1.0000 0.13060  0.57070  0.67930  Biso   1.000  H
  C17      1.0000 0.61730  0.59750  0.21975  Biso   1.000  C
  C18      1.0000 0.88270  0.09750  0.28025  Biso   1.000  C
  C19      1.0000 0.38270  0.40250  0.78025  Biso   1.000  C
  C20      1.0000 0.11730  0.90250  0.71975  Biso   1.000  C
  C21      1.0000 0.11400  0.78600  0.07800  Biso   1.000  C
  C22      1.0000 0.38600  0.28600  0.42200  Biso   1.000  C
  C23      1.0000 0.88600  0.21400  0.92200  Biso   1.000  C
  C24      1.0000 0.61400  0.71400  0.57800  Biso   1.000  C
  C25      1.0000 0.19860  0.77570  0.03180  Biso   1.000  C
  C26      1.0000 0.30140  0.27570  0.46820  Biso   1.000  C
  C27      1.0000 0.80140  0.22430  0.96820  Biso   1.000  C
  C28      1.0000 0.69860  0.72430  0.53180  Biso   1.000  C
  H29      1.0000 0.19130  0.63340  0.01200  Biso   1.000  H
  H30      1.0000 0.30870  0.13340  0.48800  Biso   1.000  H
  H31      1.0000 0.80870  0.36660  0.98800  Biso   1.000  H
  H32      1.0000 0.69130  0.86660  0.51200  Biso   1.000  H
  C29      1.0000 0.29020  0.95830  0.01390  Biso   1.000  C
  C30      1.0000 0.20980  0.45830  0.48610  Biso   1.000  C
  C31      1.0000 0.70980  0.04170  0.98610  Biso   1.000  C
  C32      1.0000 0.79020  0.54170  0.51390  Biso   1.000  C
  H33      1.0000 0.34960  0.94150  0.98330  Biso   1.000  H
  H34      1.0000 0.15040  0.44150  0.51670  Biso   1.000  H
  H35      1.0000 0.65040  0.05850  0.01670  Biso   1.000  H
  H36      1.0000 0.84960  0.55850  0.48330  Biso   1.000  H
  C33      1.0000 0.29470  0.17620  0.04220  Biso   1.000  C
  C34      1.0000 0.20530  0.67620  0.45780  Biso   1.000  C
  C35      1.0000 0.70530  0.82380  0.95780  Biso   1.000  C
  C36      1.0000 0.79470  0.32380  0.54220  Biso   1.000  C
  H37      1.0000 0.35020  0.31040  0.02880  Biso   1.000  H
  H38      1.0000 0.14980  0.81040  0.47120  Biso   1.000  H
  H39      1.0000 0.64980  0.68960  0.97120  Biso   1.000  H
  H40      1.0000 0.85020  0.18960  0.52880  Biso   1.000  H
  C37      1.0000 0.21860  0.19570  0.08960  Biso   1.000  C
  C38      1.0000 0.28140  0.69570  0.41040  Biso   1.000  C
  C39      1.0000 0.78140  0.80430  0.91040  Biso   1.000  C
  C40      1.0000 0.71860  0.30430  0.58960  Biso   1.000  C
  H41      1.0000 0.22070  0.34150  0.10830  Biso   1.000  H
  H42      1.0000 0.27930  0.84150  0.39170  Biso   1.000  H
  H43      1.0000 0.77930  0.65850  0.89170  Biso   1.000  H
  H44      1.0000 0.72070  0.15850  0.60830  Biso   1.000  H
  C41      1.0000 0.13490  0.98130  0.10980  Biso   1.000  C
  C42      1.0000 0.36510  0.48130  0.39020  Biso   1.000  C
  C43      1.0000 0.86510  0.01870  0.89020  Biso   1.000  C
  C44      1.0000 0.63490  0.51870  0.60980  Biso   1.000  C
  N1       1.0000 0.89130  0.61110  0.12788  Biso   1.000  N
  N2       1.0000 0.60870  0.11110  0.37212  Biso   1.000  N
  N3       1.0000 0.10870  0.38890  0.87212  Biso   1.000  N
  N4       1.0000 0.39130  0.88890  0.62788  Biso   1.000  N
  O1       1.0000 0.08510  0.00290  0.16015  Biso   1.000  O
  O2       1.0000 0.41490  0.50290  0.33985  Biso   1.000  O
  O3       1.0000 0.91490  0.99710  0.83985  Biso   1.000  O
  O4       1.0000 0.58510  0.49710  0.66015  Biso   1.000  O
  O5       1.0000 0.76850  0.60190  0.23228  Biso   1.000  O
  O6       1.0000 0.73150  0.10190  0.26772  Biso   1.000  O
  O7       1.0000 0.23150  0.39810  0.76772  Biso   1.000  O
  O8       1.0000 0.26850  0.89810  0.73228  Biso   1.000  O
  O9       1.0000 0.50910  0.47850  0.24392  Biso   1.000  O
  O10      1.0000 0.99090  0.97850  0.25608  Biso   1.000  O
  O11      1.0000 0.49090  0.52150  0.75608  Biso   1.000  O
  O12      1.0000 0.00910  0.02150  0.74392  Biso   1.000  O
  O13      1.0000 0.14560  0.47860  0.21428  Biso   1.000  O
  O14      1.0000 0.35440  0.97860  0.28572  Biso   1.000  O
  O15      1.0000 0.85440  0.52140  0.78572  Biso   1.000  O
  O16      1.0000 0.64560  0.02140  0.71428  Biso   1.000  O
  H45      1.0000 0.24680  0.49700  0.22200  Biso   1.000  H
  H46      1.0000 0.25320  0.99700  0.27800  Biso   1.000  H
  H47      1.0000 0.75320  0.50300  0.77800  Biso   1.000  H
  H48      1.0000 0.74680  0.00300  0.72200  Biso   1.000  H
  H49      1.0000 0.12000  0.34400  0.20100  Biso   1.000  H
  H50      1.0000 0.38000  0.84400  0.29900  Biso   1.000  H
  H51      1.0000 0.88000  0.65600  0.79900  Biso   1.000  H
  H52      1.0000 0.62000  0.15600  0.70100  Biso   1.000  H
  Cu1      1.0000 0.94234  0.77833  0.19403  Biso   1.000  Cu
  Cu2      1.0000 0.55766  0.27833  0.30597  Biso   1.000  Cu
  Cu3      1.0000 0.05766  0.22167  0.80597  Biso   1.000  Cu
  Cu4      1.0000 0.44234  0.72167  0.69403  Biso   1.000  Cu
  C45      1.0000 0.08700  0.86200  0.07570  Biso   1.000  C
  C46      1.0000 0.41300  0.36200  0.42430  Biso   1.000  C
  C47      1.0000 0.91300  0.13800  0.92430  Biso   1.000  C
  C48      1.0000 0.58700  0.63800  0.57570  Biso   1.000  C
  C49      1.0000 0.14190  0.89730  0.02360  Biso   1.000  C
  C50      1.0000 0.35810  0.39730  0.47640  Biso   1.000  C
  C51      1.0000 0.85810  0.10270  0.97640  Biso   1.000  C
  C52      1.0000 0.64190  0.60270  0.52360  Biso   1.000  C
  C53      1.0000 0.00410  0.59000  0.09080  Biso   1.000  C
  C54      1.0000 0.49590  0.09000  0.40920  Biso   1.000  C
  C55      1.0000 0.99590  0.41000  0.90920  Biso   1.000  C
  C56      1.0000 0.50410  0.91000  0.59080  Biso   1.000  C
  C57      1.0000 0.79110  0.36820  0.13160  Biso   1.000  C
  C58      1.0000 0.70890  0.86820  0.36840  Biso   1.000  C
  C59      1.0000 0.20890  0.63180  0.86840  Biso   1.000  C
  C60      1.0000 0.29110  0.13180  0.63160  Biso   1.000  C
  C61      1.0000 0.61250  0.46600  0.12330  Biso   1.000  C
  C62      1.0000 0.88750  0.96600  0.37670  Biso   1.000  C
  C63      1.0000 0.38750  0.53400  0.87670  Biso   1.000  C
  C64      1.0000 0.11250  0.03400  0.62330  Biso   1.000  C
  C65      1.0000 0.27510  0.03510  0.01230  Biso   1.000  C
  C66      1.0000 0.22490  0.53510  0.48770  Biso   1.000  C
  C67      1.0000 0.72490  0.96490  0.98770  Biso   1.000  C
  C68      1.0000 0.77510  0.46490  0.51230  Biso   1.000  C
  C69      1.0000 0.56760  0.66000  0.16320  Biso   1.000  C
  C70      1.0000 0.93240  0.16000  0.33680  Biso   1.000  C
  C71      1.0000 0.43240  0.34000  0.83680  Biso   1.000  C
  C72      1.0000 0.06760  0.84000  0.66320  Biso   1.000  C
  C73      1.0000 0.35850  0.15320  0.05430  Biso   1.000  C
  C74      1.0000 0.14150  0.65320  0.44570  Biso   1.000  C
  C75      1.0000 0.64150  0.84680  0.94570  Biso   1.000  C
  C76      1.0000 0.85850  0.34680  0.55430  Biso   1.000  C
  C77      1.0000 0.30720  0.12720  0.10470  Biso   1.000  C
  C78      1.0000 0.19280  0.62720  0.39530  Biso   1.000  C
  C79      1.0000 0.69280  0.87280  0.89530  Biso   1.000  C
  C80      1.0000 0.80720  0.37280  0.60470  Biso   1.000  C
  C81      1.0000 0.15990  0.00300  0.11590  Biso   1.000  C
  C82      1.0000 0.34010  0.50300  0.38410  Biso   1.000  C
  C83      1.0000 0.84010  0.99700  0.88410  Biso   1.000  C
  C84      1.0000 0.65990  0.49700  0.61590  Biso   1.000  C
  H53      1.0000 0.08340  0.82190  0.99630  Biso   1.000  H
  H54      1.0000 0.41660  0.32190  0.50370  Biso   1.000  H
  H55      1.0000 0.91660  0.17810  0.00370  Biso   1.000  H
  H56      1.0000 0.58340  0.67810  0.49630  Biso   1.000  H
  H57      1.0000 0.01170  0.44350  0.07260  Biso   1.000  H
  H58      1.0000 0.48830  0.94350  0.42740  Biso   1.000  H
  H59      1.0000 0.98830  0.55650  0.92740  Biso   1.000  H
  H60      1.0000 0.51170  0.05650  0.57260  Biso   1.000  H
  H61      1.0000 0.80610  0.29120  0.16550  Biso   1.000  H
  H62      1.0000 0.69390  0.79120  0.33450  Biso   1.000  H
  H63      1.0000 0.19390  0.70880  0.83450  Biso   1.000  H
  H64      1.0000 0.30610  0.20880  0.66550  Biso   1.000  H
  H65      1.0000 0.82100  0.25410  0.10430  Biso   1.000  H
  H66      1.0000 0.67900  0.75410  0.39570  Biso   1.000  H
  H67      1.0000 0.17900  0.74590  0.89570  Biso   1.000  H
  H68      1.0000 0.32100  0.24590  0.60430  Biso   1.000  H
  H69      1.0000 0.53470  0.33090  0.12580  Biso   1.000  H
  H70      1.0000 0.96530  0.83090  0.37420  Biso   1.000  H
  H71      1.0000 0.46530  0.66910  0.87420  Biso   1.000  H
  H72      1.0000 0.03470  0.16910  0.62580  Biso   1.000  H
  H73      1.0000 0.60120  0.53390  0.08840  Biso   1.000  H
  H74      1.0000 0.89880  0.03390  0.41160  Biso   1.000  H
  H75      1.0000 0.39880  0.46610  0.91160  Biso   1.000  H
  H76      1.0000 0.10120  0.96610  0.58840  Biso   1.000  H
  H77      1.0000 0.31070  0.05190  0.97810  Biso   1.000  H
  H78      1.0000 0.18930  0.55190  0.52190  Biso   1.000  H
  H79      1.0000 0.68930  0.94810  0.02190  Biso   1.000  H
  H80      1.0000 0.81070  0.44810  0.47810  Biso   1.000  H
  H81      1.0000 0.62140  0.81220  0.15380  Biso   1.000  H
  H82      1.0000 0.87860  0.31220  0.34620  Biso   1.000  H
  H83      1.0000 0.37860  0.18780  0.84620  Biso   1.000  H
  H84      1.0000 0.12140  0.68780  0.65380  Biso   1.000  H
  H85      1.0000 0.44830  0.68740  0.16130  Biso   1.000  H
  H86      1.0000 0.05170  0.18740  0.33870  Biso   1.000  H
  H87      1.0000 0.55170  0.31260  0.83870  Biso   1.000  H
  H88      1.0000 0.94830  0.81260  0.66130  Biso   1.000  H
  H89      1.0000 0.45030  0.25080  0.04770  Biso   1.000  H
  H90      1.0000 0.04970  0.75080  0.45230  Biso   1.000  H
  H91      1.0000 0.54970  0.74920  0.95230  Biso   1.000  H
  H92      1.0000 0.95030  0.24920  0.54770  Biso   1.000  H
  H93      1.0000 0.37130  0.19310  0.13190  Biso   1.000  H
  H94      1.0000 0.12870  0.69310  0.36810  Biso   1.000  H
  H95      1.0000 0.62870  0.80690  0.86810  Biso   1.000  H
  H96      1.0000 0.87130  0.30690  0.63190  Biso   1.000  H
