data_image0
_cell_length_a       6.7752
_cell_length_b       12.384
_cell_length_c       7.8908
_cell_angle_alpha    90
_cell_angle_beta     90
_cell_angle_gamma    90

_symmetry_space_group_name_H-M    "P 1"
_symmetry_int_tables_number       1

loop_
  _symmetry_equiv_pos_as_xyz
  'x, y, z'

loop_
  _atom_site_label
  _atom_site_occupancy
  _atom_site_fract_x
  _atom_site_fract_y
  _atom_site_fract_z
  _atom_site_thermal_displace_type
  _atom_site_B_iso_or_equiv
  _atom_site_type_symbol
  Cu1      1.0000 0.00000  0.50000  0.50000  Biso   1.000  Cu
  Cu2      1.0000 0.00000  0.50000  0.00000  Biso   1.000  Cu
  Cu3      1.0000 0.50000  0.00000  0.50000  Biso   1.000  Cu
  Cu4      1.0000 0.50000  0.00000  0.00000  Biso   1.000  Cu
  F1       1.0000 0.00000  0.34210  0.60350  Biso   1.000  F
  F2       1.0000 0.00000  0.65790  0.10350  Biso   1.000  F
  F3       1.0000 0.00000  0.34210  0.89650  Biso   1.000  F
  F4       1.0000 0.00000  0.65790  0.39650  Biso   1.000  F
  F5       1.0000 0.50000  0.84210  0.60350  Biso   1.000  F
  F6       1.0000 0.50000  0.15790  0.10350  Biso   1.000  F
  F7       1.0000 0.50000  0.84210  0.89650  Biso   1.000  F
  F8       1.0000 0.50000  0.15790  0.39650  Biso   1.000  F
  H1       1.0000 0.00000  0.34000  0.75000  Biso   1.000  H
  H2       1.0000 0.00000  0.66000  0.25000  Biso   1.000  H
  H3       1.0000 0.50000  0.84000  0.75000  Biso   1.000  H
  H4       1.0000 0.50000  0.16000  0.25000  Biso   1.000  H
  F9       1.0000 0.00000  0.43370  0.25000  Biso   1.000  F
  F10      1.0000 0.00000  0.56630  0.75000  Biso   1.000  F
  F11      1.0000 0.50000  0.93370  0.25000  Biso   1.000  F
  F12      1.0000 0.50000  0.06630  0.75000  Biso   1.000  F
  F13      1.0000 0.00000  0.24110  0.25000  Biso   1.000  F
  F14      1.0000 0.00000  0.75890  0.75000  Biso   1.000  F
  F15      1.0000 0.50000  0.74110  0.25000  Biso   1.000  F
  F16      1.0000 0.50000  0.25890  0.75000  Biso   1.000  F
  H5       1.0000 0.00000  0.31500  0.25000  Biso   1.000  H
  H6       1.0000 0.00000  0.68500  0.75000  Biso   1.000  H
  H7       1.0000 0.50000  0.81500  0.25000  Biso   1.000  H
  H8       1.0000 0.50000  0.18500  0.75000  Biso   1.000  H
  C1       1.0000 0.39760  0.40939  0.46920  Biso   1.000  C
  C2       1.0000 0.60240  0.59061  0.96920  Biso   1.000  C
  C3       1.0000 0.60240  0.40939  0.03080  Biso   1.000  C
  C4       1.0000 0.39760  0.59061  0.53080  Biso   1.000  C
  C5       1.0000 0.89760  0.90939  0.46920  Biso   1.000  C
  C6       1.0000 0.10240  0.09061  0.96920  Biso   1.000  C
  C7       1.0000 0.10240  0.90939  0.03080  Biso   1.000  C
  C8       1.0000 0.89760  0.09061  0.53080  Biso   1.000  C
  C9       1.0000 0.60240  0.59061  0.53080  Biso   1.000  C
  C10      1.0000 0.39760  0.40939  0.03080  Biso   1.000  C
  C11      1.0000 0.39760  0.59061  0.96920  Biso   1.000  C
  C12      1.0000 0.60240  0.40939  0.46920  Biso   1.000  C
  C13      1.0000 0.10240  0.09061  0.53080  Biso   1.000  C
  C14      1.0000 0.89760  0.90939  0.03080  Biso   1.000  C
  C15      1.0000 0.89760  0.09061  0.96920  Biso   1.000  C
  C16      1.0000 0.10240  0.90939  0.46920  Biso   1.000  C
  H9       1.0000 0.32850  0.34410  0.44700  Biso   1.000  H
  H10      1.0000 0.67150  0.65590  0.94700  Biso   1.000  H
  H11      1.0000 0.67150  0.34410  0.05300  Biso   1.000  H
  H12      1.0000 0.32850  0.65590  0.55300  Biso   1.000  H
  H13      1.0000 0.82850  0.84410  0.44700  Biso   1.000  H
  H14      1.0000 0.17150  0.15590  0.94700  Biso   1.000  H
  H15      1.0000 0.17150  0.84410  0.05300  Biso   1.000  H
  H16      1.0000 0.82850  0.15590  0.55300  Biso   1.000  H
  H17      1.0000 0.67150  0.65590  0.55300  Biso   1.000  H
  H18      1.0000 0.32850  0.34410  0.05300  Biso   1.000  H
  H19      1.0000 0.32850  0.65590  0.94700  Biso   1.000  H
  H20      1.0000 0.67150  0.34410  0.44700  Biso   1.000  H
  H21      1.0000 0.17150  0.15590  0.55300  Biso   1.000  H
  H22      1.0000 0.82850  0.84410  0.05300  Biso   1.000  H
  H23      1.0000 0.82850  0.15590  0.94700  Biso   1.000  H
  H24      1.0000 0.17150  0.84410  0.44700  Biso   1.000  H
  N1       1.0000 0.29570  0.50000  0.50000  Biso   1.000  N
  N2       1.0000 0.70430  0.50000  0.00000  Biso   1.000  N
  N3       1.0000 0.79570  0.00000  0.50000  Biso   1.000  N
  N4       1.0000 0.20430  0.00000  0.00000  Biso   1.000  N
  N5       1.0000 0.70430  0.50000  0.50000  Biso   1.000  N
  N6       1.0000 0.29570  0.50000  0.00000  Biso   1.000  N
  N7       1.0000 0.20430  0.00000  0.50000  Biso   1.000  N
  N8       1.0000 0.79570  0.00000  0.00000  Biso   1.000  N
