data_image0
_cell_length_a       12.044
_cell_length_b       8.622
_cell_length_c       19.5257
_cell_angle_alpha    90
_cell_angle_beta     99.511
_cell_angle_gamma    90

_symmetry_space_group_name_H-M    "P 1"
_symmetry_int_tables_number       1

loop_
  _symmetry_equiv_pos_as_xyz
  'x, y, z'

loop_
  _atom_site_label
  _atom_site_occupancy
  _atom_site_fract_x
  _atom_site_fract_y
  _atom_site_fract_z
  _atom_site_thermal_displace_type
  _atom_site_B_iso_or_equiv
  _atom_site_type_symbol
  Cu1      1.0000 0.79422  0.41323  0.17272  Biso   1.000  Cu
  Cu2      1.0000 0.20578  0.41323  0.32728  Biso   1.000  Cu
  Cu3      1.0000 0.29422  0.91323  0.17272  Biso   1.000  Cu
  Cu4      1.0000 0.70578  0.91323  0.32728  Biso   1.000  Cu
  Cu5      1.0000 0.20578  0.58677  0.82728  Biso   1.000  Cu
  Cu6      1.0000 0.79422  0.58677  0.67272  Biso   1.000  Cu
  Cu7      1.0000 0.70578  0.08677  0.82728  Biso   1.000  Cu
  Cu8      1.0000 0.29422  0.08677  0.67272  Biso   1.000  Cu
  N1       1.0000 0.61293  0.36150  0.19440  Biso   1.000  N
  N2       1.0000 0.38707  0.36150  0.30560  Biso   1.000  N
  N3       1.0000 0.11293  0.86150  0.19440  Biso   1.000  N
  N4       1.0000 0.88707  0.86150  0.30560  Biso   1.000  N
  N5       1.0000 0.38707  0.63850  0.80560  Biso   1.000  N
  N6       1.0000 0.61293  0.63850  0.69440  Biso   1.000  N
  N7       1.0000 0.88707  0.13850  0.80560  Biso   1.000  N
  N8       1.0000 0.11293  0.13850  0.69440  Biso   1.000  N
  N9       1.0000 0.42133  0.44370  0.14285  Biso   1.000  N
  N10      1.0000 0.57867  0.44370  0.35715  Biso   1.000  N
  N11      1.0000 0.92133  0.94370  0.14285  Biso   1.000  N
  N12      1.0000 0.07867  0.94370  0.35715  Biso   1.000  N
  N13      1.0000 0.57867  0.55630  0.85715  Biso   1.000  N
  N14      1.0000 0.42133  0.55630  0.64285  Biso   1.000  N
  N15      1.0000 0.07867  0.05630  0.85715  Biso   1.000  N
  N16      1.0000 0.92133  0.05630  0.64285  Biso   1.000  N
  N17      1.0000 0.75140  0.41910  0.06891  Biso   1.000  N
  N18      1.0000 0.24860  0.41910  0.43109  Biso   1.000  N
  N19      1.0000 0.25140  0.91910  0.06891  Biso   1.000  N
  N20      1.0000 0.74860  0.91910  0.43109  Biso   1.000  N
  N21      1.0000 0.24860  0.58090  0.93109  Biso   1.000  N
  N22      1.0000 0.75140  0.58090  0.56891  Biso   1.000  N
  N23      1.0000 0.74860  0.08090  0.93109  Biso   1.000  N
  N24      1.0000 0.25140  0.08090  0.56891  Biso   1.000  N
  N25      1.0000 0.75901  0.64210  0.16667  Biso   1.000  N
  N26      1.0000 0.24099  0.64210  0.33333  Biso   1.000  N
  N27      1.0000 0.25901  0.14210  0.16667  Biso   1.000  N
  N28      1.0000 0.74099  0.14210  0.33333  Biso   1.000  N
  N29      1.0000 0.24099  0.35790  0.83333  Biso   1.000  N
  N30      1.0000 0.75901  0.35790  0.66667  Biso   1.000  N
  N31      1.0000 0.74099  0.85790  0.83333  Biso   1.000  N
  N32      1.0000 0.25901  0.85790  0.66667  Biso   1.000  N
  H1       1.0000 0.72150  0.66960  0.20100  Biso   1.000  H
  H2       1.0000 0.27850  0.66960  0.29900  Biso   1.000  H
  H3       1.0000 0.22150  0.16960  0.20100  Biso   1.000  H
  H4       1.0000 0.77850  0.16960  0.29900  Biso   1.000  H
  H5       1.0000 0.27850  0.33040  0.79900  Biso   1.000  H
  H6       1.0000 0.72150  0.33040  0.70100  Biso   1.000  H
  H7       1.0000 0.77850  0.83040  0.79900  Biso   1.000  H
  H8       1.0000 0.22150  0.83040  0.70100  Biso   1.000  H
  H9       1.0000 0.82330  0.69720  0.17140  Biso   1.000  H
  H10      1.0000 0.17670  0.69720  0.32860  Biso   1.000  H
  H11      1.0000 0.32330  0.19720  0.17140  Biso   1.000  H
  H12      1.0000 0.67670  0.19720  0.32860  Biso   1.000  H
  H13      1.0000 0.17670  0.30280  0.82860  Biso   1.000  H
  H14      1.0000 0.82330  0.30280  0.67140  Biso   1.000  H
  H15      1.0000 0.67670  0.80280  0.82860  Biso   1.000  H
  H16      1.0000 0.32330  0.80280  0.67140  Biso   1.000  H
  N33      1.0000 0.33994  0.69220  0.16913  Biso   1.000  N
  N34      1.0000 0.66006  0.69220  0.33087  Biso   1.000  N
  N35      1.0000 0.83994  0.19220  0.16913  Biso   1.000  N
  N36      1.0000 0.16006  0.19220  0.33087  Biso   1.000  N
  N37      1.0000 0.66006  0.30780  0.83087  Biso   1.000  N
  N38      1.0000 0.33994  0.30780  0.66913  Biso   1.000  N
  N39      1.0000 0.16006  0.80780  0.83087  Biso   1.000  N
  N40      1.0000 0.83994  0.80780  0.66913  Biso   1.000  N
  C1       1.0000 0.52393  0.40530  0.17194  Biso   1.000  C
  C2       1.0000 0.47607  0.40530  0.32806  Biso   1.000  C
  C3       1.0000 0.02393  0.90530  0.17194  Biso   1.000  C
  C4       1.0000 0.97607  0.90530  0.32806  Biso   1.000  C
  C5       1.0000 0.47607  0.59470  0.82806  Biso   1.000  C
  C6       1.0000 0.52393  0.59470  0.67194  Biso   1.000  C
  C7       1.0000 0.97607  0.09470  0.82806  Biso   1.000  C
  C8       1.0000 0.02393  0.09470  0.67194  Biso   1.000  C
  C9       1.0000 0.69030  0.67500  0.09920  Biso   1.000  C
  C10      1.0000 0.30970  0.67500  0.40080  Biso   1.000  C
  C11      1.0000 0.19030  0.17500  0.09920  Biso   1.000  C
  C12      1.0000 0.80970  0.17500  0.40080  Biso   1.000  C
  C13      1.0000 0.30970  0.32500  0.90080  Biso   1.000  C
  C14      1.0000 0.69030  0.32500  0.59920  Biso   1.000  C
  C15      1.0000 0.80970  0.82500  0.90080  Biso   1.000  C
  C16      1.0000 0.19030  0.82500  0.59920  Biso   1.000  C
  H17      1.0000 0.69500  0.78430  0.08840  Biso   1.000  H
  H18      1.0000 0.30500  0.78430  0.41160  Biso   1.000  H
  H19      1.0000 0.19500  0.28430  0.08840  Biso   1.000  H
  H20      1.0000 0.80500  0.28430  0.41160  Biso   1.000  H
  H21      1.0000 0.30500  0.21570  0.91160  Biso   1.000  H
  H22      1.0000 0.69500  0.21570  0.58840  Biso   1.000  H
  H23      1.0000 0.80500  0.71570  0.91160  Biso   1.000  H
  H24      1.0000 0.19500  0.71570  0.58840  Biso   1.000  H
  H25      1.0000 0.61210  0.65010  0.10060  Biso   1.000  H
  H26      1.0000 0.38790  0.65010  0.39940  Biso   1.000  H
  H27      1.0000 0.11210  0.15010  0.10060  Biso   1.000  H
  H28      1.0000 0.88790  0.15010  0.39940  Biso   1.000  H
  H29      1.0000 0.38790  0.34990  0.89940  Biso   1.000  H
  H30      1.0000 0.61210  0.34990  0.60060  Biso   1.000  H
  H31      1.0000 0.88790  0.84990  0.89940  Biso   1.000  H
  H32      1.0000 0.11210  0.84990  0.60060  Biso   1.000  H
  C17      1.0000 0.38220  0.57730  0.15856  Biso   1.000  C
  C18      1.0000 0.61780  0.57730  0.34144  Biso   1.000  C
  C19      1.0000 0.88220  0.07730  0.15856  Biso   1.000  C
  C20      1.0000 0.11780  0.07730  0.34144  Biso   1.000  C
  C21      1.0000 0.61780  0.42270  0.84144  Biso   1.000  C
  C22      1.0000 0.38220  0.42270  0.65856  Biso   1.000  C
  C23      1.0000 0.11780  0.92270  0.84144  Biso   1.000  C
  C24      1.0000 0.88220  0.92270  0.65856  Biso   1.000  C
  C25      1.0000 0.73140  0.58060  0.04506  Biso   1.000  C
  C26      1.0000 0.26860  0.58060  0.45494  Biso   1.000  C
  C27      1.0000 0.23140  0.08060  0.04506  Biso   1.000  C
  C28      1.0000 0.76860  0.08060  0.45494  Biso   1.000  C
  C29      1.0000 0.26860  0.41940  0.95494  Biso   1.000  C
  C30      1.0000 0.73140  0.41940  0.54506  Biso   1.000  C
  C31      1.0000 0.76860  0.91940  0.95494  Biso   1.000  C
  C32      1.0000 0.23140  0.91940  0.54506  Biso   1.000  C
  H33      1.0000 0.67610  0.58220  0.00290  Biso   1.000  H
  H34      1.0000 0.32390  0.58220  0.49710  Biso   1.000  H
  H35      1.0000 0.17610  0.08220  0.00290  Biso   1.000  H
  H36      1.0000 0.82390  0.08220  0.49710  Biso   1.000  H
  H37      1.0000 0.32390  0.41780  0.99710  Biso   1.000  H
  H38      1.0000 0.67610  0.41780  0.50290  Biso   1.000  H
  H39      1.0000 0.82390  0.91780  0.99710  Biso   1.000  H
  H40      1.0000 0.17610  0.91780  0.50290  Biso   1.000  H
  H41      1.0000 0.80080  0.62480  0.03470  Biso   1.000  H
  H42      1.0000 0.19920  0.62480  0.46530  Biso   1.000  H
  H43      1.0000 0.30080  0.12480  0.03470  Biso   1.000  H
  H44      1.0000 0.69920  0.12480  0.46530  Biso   1.000  H
  H45      1.0000 0.19920  0.37520  0.96530  Biso   1.000  H
  H46      1.0000 0.80080  0.37520  0.53470  Biso   1.000  H
  H47      1.0000 0.69920  0.87520  0.96530  Biso   1.000  H
  H48      1.0000 0.30080  0.87520  0.53470  Biso   1.000  H
  H49      1.0000 0.81000  0.36900  0.05260  Biso   1.000  H
  H50      1.0000 0.19000  0.36900  0.44740  Biso   1.000  H
  H51      1.0000 0.31000  0.86900  0.05260  Biso   1.000  H
  H52      1.0000 0.69000  0.86900  0.44740  Biso   1.000  H
  H53      1.0000 0.19000  0.63100  0.94740  Biso   1.000  H
  H54      1.0000 0.81000  0.63100  0.55260  Biso   1.000  H
  H55      1.0000 0.69000  0.13100  0.94740  Biso   1.000  H
  H56      1.0000 0.31000  0.13100  0.55260  Biso   1.000  H
  H57      1.0000 0.70200  0.36200  0.05620  Biso   1.000  H
  H58      1.0000 0.29800  0.36200  0.44380  Biso   1.000  H
  H59      1.0000 0.20200  0.86200  0.05620  Biso   1.000  H
  H60      1.0000 0.79800  0.86200  0.44380  Biso   1.000  H
  H61      1.0000 0.29800  0.63800  0.94380  Biso   1.000  H
  H62      1.0000 0.70200  0.63800  0.55620  Biso   1.000  H
  H63      1.0000 0.79800  0.13800  0.94380  Biso   1.000  H
  H64      1.0000 0.20200  0.13800  0.55620  Biso   1.000  H
  N41      1.0000 0.98856  0.52190  0.37599  Biso   1.000  N
  N42      1.0000 0.01144  0.52190  0.12401  Biso   1.000  N
  N43      1.0000 0.48856  0.02190  0.37599  Biso   1.000  N
  N44      1.0000 0.51144  0.02190  0.12401  Biso   1.000  N
  N45      1.0000 0.01144  0.47810  0.62401  Biso   1.000  N
  N46      1.0000 0.98856  0.47810  0.87599  Biso   1.000  N
  N47      1.0000 0.51144  0.97810  0.62401  Biso   1.000  N
  N48      1.0000 0.48856  0.97810  0.87599  Biso   1.000  N
  C33      1.0000 0.92044  0.48120  0.32066  Biso   1.000  C
  C34      1.0000 0.07956  0.48120  0.17934  Biso   1.000  C
  C35      1.0000 0.42044  0.98120  0.32066  Biso   1.000  C
  C36      1.0000 0.57956  0.98120  0.17934  Biso   1.000  C
  C37      1.0000 0.07956  0.51880  0.67934  Biso   1.000  C
  C38      1.0000 0.92044  0.51880  0.82066  Biso   1.000  C
  C39      1.0000 0.57956  0.01880  0.67934  Biso   1.000  C
  C40      1.0000 0.42044  0.01880  0.82066  Biso   1.000  C
  N49      1.0000 0.92730  0.66970  0.47121  Biso   1.000  N
  N50      1.0000 0.07270  0.66970  0.02879  Biso   1.000  N
  N51      1.0000 0.42730  0.16970  0.47121  Biso   1.000  N
  N52      1.0000 0.57270  0.16970  0.02879  Biso   1.000  N
  N53      1.0000 0.07270  0.33030  0.52879  Biso   1.000  N
  N54      1.0000 0.92730  0.33030  0.97121  Biso   1.000  N
  N55      1.0000 0.57270  0.83030  0.52879  Biso   1.000  N
  N56      1.0000 0.42730  0.83030  0.97121  Biso   1.000  N
  N57      1.0000 0.86910  0.43470  0.27005  Biso   1.000  N
  N58      1.0000 0.13090  0.43470  0.22995  Biso   1.000  N
  N59      1.0000 0.36910  0.93470  0.27005  Biso   1.000  N
  N60      1.0000 0.63090  0.93470  0.22995  Biso   1.000  N
  N61      1.0000 0.13090  0.56530  0.72995  Biso   1.000  N
  N62      1.0000 0.86910  0.56530  0.77005  Biso   1.000  N
  N63      1.0000 0.63090  0.06530  0.72995  Biso   1.000  N
  N64      1.0000 0.36910  0.06530  0.77005  Biso   1.000  N
  C41      1.0000 0.95100  0.60060  0.42543  Biso   1.000  C
  C42      1.0000 0.04900  0.60060  0.07457  Biso   1.000  C
  C43      1.0000 0.45100  0.10060  0.42543  Biso   1.000  C
  C44      1.0000 0.54900  0.10060  0.07457  Biso   1.000  C
  C45      1.0000 0.04900  0.39940  0.57457  Biso   1.000  C
  C46      1.0000 0.95100  0.39940  0.92543  Biso   1.000  C
  C47      1.0000 0.54900  0.89940  0.57457  Biso   1.000  C
  C48      1.0000 0.45100  0.89940  0.92543  Biso   1.000  C
