data_image0
_cell_length_a       12.0307
_cell_length_b       8.6139
_cell_length_c       19.528
_cell_angle_alpha    90
_cell_angle_beta     99.499
_cell_angle_gamma    90

_symmetry_space_group_name_H-M    "P 1"
_symmetry_int_tables_number       1

loop_
  _symmetry_equiv_pos_as_xyz
  'x, y, z'

loop_
  _atom_site_label
  _atom_site_occupancy
  _atom_site_fract_x
  _atom_site_fract_y
  _atom_site_fract_z
  _atom_site_thermal_displace_type
  _atom_site_B_iso_or_equiv
  _atom_site_type_symbol
  Cu1      1.0000 0.20580  0.08679  0.32724  Biso   1.000  Cu
  Cu2      1.0000 0.70580  0.58679  0.32724  Biso   1.000  Cu
  Cu3      1.0000 0.79420  0.08679  0.17276  Biso   1.000  Cu
  Cu4      1.0000 0.29420  0.58679  0.17276  Biso   1.000  Cu
  Cu5      1.0000 0.79420  0.91321  0.67276  Biso   1.000  Cu
  Cu6      1.0000 0.29420  0.41321  0.67276  Biso   1.000  Cu
  Cu7      1.0000 0.20580  0.91321  0.82724  Biso   1.000  Cu
  Cu8      1.0000 0.70580  0.41321  0.82724  Biso   1.000  Cu
  N1       1.0000 0.07200  0.82970  0.02870  Biso   1.000  N
  N2       1.0000 0.57200  0.32970  0.02870  Biso   1.000  N
  N3       1.0000 0.92800  0.82970  0.47130  Biso   1.000  N
  N4       1.0000 0.42800  0.32970  0.47130  Biso   1.000  N
  N5       1.0000 0.92800  0.17030  0.97130  Biso   1.000  N
  N6       1.0000 0.42800  0.67030  0.97130  Biso   1.000  N
  N7       1.0000 0.07200  0.17030  0.52870  Biso   1.000  N
  N8       1.0000 0.57200  0.67030  0.52870  Biso   1.000  N
  N9       1.0000 0.01170  0.97800  0.12420  Biso   1.000  N
  N10      1.0000 0.51170  0.47800  0.12420  Biso   1.000  N
  N11      1.0000 0.98830  0.97800  0.37580  Biso   1.000  N
  N12      1.0000 0.48830  0.47800  0.37580  Biso   1.000  N
  N13      1.0000 0.98830  0.02200  0.87580  Biso   1.000  N
  N14      1.0000 0.48830  0.52200  0.87580  Biso   1.000  N
  N15      1.0000 0.01170  0.02200  0.62420  Biso   1.000  N
  N16      1.0000 0.51170  0.52200  0.62420  Biso   1.000  N
  N17      1.0000 0.13130  0.06630  0.23020  Biso   1.000  N
  N18      1.0000 0.63130  0.56630  0.23020  Biso   1.000  N
  N19      1.0000 0.86870  0.06630  0.26980  Biso   1.000  N
  N20      1.0000 0.36870  0.56630  0.26980  Biso   1.000  N
  N21      1.0000 0.86870  0.93370  0.76980  Biso   1.000  N
  N22      1.0000 0.36870  0.43370  0.76980  Biso   1.000  N
  N23      1.0000 0.13130  0.93370  0.73020  Biso   1.000  N
  N24      1.0000 0.63130  0.43370  0.73020  Biso   1.000  N
  N25      1.0000 0.38700  0.13830  0.30580  Biso   1.000  N
  N26      1.0000 0.88700  0.63830  0.30580  Biso   1.000  N
  N27      1.0000 0.61300  0.13830  0.19420  Biso   1.000  N
  N28      1.0000 0.11300  0.63830  0.19420  Biso   1.000  N
  N29      1.0000 0.61300  0.86170  0.69420  Biso   1.000  N
  N30      1.0000 0.11300  0.36170  0.69420  Biso   1.000  N
  N31      1.0000 0.38700  0.86170  0.80580  Biso   1.000  N
  N32      1.0000 0.88700  0.36170  0.80580  Biso   1.000  N
  N33      1.0000 0.57810  0.05590  0.35750  Biso   1.000  N
  N34      1.0000 0.07810  0.55590  0.35750  Biso   1.000  N
  N35      1.0000 0.42190  0.05590  0.14250  Biso   1.000  N
  N36      1.0000 0.92190  0.55590  0.14250  Biso   1.000  N
  N37      1.0000 0.42190  0.94410  0.64250  Biso   1.000  N
  N38      1.0000 0.92190  0.44410  0.64250  Biso   1.000  N
  N39      1.0000 0.57810  0.94410  0.85750  Biso   1.000  N
  N40      1.0000 0.07810  0.44410  0.85750  Biso   1.000  N
  N41      1.0000 0.66010  0.80460  0.33080  Biso   1.000  N
  N42      1.0000 0.16010  0.30460  0.33080  Biso   1.000  N
  N43      1.0000 0.33990  0.80460  0.16920  Biso   1.000  N
  N44      1.0000 0.83990  0.30460  0.16920  Biso   1.000  N
  N45      1.0000 0.33990  0.19540  0.66920  Biso   1.000  N
  N46      1.0000 0.83990  0.69540  0.66920  Biso   1.000  N
  N47      1.0000 0.66010  0.19540  0.83080  Biso   1.000  N
  N48      1.0000 0.16010  0.69540  0.83080  Biso   1.000  N
  N49      1.0000 0.24080  0.85920  0.33270  Biso   1.000  N
  N50      1.0000 0.74080  0.35920  0.33270  Biso   1.000  N
  N51      1.0000 0.75920  0.85920  0.16730  Biso   1.000  N
  N52      1.0000 0.25920  0.35920  0.16730  Biso   1.000  N
  N53      1.0000 0.75920  0.14080  0.66730  Biso   1.000  N
  N54      1.0000 0.25920  0.64080  0.66730  Biso   1.000  N
  N55      1.0000 0.24080  0.14080  0.83270  Biso   1.000  N
  N56      1.0000 0.74080  0.64080  0.83270  Biso   1.000  N
  N57      1.0000 0.24980  0.08370  0.43120  Biso   1.000  N
  N58      1.0000 0.74980  0.58370  0.43120  Biso   1.000  N
  N59      1.0000 0.75020  0.08370  0.06880  Biso   1.000  N
  N60      1.0000 0.25020  0.58370  0.06880  Biso   1.000  N
  N61      1.0000 0.75020  0.91630  0.56880  Biso   1.000  N
  N62      1.0000 0.25020  0.41630  0.56880  Biso   1.000  N
  N63      1.0000 0.24980  0.91630  0.93120  Biso   1.000  N
  N64      1.0000 0.74980  0.41630  0.93120  Biso   1.000  N
  C1       1.0000 0.04970  0.89950  0.07400  Biso   1.000  C
  C2       1.0000 0.54970  0.39950  0.07400  Biso   1.000  C
  C3       1.0000 0.95030  0.89950  0.42600  Biso   1.000  C
  C4       1.0000 0.45030  0.39950  0.42600  Biso   1.000  C
  C5       1.0000 0.95030  0.10050  0.92600  Biso   1.000  C
  C6       1.0000 0.45030  0.60050  0.92600  Biso   1.000  C
  C7       1.0000 0.04970  0.10050  0.57400  Biso   1.000  C
  C8       1.0000 0.54970  0.60050  0.57400  Biso   1.000  C
  C9       1.0000 0.07940  0.01940  0.17950  Biso   1.000  C
  C10      1.0000 0.57940  0.51940  0.17950  Biso   1.000  C
  C11      1.0000 0.92060  0.01940  0.32050  Biso   1.000  C
  C12      1.0000 0.42060  0.51940  0.32050  Biso   1.000  C
  C13      1.0000 0.92060  0.98060  0.82050  Biso   1.000  C
  C14      1.0000 0.42060  0.48060  0.82050  Biso   1.000  C
  C15      1.0000 0.07940  0.98060  0.67950  Biso   1.000  C
  C16      1.0000 0.57940  0.48060  0.67950  Biso   1.000  C
  C17      1.0000 0.47620  0.09510  0.32770  Biso   1.000  C
  C18      1.0000 0.97620  0.59510  0.32770  Biso   1.000  C
  C19      1.0000 0.52380  0.09510  0.17230  Biso   1.000  C
  C20      1.0000 0.02380  0.59510  0.17230  Biso   1.000  C
  C21      1.0000 0.52380  0.90490  0.67230  Biso   1.000  C
  C22      1.0000 0.02380  0.40490  0.67230  Biso   1.000  C
  C23      1.0000 0.47620  0.90490  0.82770  Biso   1.000  C
  C24      1.0000 0.97620  0.40490  0.82770  Biso   1.000  C
  C25      1.0000 0.61900  0.91900  0.34130  Biso   1.000  C
  C26      1.0000 0.11900  0.41900  0.34130  Biso   1.000  C
  C27      1.0000 0.38100  0.91900  0.15870  Biso   1.000  C
  C28      1.0000 0.88100  0.41900  0.15870  Biso   1.000  C
  C29      1.0000 0.38100  0.08100  0.65870  Biso   1.000  C
  C30      1.0000 0.88100  0.58100  0.65870  Biso   1.000  C
  C31      1.0000 0.61900  0.08100  0.84130  Biso   1.000  C
  C32      1.0000 0.11900  0.58100  0.84130  Biso   1.000  C
  C33      1.0000 0.31110  0.82610  0.40100  Biso   1.000  C
  C34      1.0000 0.81110  0.32610  0.40100  Biso   1.000  C
  C35      1.0000 0.68890  0.82610  0.09900  Biso   1.000  C
  C36      1.0000 0.18890  0.32610  0.09900  Biso   1.000  C
  C37      1.0000 0.68890  0.17390  0.59900  Biso   1.000  C
  C38      1.0000 0.18890  0.67390  0.59900  Biso   1.000  C
  C39      1.0000 0.31110  0.17390  0.90100  Biso   1.000  C
  C40      1.0000 0.81110  0.67390  0.90100  Biso   1.000  C
  H1       1.0000 0.30560  0.71690  0.41210  Biso   1.000  H
  H2       1.0000 0.80560  0.21690  0.41210  Biso   1.000  H
  H3       1.0000 0.69440  0.71690  0.08790  Biso   1.000  H
  H4       1.0000 0.19440  0.21690  0.08790  Biso   1.000  H
  H5       1.0000 0.69440  0.28310  0.58790  Biso   1.000  H
  H6       1.0000 0.19440  0.78310  0.58790  Biso   1.000  H
  H7       1.0000 0.30560  0.28310  0.91210  Biso   1.000  H
  H8       1.0000 0.80560  0.78310  0.91210  Biso   1.000  H
  H9       1.0000 0.38940  0.84940  0.39910  Biso   1.000  H
  H10      1.0000 0.88940  0.34940  0.39910  Biso   1.000  H
  H11      1.0000 0.61060  0.84940  0.10090  Biso   1.000  H
  H12      1.0000 0.11060  0.34940  0.10090  Biso   1.000  H
  H13      1.0000 0.61060  0.15060  0.60090  Biso   1.000  H
  H14      1.0000 0.11060  0.65060  0.60090  Biso   1.000  H
  H15      1.0000 0.38940  0.15060  0.89910  Biso   1.000  H
  H16      1.0000 0.88940  0.65060  0.89910  Biso   1.000  H
  H17      1.0000 0.19790  0.87750  0.46480  Biso   1.000  H
  H18      1.0000 0.69790  0.37750  0.46480  Biso   1.000  H
  H19      1.0000 0.80210  0.87750  0.03520  Biso   1.000  H
  H20      1.0000 0.30210  0.37750  0.03520  Biso   1.000  H
  H21      1.0000 0.80210  0.12250  0.53520  Biso   1.000  H
  H22      1.0000 0.30210  0.62250  0.53520  Biso   1.000  H
  H23      1.0000 0.19790  0.12250  0.96480  Biso   1.000  H
  H24      1.0000 0.69790  0.62250  0.96480  Biso   1.000  H
  H25      1.0000 0.32050  0.92110  0.49750  Biso   1.000  H
  H26      1.0000 0.82050  0.42110  0.49750  Biso   1.000  H
  H27      1.0000 0.67950  0.92110  0.00250  Biso   1.000  H
  H28      1.0000 0.17950  0.42110  0.00250  Biso   1.000  H
  H29      1.0000 0.67950  0.07890  0.50250  Biso   1.000  H
  H30      1.0000 0.17950  0.57890  0.50250  Biso   1.000  H
  H31      1.0000 0.32050  0.07890  0.99750  Biso   1.000  H
  H32      1.0000 0.82050  0.57890  0.99750  Biso   1.000  H
  C41      1.0000 0.27270  0.92040  0.45480  Biso   1.000  C
  C42      1.0000 0.77270  0.42040  0.45480  Biso   1.000  C
  C43      1.0000 0.72730  0.92040  0.04520  Biso   1.000  C
  C44      1.0000 0.22730  0.42040  0.04520  Biso   1.000  C
  C45      1.0000 0.72730  0.07960  0.54520  Biso   1.000  C
  C46      1.0000 0.22730  0.57960  0.54520  Biso   1.000  C
  C47      1.0000 0.27270  0.07960  0.95480  Biso   1.000  C
  C48      1.0000 0.77270  0.57960  0.95480  Biso   1.000  C
