data_image0
_cell_length_a       15.401
_cell_length_b       17.141
_cell_length_c       9.0521
_cell_angle_alpha    90
_cell_angle_beta     90
_cell_angle_gamma    90

_symmetry_space_group_name_H-M    "P 1"
_symmetry_int_tables_number       1

loop_
  _symmetry_equiv_pos_as_xyz
  'x, y, z'

loop_
  _atom_site_label
  _atom_site_occupancy
  _atom_site_fract_x
  _atom_site_fract_y
  _atom_site_fract_z
  _atom_site_thermal_displace_type
  _atom_site_B_iso_or_equiv
  _atom_site_type_symbol
  C1       1.0000 0.29710  0.27880  0.73490  Biso   1.000  C
  C2       1.0000 0.70290  0.72120  0.23490  Biso   1.000  C
  C3       1.0000 0.20290  0.77880  0.23490  Biso   1.000  C
  C4       1.0000 0.79710  0.22120  0.73490  Biso   1.000  C
  H1       1.0000 0.30860  0.33210  0.73490  Biso   1.000  H
  H2       1.0000 0.69140  0.66790  0.23490  Biso   1.000  H
  H3       1.0000 0.19140  0.83210  0.23490  Biso   1.000  H
  H4       1.0000 0.80860  0.16790  0.73490  Biso   1.000  H
  C5       1.0000 0.25580  0.16560  0.66620  Biso   1.000  C
  C6       1.0000 0.74420  0.83440  0.16620  Biso   1.000  C
  C7       1.0000 0.24420  0.66560  0.16620  Biso   1.000  C
  C8       1.0000 0.75580  0.33440  0.66620  Biso   1.000  C
  H5       1.0000 0.23300  0.12550  0.60890  Biso   1.000  H
  H6       1.0000 0.76700  0.87450  0.10890  Biso   1.000  H
  H7       1.0000 0.26700  0.62550  0.10890  Biso   1.000  H
  H8       1.0000 0.73300  0.37450  0.60890  Biso   1.000  H
  C9       1.0000 0.28850  0.15800  0.80530  Biso   1.000  C
  C10      1.0000 0.71150  0.84200  0.30530  Biso   1.000  C
  C11      1.0000 0.21150  0.65800  0.30530  Biso   1.000  C
  C12      1.0000 0.78850  0.34200  0.80530  Biso   1.000  C
  H9       1.0000 0.29250  0.11230  0.86040  Biso   1.000  H
  H10      1.0000 0.70750  0.88770  0.36040  Biso   1.000  H
  H11      1.0000 0.20750  0.61230  0.36040  Biso   1.000  H
  H12      1.0000 0.79250  0.38770  0.86040  Biso   1.000  H
  C13      1.0000 0.35770  0.25150  0.98660  Biso   1.000  C
  C14      1.0000 0.64230  0.74850  0.48660  Biso   1.000  C
  C15      1.0000 0.14230  0.75150  0.48660  Biso   1.000  C
  C16      1.0000 0.85770  0.24850  0.98660  Biso   1.000  C
  H13      1.0000 0.33300  0.29970  0.02400  Biso   1.000  H
  H14      1.0000 0.66700  0.70030  0.52400  Biso   1.000  H
  H15      1.0000 0.16700  0.79970  0.52400  Biso   1.000  H
  H16      1.0000 0.83300  0.20030  0.02400  Biso   1.000  H
  H17      1.0000 0.34620  0.21100  0.05880  Biso   1.000  H
  H18      1.0000 0.65380  0.78900  0.55880  Biso   1.000  H
  H19      1.0000 0.15380  0.71100  0.55880  Biso   1.000  H
  H20      1.0000 0.84620  0.28900  0.05880  Biso   1.000  H
  C17      1.0000 0.45430  0.26140  0.97050  Biso   1.000  C
  C18      1.0000 0.54570  0.73860  0.47050  Biso   1.000  C
  C19      1.0000 0.04570  0.76140  0.47050  Biso   1.000  C
  C20      1.0000 0.95430  0.23860  0.97050  Biso   1.000  C
  H21      1.0000 0.46580  0.31140  0.92450  Biso   1.000  H
  H22      1.0000 0.53420  0.68860  0.42450  Biso   1.000  H
  H23      1.0000 0.03420  0.81140  0.42450  Biso   1.000  H
  H24      1.0000 0.96580  0.18860  0.92450  Biso   1.000  H
  H25      1.0000 0.48020  0.26220  0.06820  Biso   1.000  H
  H26      1.0000 0.51980  0.73780  0.56820  Biso   1.000  H
  H27      1.0000 0.01980  0.76220  0.56820  Biso   1.000  H
  H28      1.0000 0.98020  0.23780  0.06820  Biso   1.000  H
  C21      1.0000 0.49790  0.19800  0.88000  Biso   1.000  C
  C22      1.0000 0.50210  0.80200  0.38000  Biso   1.000  C
  C23      1.0000 0.00210  0.69800  0.38000  Biso   1.000  C
  C24      1.0000 0.99790  0.30200  0.88000  Biso   1.000  C
  H29      1.0000 0.48460  0.14760  0.92330  Biso   1.000  H
  H30      1.0000 0.51540  0.85240  0.42330  Biso   1.000  H
  H31      1.0000 0.01540  0.64760  0.42330  Biso   1.000  H
  H32      1.0000 0.98460  0.35240  0.92330  Biso   1.000  H
  H33      1.0000 0.47430  0.19870  0.78070  Biso   1.000  H
  H34      1.0000 0.52570  0.80130  0.28070  Biso   1.000  H
  H35      1.0000 0.02570  0.69870  0.28070  Biso   1.000  H
  H36      1.0000 0.97430  0.30130  0.78070  Biso   1.000  H
  C25      1.0000 0.59760  0.20750  0.87150  Biso   1.000  C
  C26      1.0000 0.40240  0.79250  0.37150  Biso   1.000  C
  C27      1.0000 0.90240  0.70750  0.37150  Biso   1.000  C
  C28      1.0000 0.09760  0.29250  0.87150  Biso   1.000  C
  H37      1.0000 0.61160  0.26210  0.85610  Biso   1.000  H
  H38      1.0000 0.38840  0.73790  0.35610  Biso   1.000  H
  H39      1.0000 0.88840  0.76210  0.35610  Biso   1.000  H
  H40      1.0000 0.11160  0.23790  0.85610  Biso   1.000  H
  H41      1.0000 0.61950  0.17830  0.78770  Biso   1.000  H
  H42      1.0000 0.38050  0.82170  0.28770  Biso   1.000  H
  H43      1.0000 0.88050  0.67830  0.28770  Biso   1.000  H
  H44      1.0000 0.11950  0.32170  0.78770  Biso   1.000  H
  C29      1.0000 0.65420  0.22180  0.13080  Biso   1.000  C
  C30      1.0000 0.34580  0.77820  0.63080  Biso   1.000  C
  C31      1.0000 0.84580  0.72180  0.63080  Biso   1.000  C
  C32      1.0000 0.15420  0.27820  0.13080  Biso   1.000  C
  H45      1.0000 0.63890  0.27390  0.14310  Biso   1.000  H
  H46      1.0000 0.36110  0.72610  0.64310  Biso   1.000  H
  H47      1.0000 0.86110  0.77390  0.64310  Biso   1.000  H
  H48      1.0000 0.13890  0.22610  0.14310  Biso   1.000  H
  C33      1.0000 0.67190  0.10720  0.03100  Biso   1.000  C
  C34      1.0000 0.32810  0.89280  0.53100  Biso   1.000  C
  C35      1.0000 0.82810  0.60720  0.53100  Biso   1.000  C
  C36      1.0000 0.17190  0.39280  0.03100  Biso   1.000  C
  H49      1.0000 0.67170  0.06590  0.96450  Biso   1.000  H
  H50      1.0000 0.32830  0.93410  0.46450  Biso   1.000  H
  H51      1.0000 0.82830  0.56590  0.46450  Biso   1.000  H
  H52      1.0000 0.17170  0.43410  0.96450  Biso   1.000  H
  C37      1.0000 0.70390  0.10610  0.17030  Biso   1.000  C
  C38      1.0000 0.29610  0.89390  0.67030  Biso   1.000  C
  C39      1.0000 0.79610  0.60610  0.67030  Biso   1.000  C
  C40      1.0000 0.20390  0.39390  0.17030  Biso   1.000  C
  H53      1.0000 0.72950  0.06350  0.21660  Biso   1.000  H
  H54      1.0000 0.27050  0.93650  0.71660  Biso   1.000  H
  H55      1.0000 0.77050  0.56350  0.71660  Biso   1.000  H
  H56      1.0000 0.22950  0.43650  0.21660  Biso   1.000  H
  C41      1.0000 0.89290  0.39280  0.28110  Biso   1.000  C
  C42      1.0000 0.10710  0.60720  0.78110  Biso   1.000  C
  C43      1.0000 0.60710  0.89280  0.78110  Biso   1.000  C
  C44      1.0000 0.39290  0.10720  0.28110  Biso   1.000  C
  C45      1.0000 0.83720  0.44030  0.20330  Biso   1.000  C
  C46      1.0000 0.16280  0.55970  0.70330  Biso   1.000  C
  C47      1.0000 0.66280  0.94030  0.70330  Biso   1.000  C
  C48      1.0000 0.33720  0.05970  0.20330  Biso   1.000  C
  H57      1.0000 0.77950  0.42570  0.19170  Biso   1.000  H
  H58      1.0000 0.22050  0.57430  0.69170  Biso   1.000  H
  H59      1.0000 0.72050  0.92570  0.69170  Biso   1.000  H
  H60      1.0000 0.27950  0.07430  0.19170  Biso   1.000  H
  C49      1.0000 0.86630  0.50970  0.14210  Biso   1.000  C
  C50      1.0000 0.13370  0.49030  0.64210  Biso   1.000  C
  C51      1.0000 0.63370  0.00970  0.64210  Biso   1.000  C
  C52      1.0000 0.36630  0.99030  0.14210  Biso   1.000  C
  C53      1.0000 0.95220  0.53230  0.16420  Biso   1.000  C
  C54      1.0000 0.04780  0.46770  0.66420  Biso   1.000  C
  C55      1.0000 0.54780  0.03230  0.66420  Biso   1.000  C
  C56      1.0000 0.45220  0.96770  0.16420  Biso   1.000  C
  H61      1.0000 0.97210  0.57890  0.12410  Biso   1.000  H
  H62      1.0000 0.02790  0.42110  0.62410  Biso   1.000  H
  H63      1.0000 0.52790  0.07890  0.62410  Biso   1.000  H
  H64      1.0000 0.47210  0.92110  0.12410  Biso   1.000  H
  C57      1.0000 0.00740  0.48640  0.24440  Biso   1.000  C
  C58      1.0000 0.99260  0.51360  0.74440  Biso   1.000  C
  C59      1.0000 0.49260  0.98640  0.74440  Biso   1.000  C
  C60      1.0000 0.50740  0.01360  0.24440  Biso   1.000  C
  H65      1.0000 0.06390  0.50300  0.26250  Biso   1.000  H
  H66      1.0000 0.93610  0.49700  0.76250  Biso   1.000  H
  H67      1.0000 0.43610  0.00300  0.76250  Biso   1.000  H
  H68      1.0000 0.56390  0.99700  0.26250  Biso   1.000  H
  C61      1.0000 0.97940  0.41480  0.29890  Biso   1.000  C
  C62      1.0000 0.02060  0.58520  0.79890  Biso   1.000  C
  C63      1.0000 0.52060  0.91480  0.79890  Biso   1.000  C
  C64      1.0000 0.47940  0.08520  0.29890  Biso   1.000  C
  H69      1.0000 0.01810  0.38190  0.34690  Biso   1.000  H
  H70      1.0000 0.98190  0.61810  0.84690  Biso   1.000  H
  H71      1.0000 0.48190  0.88190  0.84690  Biso   1.000  H
  H72      1.0000 0.51810  0.11810  0.34690  Biso   1.000  H
  C65      1.0000 0.86140  0.31690  0.34380  Biso   1.000  C
  C66      1.0000 0.13860  0.68310  0.84380  Biso   1.000  C
  C67      1.0000 0.63860  0.81690  0.84380  Biso   1.000  C
  C68      1.0000 0.36140  0.18310  0.34380  Biso   1.000  C
  C69      1.0000 0.80560  0.56220  0.05390  Biso   1.000  C
  C70      1.0000 0.19440  0.43780  0.55390  Biso   1.000  C
  C71      1.0000 0.69440  0.06220  0.55390  Biso   1.000  C
  C72      1.0000 0.30560  0.93780  0.05390  Biso   1.000  C
  N1       1.0000 0.26210  0.24140  0.62530  Biso   1.000  N
  N2       1.0000 0.73790  0.75860  0.12530  Biso   1.000  N
  N3       1.0000 0.23790  0.74140  0.12530  Biso   1.000  N
  N4       1.0000 0.76210  0.25860  0.62530  Biso   1.000  N
  N5       1.0000 0.31440  0.23110  0.84760  Biso   1.000  N
  N6       1.0000 0.68560  0.76890  0.34760  Biso   1.000  N
  N7       1.0000 0.18560  0.73110  0.34760  Biso   1.000  N
  N8       1.0000 0.81440  0.26890  0.84760  Biso   1.000  N
  N9       1.0000 0.64030  0.18010  0.00670  Biso   1.000  N
  N10      1.0000 0.35970  0.81990  0.50670  Biso   1.000  N
  N11      1.0000 0.85970  0.68010  0.50670  Biso   1.000  N
  N12      1.0000 0.14030  0.31990  0.00670  Biso   1.000  N
  N13      1.0000 0.69220  0.17900  0.23190  Biso   1.000  N
  N14      1.0000 0.30780  0.82100  0.73190  Biso   1.000  N
  N15      1.0000 0.80780  0.67900  0.73190  Biso   1.000  N
  N16      1.0000 0.19220  0.32100  0.23190  Biso   1.000  N
  O1       1.0000 0.78000  0.30650  0.33900  Biso   1.000  O
  O2       1.0000 0.22000  0.69350  0.83900  Biso   1.000  O
  O3       1.0000 0.72000  0.80650  0.83900  Biso   1.000  O
  O4       1.0000 0.28000  0.19350  0.33900  Biso   1.000  O
  O5       1.0000 0.91490  0.26930  0.39190  Biso   1.000  O
  O6       1.0000 0.08510  0.73070  0.89190  Biso   1.000  O
  O7       1.0000 0.58510  0.76930  0.89190  Biso   1.000  O
  O8       1.0000 0.41490  0.23070  0.39190  Biso   1.000  O
  O9       1.0000 0.83410  0.62890  0.02560  Biso   1.000  O
  O10      1.0000 0.16590  0.37110  0.52560  Biso   1.000  O
  O11      1.0000 0.66590  0.12890  0.52560  Biso   1.000  O
  O12      1.0000 0.33410  0.87110  0.02560  Biso   1.000  O
  O13      1.0000 0.73440  0.53600  0.01370  Biso   1.000  O
  O14      1.0000 0.26560  0.46400  0.51370  Biso   1.000  O
  O15      1.0000 0.76560  0.03600  0.51370  Biso   1.000  O
  O16      1.0000 0.23440  0.96400  0.01370  Biso   1.000  O
  O17      1.0000 0.58980  0.28340  0.45380  Biso   1.000  O
  O18      1.0000 0.41020  0.71660  0.95380  Biso   1.000  O
  O19      1.0000 0.91020  0.78340  0.95380  Biso   1.000  O
  O20      1.0000 0.08980  0.21660  0.45380  Biso   1.000  O
  Cu1      1.0000 0.72173  0.21815  0.42936  Biso   1.000  Cu
  Cu2      1.0000 0.27827  0.78185  0.92936  Biso   1.000  Cu
  Cu3      1.0000 0.77827  0.71815  0.92936  Biso   1.000  Cu
  Cu4      1.0000 0.22173  0.28185  0.42936  Biso   1.000  Cu
  O21      1.0000 0.89890  0.11150  0.38060  Biso   1.000  O
  O22      1.0000 0.10110  0.88850  0.88060  Biso   1.000  O
  O23      1.0000 0.60110  0.61150  0.88060  Biso   1.000  O
  O24      1.0000 0.39890  0.38850  0.38060  Biso   1.000  O
  O25      1.0000 0.61680  0.40960  0.99280  Biso   1.000  O
  O26      1.0000 0.38320  0.59040  0.49280  Biso   1.000  O
  O27      1.0000 0.88320  0.90960  0.49280  Biso   1.000  O
  O28      1.0000 0.11680  0.09040  0.99280  Biso   1.000  O
  O29      1.0000 0.87570  0.04910  0.81100  Biso   1.000  O
  O30      1.0000 0.12430  0.95090  0.31100  Biso   1.000  O
  O31      1.0000 0.62430  0.54910  0.31100  Biso   1.000  O
  O32      1.0000 0.37570  0.45090  0.81100  Biso   1.000  O
  O33      1.0000 0.54300  0.39550  0.69550  Biso   1.000  O
  O34      1.0000 0.45700  0.60450  0.19550  Biso   1.000  O
  O35      1.0000 0.95700  0.89550  0.19550  Biso   1.000  O
  O36      1.0000 0.04300  0.10450  0.69550  Biso   1.000  O
  O37      1.0000 0.94300  0.05170  0.11700  Biso   1.000  O
  O38      1.0000 0.05700  0.94830  0.61700  Biso   1.000  O
  O39      1.0000 0.55700  0.55170  0.61700  Biso   1.000  O
  O40      1.0000 0.44300  0.44830  0.11700  Biso   1.000  O
  O41      1.0000 0.06270  0.06110  0.47500  Biso   1.000  O
  O42      1.0000 0.93730  0.93890  0.97500  Biso   1.000  O
  O43      1.0000 0.43730  0.56110  0.97500  Biso   1.000  O
  O44      1.0000 0.56270  0.43890  0.47500  Biso   1.000  O
  O45      1.0000 0.06140  0.08990  0.27100  Biso   1.000  O
  O46      1.0000 0.93860  0.91010  0.77100  Biso   1.000  O
  O47      1.0000 0.43860  0.58990  0.77100  Biso   1.000  O
  O48      1.0000 0.56140  0.41010  0.27100  Biso   1.000  O
  H73      1.0000 0.87800  0.15500  0.34300  Biso   1.000  H
  H74      1.0000 0.12200  0.84500  0.84300  Biso   1.000  H
  H75      1.0000 0.62200  0.65500  0.84300  Biso   1.000  H
  H76      1.0000 0.37800  0.34500  0.34300  Biso   1.000  H
  H77      1.0000 0.61800  0.43400  0.08500  Biso   1.000  H
  H78      1.0000 0.38200  0.56600  0.58500  Biso   1.000  H
  H79      1.0000 0.88200  0.93400  0.58500  Biso   1.000  H
  H80      1.0000 0.11800  0.06600  0.08500  Biso   1.000  H
  H81      1.0000 0.84900  0.08800  0.40400  Biso   1.000  H
  H82      1.0000 0.15100  0.91200  0.90400  Biso   1.000  H
  H83      1.0000 0.65100  0.58800  0.90400  Biso   1.000  H
  H84      1.0000 0.34900  0.41200  0.40400  Biso   1.000  H
  H85      1.0000 0.58600  0.33100  0.49300  Biso   1.000  H
  H86      1.0000 0.41400  0.66900  0.99300  Biso   1.000  H
  H87      1.0000 0.91400  0.83100  0.99300  Biso   1.000  H
  H88      1.0000 0.08600  0.16900  0.49300  Biso   1.000  H
  H89      1.0000 0.91400  0.03800  0.88800  Biso   1.000  H
  H90      1.0000 0.08600  0.96200  0.38800  Biso   1.000  H
  H91      1.0000 0.58600  0.53800  0.38800  Biso   1.000  H
  H92      1.0000 0.41400  0.46200  0.88800  Biso   1.000  H
  H93      1.0000 0.53900  0.26900  0.48800  Biso   1.000  H
  H94      1.0000 0.46100  0.73100  0.98800  Biso   1.000  H
  H95      1.0000 0.96100  0.76900  0.98800  Biso   1.000  H
  H96      1.0000 0.03900  0.23100  0.48800  Biso   1.000  H
  H97      1.0000 0.53600  0.44900  0.70900  Biso   1.000  H
  H98      1.0000 0.46400  0.55100  0.20900  Biso   1.000  H
  H99      1.0000 0.96400  0.94900  0.20900  Biso   1.000  H
  H100     1.0000 0.03600  0.05100  0.70900  Biso   1.000  H
