data_image0
_cell_length_a       7.479
_cell_length_b       9.082
_cell_length_c       11.737
_cell_angle_alpha    78.98
_cell_angle_beta     80.42
_cell_angle_gamma    68.47

_symmetry_space_group_name_H-M    "P 1"
_symmetry_int_tables_number       1

loop_
  _symmetry_equiv_pos_as_xyz
  'x, y, z'

loop_
  _atom_site_label
  _atom_site_occupancy
  _atom_site_fract_x
  _atom_site_fract_y
  _atom_site_fract_z
  _atom_site_thermal_displace_type
  _atom_site_B_iso_or_equiv
  _atom_site_type_symbol
  Cu1      1.0000 0.51168  0.72654  0.72933  Biso   1.000  Cu
  Cu2      1.0000 0.48832  0.27346  0.27067  Biso   1.000  Cu
  N1       1.0000 0.63800  0.60490  0.59955  Biso   1.000  N
  N2       1.0000 0.36200  0.39510  0.40045  Biso   1.000  N
  N3       1.0000 0.77740  0.37320  0.53320  Biso   1.000  N
  N4       1.0000 0.22260  0.62680  0.46680  Biso   1.000  N
  H1       1.0000 0.81830  0.27170  0.53240  Biso   1.000  H
  H2       1.0000 0.18170  0.72830  0.46760  Biso   1.000  H
  C1       1.0000 0.70890  0.63250  0.48260  Biso   1.000  C
  C2       1.0000 0.29110  0.36750  0.51740  Biso   1.000  C
  N5       1.0000 0.54620  0.50270  0.81603  Biso   1.000  N
  N6       1.0000 0.45380  0.49730  0.18397  Biso   1.000  N
  H3       1.0000 0.62320  0.48220  0.87270  Biso   1.000  H
  H4       1.0000 0.37680  0.51780  0.12730  Biso   1.000  H
  H5       1.0000 0.43030  0.50020  0.85050  Biso   1.000  H
  H6       1.0000 0.56970  0.49980  0.14950  Biso   1.000  H
  C3       1.0000 0.79750  0.48770  0.43990  Biso   1.000  C
  C4       1.0000 0.20250  0.51230  0.56010  Biso   1.000  C
  C5       1.0000 0.70190  0.77470  0.41110  Biso   1.000  C
  C6       1.0000 0.29810  0.22530  0.58890  Biso   1.000  C
  H7       1.0000 0.64250  0.87270  0.43850  Biso   1.000  H
  H8       1.0000 0.35750  0.12730  0.56150  Biso   1.000  H
  C7       1.0000 0.68360  0.44810  0.62420  Biso   1.000  C
  C8       1.0000 0.31640  0.55190  0.37580  Biso   1.000  C
  O1       1.0000 0.23020  0.50520  0.99910  Biso   1.000  O
  O2       1.0000 0.76980  0.49480  0.00090  Biso   1.000  O
  N7       1.0000 0.89720  0.01560  0.63980  Biso   1.000  N
  N8       1.0000 0.10280  0.98440  0.36020  Biso   1.000  N
  N9       1.0000 0.65680  0.88310  0.67580  Biso   1.000  N
  N10      1.0000 0.34320  0.11690  0.32420  Biso   1.000  N
  C9       1.0000 0.77400  0.94060  0.66060  Biso   1.000  C
  C10      1.0000 0.22600  0.05940  0.33940  Biso   1.000  C
  C11      1.0000 0.62910  0.37670  0.74190  Biso   1.000  C
  C12      1.0000 0.37090  0.62330  0.25810  Biso   1.000  C
  H9       1.0000 0.53540  0.32720  0.73880  Biso   1.000  H
  H10      1.0000 0.46460  0.67280  0.26120  Biso   1.000  H
  H11      1.0000 0.74210  0.29500  0.77360  Biso   1.000  H
  H12      1.0000 0.25790  0.70500  0.22640  Biso   1.000  H
  C13      1.0000 0.88310  0.47790  0.32670  Biso   1.000  C
  C14      1.0000 0.11690  0.52210  0.67330  Biso   1.000  C
  H13      1.0000 0.94270  0.38020  0.29880  Biso   1.000  H
  H14      1.0000 0.05730  0.61980  0.70120  Biso   1.000  H
  N11      1.0000 0.40270  0.81520  0.87490  Biso   1.000  N
  N12      1.0000 0.59730  0.18480  0.12510  Biso   1.000  N
  C15      1.0000 0.87560  0.61910  0.25760  Biso   1.000  C
  C16      1.0000 0.12440  0.38090  0.74240  Biso   1.000  C
  H15      1.0000 0.93270  0.61690  0.18090  Biso   1.000  H
  H16      1.0000 0.06730  0.38310  0.81910  Biso   1.000  H
  C17      1.0000 0.78650  0.76470  0.29770  Biso   1.000  C
  C18      1.0000 0.21350  0.23530  0.70230  Biso   1.000  C
  H17      1.0000 0.78330  0.85790  0.24730  Biso   1.000  H
  H18      1.0000 0.21670  0.14210  0.75270  Biso   1.000  H
  C19      1.0000 0.33510  0.88160  0.95190  Biso   1.000  C
  C20      1.0000 0.66490  0.11840  0.04810  Biso   1.000  C
  N13      1.0000 0.26000  0.94390  0.04710  Biso   1.000  N
  N14      1.0000 0.74000  0.05610  0.95290  Biso   1.000  N
  C21      1.0000 0.08070  0.92870  0.64690  Biso   1.000  C
  C22      1.0000 0.91930  0.07130  0.35310  Biso   1.000  C
  N15      1.0000 0.24330  0.86050  0.65060  Biso   1.000  N
  N16      1.0000 0.75670  0.13950  0.34940  Biso   1.000  N
  N17      1.0000 0.10530  0.22580  0.05950  Biso   1.000  N
  N18      1.0000 0.89470  0.77420  0.94050  Biso   1.000  N
  C23      1.0000 0.17980  0.09590  0.04820  Biso   1.000  C
  C24      1.0000 0.82020  0.90410  0.95180  Biso   1.000  C
  H19      1.0000 0.13000  0.58900  0.98300  Biso   1.000  H
  H20      1.0000 0.87000  0.41100  0.01700  Biso   1.000  H
  H21      1.0000 0.20900  0.42500  0.02300  Biso   1.000  H
  H22      1.0000 0.79100  0.57500  0.97700  Biso   1.000  H
