data_image0
_cell_length_a       8.9778
_cell_length_b       11.804
_cell_length_c       12.2168
_cell_angle_alpha    90
_cell_angle_beta     92.4563
_cell_angle_gamma    90

_symmetry_space_group_name_H-M    "P 1"
_symmetry_int_tables_number       1

loop_
  _symmetry_equiv_pos_as_xyz
  'x, y, z'

loop_
  _atom_site_label
  _atom_site_occupancy
  _atom_site_fract_x
  _atom_site_fract_y
  _atom_site_fract_z
  _atom_site_thermal_displace_type
  _atom_site_B_iso_or_equiv
  _atom_site_type_symbol
  Cu1      1.0000 0.09670  0.32446  0.90542  Biso   1.000  Cu
  Cu2      1.0000 0.40330  0.82446  0.59458  Biso   1.000  Cu
  Cu3      1.0000 0.90330  0.67554  0.09458  Biso   1.000  Cu
  Cu4      1.0000 0.59670  0.17554  0.40542  Biso   1.000  Cu
  N1       1.0000 0.27180  0.42564  0.88487  Biso   1.000  N
  N2       1.0000 0.22820  0.92564  0.61513  Biso   1.000  N
  N3       1.0000 0.72820  0.57436  0.11513  Biso   1.000  N
  N4       1.0000 0.77180  0.07436  0.38487  Biso   1.000  N
  O1       1.0000 0.05990  0.78788  0.08231  Biso   1.000  O
  O2       1.0000 0.44010  0.28788  0.41769  Biso   1.000  O
  O3       1.0000 0.94010  0.21212  0.91769  Biso   1.000  O
  O4       1.0000 0.55990  0.71212  0.58231  Biso   1.000  O
  O5       1.0000 0.30000  0.19470  0.87069  Biso   1.000  O
  O6       1.0000 0.20000  0.69470  0.62931  Biso   1.000  O
  O7       1.0000 0.70000  0.80530  0.12931  Biso   1.000  O
  O8       1.0000 0.80000  0.30530  0.37069  Biso   1.000  O
  O9       1.0000 0.05460  0.82156  0.90276  Biso   1.000  O
  O10      1.0000 0.44540  0.32156  0.59724  Biso   1.000  O
  O11      1.0000 0.94540  0.17844  0.09724  Biso   1.000  O
  O12      1.0000 0.55460  0.67844  0.40276  Biso   1.000  O
  C1       1.0000 0.40550  0.38530  0.86230  Biso   1.000  C
  C2       1.0000 0.09450  0.88530  0.63770  Biso   1.000  C
  C3       1.0000 0.59450  0.61470  0.13770  Biso   1.000  C
  C4       1.0000 0.90550  0.11470  0.36230  Biso   1.000  C
  C5       1.0000 0.36130  0.61470  0.86980  Biso   1.000  C
  C6       1.0000 0.13870  0.11470  0.63020  Biso   1.000  C
  C7       1.0000 0.63870  0.38530  0.13020  Biso   1.000  C
  C8       1.0000 0.86130  0.88530  0.36980  Biso   1.000  C
  H1       1.0000 0.34270  0.69220  0.87200  Biso   1.000  H
  H2       1.0000 0.15730  0.19220  0.62800  Biso   1.000  H
  H3       1.0000 0.65730  0.30780  0.12800  Biso   1.000  H
  H4       1.0000 0.84270  0.80780  0.37200  Biso   1.000  H
  C9       1.0000 0.50120  0.57370  0.84590  Biso   1.000  C
  C10      1.0000 0.99880  0.07370  0.65410  Biso   1.000  C
  C11      1.0000 0.49880  0.42630  0.15410  Biso   1.000  C
  C12      1.0000 0.00120  0.92630  0.34590  Biso   1.000  C
  H5       1.0000 0.57860  0.62330  0.83200  Biso   1.000  H
  H6       1.0000 0.92140  0.12330  0.66800  Biso   1.000  H
  H7       1.0000 0.42140  0.37670  0.16800  Biso   1.000  H
  H8       1.0000 0.07860  0.87670  0.33200  Biso   1.000  H
  C13      1.0000 0.25230  0.53860  0.88990  Biso   1.000  C
  C14      1.0000 0.24770  0.03860  0.61010  Biso   1.000  C
  C15      1.0000 0.74770  0.46140  0.11010  Biso   1.000  C
  C16      1.0000 0.75230  0.96140  0.38990  Biso   1.000  C
  H9       1.0000 0.15940  0.56590  0.90820  Biso   1.000  H
  H10      1.0000 0.34060  0.06590  0.59180  Biso   1.000  H
  H11      1.0000 0.84060  0.43410  0.09180  Biso   1.000  H
  H12      1.0000 0.65940  0.93410  0.40820  Biso   1.000  H
  C17      1.0000 0.20020  0.94120  0.01920  Biso   1.000  C
  C18      1.0000 0.29980  0.44120  0.48080  Biso   1.000  C
  C19      1.0000 0.79980  0.05880  0.98080  Biso   1.000  C
  C20      1.0000 0.70020  0.55880  0.51920  Biso   1.000  C
  C21      1.0000 0.09800  0.84180  0.99860  Biso   1.000  C
  C22      1.0000 0.40200  0.34180  0.50140  Biso   1.000  C
  C23      1.0000 0.90200  0.15820  0.00140  Biso   1.000  C
  C24      1.0000 0.59800  0.65820  0.49860  Biso   1.000  C
  C25      1.0000 0.52310  0.45830  0.84320  Biso   1.000  C
  C26      1.0000 0.97690  0.95830  0.65680  Biso   1.000  C
  C27      1.0000 0.47690  0.54170  0.15680  Biso   1.000  C
  C28      1.0000 0.02310  0.04170  0.34320  Biso   1.000  C
  H13      1.0000 0.61650  0.42920  0.82860  Biso   1.000  H
  H14      1.0000 0.88350  0.92920  0.67140  Biso   1.000  H
  H15      1.0000 0.38350  0.57080  0.17140  Biso   1.000  H
  H16      1.0000 0.11650  0.07080  0.32860  Biso   1.000  H
  C29      1.0000 0.43070  0.25950  0.85280  Biso   1.000  C
  C30      1.0000 0.06930  0.75950  0.64720  Biso   1.000  C
  C31      1.0000 0.56930  0.74050  0.14720  Biso   1.000  C
  C32      1.0000 0.93070  0.24050  0.35280  Biso   1.000  C
  H17      1.0000 0.46500  0.24280  0.78040  Biso   1.000  H
  H18      1.0000 0.03500  0.74280  0.71960  Biso   1.000  H
  H19      1.0000 0.53500  0.75720  0.21960  Biso   1.000  H
  H20      1.0000 0.96500  0.25720  0.28040  Biso   1.000  H
  H21      1.0000 0.50860  0.23700  0.90590  Biso   1.000  H
  H22      1.0000 0.99140  0.73700  0.59410  Biso   1.000  H
  H23      1.0000 0.49140  0.76300  0.09410  Biso   1.000  H
  H24      1.0000 0.00860  0.26300  0.40590  Biso   1.000  H
  C33      1.0000 0.37890  0.13020  0.05280  Biso   1.000  C
  C34      1.0000 0.12110  0.63020  0.44720  Biso   1.000  C
  C35      1.0000 0.62110  0.86980  0.94720  Biso   1.000  C
  C36      1.0000 0.87890  0.36980  0.55280  Biso   1.000  C
  H25      1.0000 0.43980  0.19340  0.06340  Biso   1.000  H
  H26      1.0000 0.06020  0.69340  0.43660  Biso   1.000  H
  H27      1.0000 0.56020  0.80660  0.93660  Biso   1.000  H
  H28      1.0000 0.93980  0.30660  0.56340  Biso   1.000  H
  C37      1.0000 0.30430  0.11360  0.95410  Biso   1.000  C
  C38      1.0000 0.19570  0.61360  0.54590  Biso   1.000  C
  C39      1.0000 0.69570  0.88640  0.04590  Biso   1.000  C
  C40      1.0000 0.80430  0.38640  0.45410  Biso   1.000  C
  O13      1.0000 0.14270  0.32790  0.06454  Biso   1.000  O
  O14      1.0000 0.35730  0.82790  0.43546  Biso   1.000  O
  O15      1.0000 0.85730  0.67210  0.93546  Biso   1.000  O
  O16      1.0000 0.64270  0.17210  0.56454  Biso   1.000  O
  H29      1.0000 0.09010  0.28180  0.09500  Biso   1.000  H
  H30      1.0000 0.40990  0.78180  0.40500  Biso   1.000  H
  H31      1.0000 0.90990  0.71820  0.90500  Biso   1.000  H
  H32      1.0000 0.59010  0.21820  0.59500  Biso   1.000  H
  O17      1.0000 0.53140  0.15657  0.25160  Biso   1.000  O
  O18      1.0000 0.96860  0.65657  0.24840  Biso   1.000  O
  O19      1.0000 0.46860  0.84343  0.74840  Biso   1.000  O
  O20      1.0000 0.03140  0.34343  0.75160  Biso   1.000  O
  C41      1.0000 0.27210  0.95870  0.12050  Biso   1.000  C
  C42      1.0000 0.22790  0.45870  0.37950  Biso   1.000  C
  C43      1.0000 0.72790  0.04130  0.87950  Biso   1.000  C
  C44      1.0000 0.77210  0.54130  0.62050  Biso   1.000  C
  H33      1.0000 0.25890  0.90750  0.17710  Biso   1.000  H
  H34      1.0000 0.24110  0.40750  0.32290  Biso   1.000  H
  H35      1.0000 0.74110  0.09250  0.82290  Biso   1.000  H
  H36      1.0000 0.75890  0.59250  0.67710  Biso   1.000  H
  C45      1.0000 0.21730  0.01920  0.93460  Biso   1.000  C
  C46      1.0000 0.28270  0.51920  0.56540  Biso   1.000  C
  C47      1.0000 0.78270  0.98080  0.06540  Biso   1.000  C
  C48      1.0000 0.71730  0.48080  0.43460  Biso   1.000  C
  H37      1.0000 0.17050  0.00740  0.86610  Biso   1.000  H
  H38      1.0000 0.32950  0.50740  0.63390  Biso   1.000  H
  H39      1.0000 0.82950  0.99260  0.13390  Biso   1.000  H
  H40      1.0000 0.67050  0.49260  0.36610  Biso   1.000  H
  C49      1.0000 0.36340  0.05230  0.13760  Biso   1.000  C
  C50      1.0000 0.13660  0.55230  0.36240  Biso   1.000  C
  C51      1.0000 0.63660  0.94770  0.86240  Biso   1.000  C
  C52      1.0000 0.86340  0.44770  0.63760  Biso   1.000  C
  C53      1.0000 0.43830  0.07620  0.24680  Biso   1.000  C
  C54      1.0000 0.06170  0.57620  0.25320  Biso   1.000  C
  C55      1.0000 0.56170  0.92380  0.75320  Biso   1.000  C
  C56      1.0000 0.93830  0.42380  0.74680  Biso   1.000  C
  O21      1.0000 0.40550  0.02056  0.32973  Biso   1.000  O
  O22      1.0000 0.09450  0.52056  0.17027  Biso   1.000  O
  O23      1.0000 0.59450  0.97944  0.67027  Biso   1.000  O
  O24      1.0000 0.90550  0.47944  0.82973  Biso   1.000  O
  H41      1.0000 0.12300  0.38400  0.09300  Biso   1.000  H
  H42      1.0000 0.37700  0.88400  0.40700  Biso   1.000  H
  H43      1.0000 0.87700  0.61600  0.90700  Biso   1.000  H
  H44      1.0000 0.62300  0.11600  0.59300  Biso   1.000  H
