data_image0
_cell_length_a       8.8489
_cell_length_b       10.2072
_cell_length_c       18.3628
_cell_angle_alpha    90
_cell_angle_beta     92.056
_cell_angle_gamma    90

_symmetry_space_group_name_H-M    "P 1"
_symmetry_int_tables_number       1

loop_
  _symmetry_equiv_pos_as_xyz
  'x, y, z'

loop_
  _atom_site_label
  _atom_site_occupancy
  _atom_site_fract_x
  _atom_site_fract_y
  _atom_site_fract_z
  _atom_site_thermal_displace_type
  _atom_site_B_iso_or_equiv
  _atom_site_type_symbol
  Cu1      1.0000 0.13564  0.16249  0.05708  Biso   1.000  Cu
  Cu2      1.0000 0.86436  0.66249  0.44292  Biso   1.000  Cu
  Cu3      1.0000 0.86436  0.83751  0.94292  Biso   1.000  Cu
  Cu4      1.0000 0.13564  0.33751  0.55708  Biso   1.000  Cu
  N1       1.0000 0.18260  0.30620  0.98420  Biso   1.000  N
  N2       1.0000 0.81740  0.80620  0.51580  Biso   1.000  N
  N3       1.0000 0.81740  0.69380  0.01580  Biso   1.000  N
  N4       1.0000 0.18260  0.19380  0.48420  Biso   1.000  N
  N5       1.0000 0.35530  0.15010  0.05700  Biso   1.000  N
  N6       1.0000 0.64470  0.65010  0.44300  Biso   1.000  N
  N7       1.0000 0.64470  0.84990  0.94300  Biso   1.000  N
  N8       1.0000 0.35530  0.34990  0.55700  Biso   1.000  N
  N9       1.0000 0.17240  0.01620  0.13361  Biso   1.000  N
  N10      1.0000 0.82760  0.51620  0.36639  Biso   1.000  N
  N11      1.0000 0.82760  0.98380  0.86639  Biso   1.000  N
  N12      1.0000 0.17240  0.48380  0.63361  Biso   1.000  N
  O1       1.0000 0.91980  0.19600  0.05656  Biso   1.000  O
  O2       1.0000 0.08020  0.69600  0.44344  Biso   1.000  O
  O3       1.0000 0.08020  0.80400  0.94344  Biso   1.000  O
  O4       1.0000 0.91980  0.30400  0.55656  Biso   1.000  O
  C1       1.0000 0.08400  0.38050  0.94720  Biso   1.000  C
  C2       1.0000 0.91600  0.88050  0.55280  Biso   1.000  C
  C3       1.0000 0.91600  0.61950  0.05280  Biso   1.000  C
  C4       1.0000 0.08400  0.11950  0.44720  Biso   1.000  C
  C5       1.0000 0.33260  0.32240  0.97330  Biso   1.000  C
  C6       1.0000 0.66740  0.82240  0.52670  Biso   1.000  C
  C7       1.0000 0.66740  0.67760  0.02670  Biso   1.000  C
  C8       1.0000 0.33260  0.17760  0.47330  Biso   1.000  C
  C9       1.0000 0.43190  0.23340  0.01575  Biso   1.000  C
  C10      1.0000 0.56810  0.73340  0.48425  Biso   1.000  C
  C11      1.0000 0.56810  0.76660  0.98425  Biso   1.000  C
  C12      1.0000 0.43190  0.26660  0.51575  Biso   1.000  C
  C13      1.0000 0.42330  0.05850  0.09737  Biso   1.000  C
  C14      1.0000 0.57670  0.55850  0.40263  Biso   1.000  C
  C15      1.0000 0.57670  0.94150  0.90263  Biso   1.000  C
  C16      1.0000 0.42330  0.44150  0.59737  Biso   1.000  C
  C17      1.0000 0.31910  0.97800  0.14020  Biso   1.000  C
  C18      1.0000 0.68090  0.47800  0.35980  Biso   1.000  C
  C19      1.0000 0.68090  0.02200  0.85980  Biso   1.000  C
  C20      1.0000 0.31910  0.52200  0.64020  Biso   1.000  C
  C21      1.0000 0.07190  0.95000  0.17230  Biso   1.000  C
  C22      1.0000 0.92810  0.45000  0.32770  Biso   1.000  C
  C23      1.0000 0.92810  0.05000  0.82770  Biso   1.000  C
  C24      1.0000 0.07190  0.55000  0.67230  Biso   1.000  C
  H1       1.0000 0.98150  0.36890  0.95460  Biso   1.000  H
  H2       1.0000 0.01850  0.86890  0.54540  Biso   1.000  H
  H3       1.0000 0.01850  0.63110  0.04540  Biso   1.000  H
  H4       1.0000 0.98150  0.13110  0.45460  Biso   1.000  H
  C25      1.0000 0.12700  0.47360  0.89850  Biso   1.000  C
  C26      1.0000 0.87300  0.97360  0.60150  Biso   1.000  C
  C27      1.0000 0.87300  0.52640  0.10150  Biso   1.000  C
  C28      1.0000 0.12700  0.02640  0.39850  Biso   1.000  C
  C29      1.0000 0.38350  0.41400  0.92490  Biso   1.000  C
  C30      1.0000 0.61650  0.91400  0.57510  Biso   1.000  C
  C31      1.0000 0.61650  0.58600  0.07510  Biso   1.000  C
  C32      1.0000 0.38350  0.08600  0.42490  Biso   1.000  C
  C33      1.0000 0.58920  0.22550  0.01390  Biso   1.000  C
  C34      1.0000 0.41080  0.72550  0.48610  Biso   1.000  C
  C35      1.0000 0.41080  0.77450  0.98610  Biso   1.000  C
  C36      1.0000 0.58920  0.27450  0.51390  Biso   1.000  C
  C37      1.0000 0.57900  0.04180  0.09607  Biso   1.000  C
  C38      1.0000 0.42100  0.54180  0.40393  Biso   1.000  C
  C39      1.0000 0.42100  0.95820  0.90393  Biso   1.000  C
  C40      1.0000 0.57900  0.45820  0.59607  Biso   1.000  C
  C41      1.0000 0.36440  0.87260  0.18230  Biso   1.000  C
  C42      1.0000 0.63560  0.37260  0.31770  Biso   1.000  C
  C43      1.0000 0.63560  0.12740  0.81770  Biso   1.000  C
  C44      1.0000 0.36440  0.62740  0.68230  Biso   1.000  C
  C45      1.0000 0.11040  0.84410  0.21530  Biso   1.000  C
  C46      1.0000 0.88960  0.34410  0.28470  Biso   1.000  C
  C47      1.0000 0.88960  0.15590  0.78470  Biso   1.000  C
  C48      1.0000 0.11040  0.65590  0.71530  Biso   1.000  C
  H5       1.0000 0.97140  0.97710  0.17000  Biso   1.000  H
  H6       1.0000 0.02860  0.47710  0.33000  Biso   1.000  H
  H7       1.0000 0.02860  0.02290  0.83000  Biso   1.000  H
  H8       1.0000 0.97140  0.52290  0.67000  Biso   1.000  H
  H9       1.0000 0.05470  0.52410  0.87350  Biso   1.000  H
  H10      1.0000 0.94530  0.02410  0.62650  Biso   1.000  H
  H11      1.0000 0.94530  0.47590  0.12650  Biso   1.000  H
  H12      1.0000 0.05470  0.97590  0.37350  Biso   1.000  H
  C49      1.0000 0.27830  0.49170  0.88700  Biso   1.000  C
  C50      1.0000 0.72170  0.99170  0.61300  Biso   1.000  C
  C51      1.0000 0.72170  0.50830  0.11300  Biso   1.000  C
  C52      1.0000 0.27830  0.00830  0.38700  Biso   1.000  C
  H13      1.0000 0.48640  0.42370  0.91770  Biso   1.000  H
  H14      1.0000 0.51360  0.92370  0.58230  Biso   1.000  H
  H15      1.0000 0.51360  0.57630  0.08230  Biso   1.000  H
  H16      1.0000 0.48640  0.07630  0.41770  Biso   1.000  H
  H17      1.0000 0.64370  0.28460  0.98670  Biso   1.000  H
  H18      1.0000 0.35630  0.78460  0.51330  Biso   1.000  H
  H19      1.0000 0.35630  0.71540  0.01330  Biso   1.000  H
  H20      1.0000 0.64370  0.21540  0.48670  Biso   1.000  H
  C53      1.0000 0.66200  0.12720  0.05384  Biso   1.000  C
  C54      1.0000 0.33800  0.62720  0.44616  Biso   1.000  C
  C55      1.0000 0.33800  0.87280  0.94616  Biso   1.000  C
  C56      1.0000 0.66200  0.37280  0.55384  Biso   1.000  C
  H21      1.0000 0.62670  0.97520  0.12270  Biso   1.000  H
  H22      1.0000 0.37330  0.47520  0.37730  Biso   1.000  H
  H23      1.0000 0.37330  0.02480  0.87730  Biso   1.000  H
  H24      1.0000 0.62670  0.52480  0.62270  Biso   1.000  H
  H25      1.0000 0.46570  0.84850  0.18560  Biso   1.000  H
  H26      1.0000 0.53430  0.34850  0.31440  Biso   1.000  H
  H27      1.0000 0.53430  0.15150  0.81440  Biso   1.000  H
  H28      1.0000 0.46570  0.65150  0.68560  Biso   1.000  H
  C57      1.0000 0.25870  0.80350  0.21930  Biso   1.000  C
  C58      1.0000 0.74130  0.30350  0.28070  Biso   1.000  C
  C59      1.0000 0.74130  0.19650  0.78070  Biso   1.000  C
  C60      1.0000 0.25870  0.69650  0.71930  Biso   1.000  C
  H29      1.0000 0.03740  0.80060  0.24120  Biso   1.000  H
  H30      1.0000 0.96260  0.30060  0.25880  Biso   1.000  H
  H31      1.0000 0.96260  0.19940  0.75880  Biso   1.000  H
  H32      1.0000 0.03740  0.69940  0.74120  Biso   1.000  H
  H33      1.0000 0.30970  0.55490  0.85430  Biso   1.000  H
  H34      1.0000 0.69030  0.05490  0.64570  Biso   1.000  H
  H35      1.0000 0.69030  0.44510  0.14570  Biso   1.000  H
  H36      1.0000 0.30970  0.94510  0.35430  Biso   1.000  H
  C61      1.0000 0.83020  0.09880  0.05032  Biso   1.000  C
  C62      1.0000 0.16980  0.59880  0.44968  Biso   1.000  C
  C63      1.0000 0.16980  0.90120  0.94968  Biso   1.000  C
  C64      1.0000 0.83020  0.40120  0.55032  Biso   1.000  C
  H37      1.0000 0.28680  0.73040  0.24680  Biso   1.000  H
  H38      1.0000 0.71320  0.23040  0.25320  Biso   1.000  H
  H39      1.0000 0.71320  0.26960  0.75320  Biso   1.000  H
  H40      1.0000 0.28680  0.76960  0.74680  Biso   1.000  H
  O5       1.0000 0.86530  0.98280  0.04411  Biso   1.000  O
  O6       1.0000 0.13470  0.48280  0.45589  Biso   1.000  O
  O7       1.0000 0.13470  0.01720  0.95589  Biso   1.000  O
  O8       1.0000 0.86530  0.51720  0.54411  Biso   1.000  O
  O9       1.0000 0.16150  0.32120  0.16320  Biso   1.000  O
  O10      1.0000 0.83850  0.82120  0.33680  Biso   1.000  O
  O11      1.0000 0.83850  0.67880  0.83680  Biso   1.000  O
  O12      1.0000 0.16150  0.17880  0.66320  Biso   1.000  O
  Cl1      1.0000 0.27857  0.41439  0.18014  Biso   1.000  Cl
  Cl2      1.0000 0.72143  0.91439  0.31986  Biso   1.000  Cl
  Cl3      1.0000 0.72143  0.58561  0.81986  Biso   1.000  Cl
  Cl4      1.0000 0.27857  0.08561  0.68014  Biso   1.000  Cl
  O13      1.0000 0.25950  0.46780  0.24990  Biso   1.000  O
  O14      1.0000 0.74050  0.96780  0.25010  Biso   1.000  O
  O15      1.0000 0.74050  0.53220  0.75010  Biso   1.000  O
  O16      1.0000 0.25950  0.03220  0.74990  Biso   1.000  O
  O17      1.0000 0.26260  0.51980  0.12460  Biso   1.000  O
  O18      1.0000 0.73740  0.01980  0.37540  Biso   1.000  O
  O19      1.0000 0.73740  0.48020  0.87540  Biso   1.000  O
  O20      1.0000 0.26260  0.98020  0.62460  Biso   1.000  O
  O21      1.0000 0.42370  0.35970  0.17280  Biso   1.000  O
  O22      1.0000 0.57630  0.85970  0.32720  Biso   1.000  O
  O23      1.0000 0.57630  0.64030  0.82720  Biso   1.000  O
  O24      1.0000 0.42370  0.14030  0.67280  Biso   1.000  O
