data_image0
_cell_length_a       9.541
_cell_length_b       9.657
_cell_length_c       14.647
_cell_angle_alpha    76.197
_cell_angle_beta     73.477
_cell_angle_gamma    61.878

_symmetry_space_group_name_H-M    "P 1"
_symmetry_int_tables_number       1

loop_
  _symmetry_equiv_pos_as_xyz
  'x, y, z'

loop_
  _atom_site_label
  _atom_site_occupancy
  _atom_site_fract_x
  _atom_site_fract_y
  _atom_site_fract_z
  _atom_site_thermal_displace_type
  _atom_site_B_iso_or_equiv
  _atom_site_type_symbol
  Cu1      1.0000 0.00000  0.00000  0.00000  Biso   1.000  Cu
  N1       1.0000 0.76890  0.11900  0.98330  Biso   1.000  N
  N2       1.0000 0.23110  0.88100  0.01670  Biso   1.000  N
  N3       1.0000 0.00690  0.21370  0.96580  Biso   1.000  N
  N4       1.0000 0.99310  0.78630  0.03420  Biso   1.000  N
  C1       1.0000 0.74640  0.27960  0.93460  Biso   1.000  C
  C2       1.0000 0.25360  0.72040  0.06540  Biso   1.000  C
  C3       1.0000 0.83600  0.33410  0.97640  Biso   1.000  C
  C4       1.0000 0.16400  0.66590  0.02360  Biso   1.000  C
  C5       1.0000 0.10360  0.24870  0.01240  Biso   1.000  C
  C6       1.0000 0.89640  0.75130  0.98760  Biso   1.000  C
  C7       1.0000 0.27400  0.11770  0.01070  Biso   1.000  C
  C8       1.0000 0.72600  0.88230  0.98930  Biso   1.000  C
  C9       1.0000 0.71760  0.03910  0.93310  Biso   1.000  C
  C10      1.0000 0.28240  0.96090  0.06690  Biso   1.000  C
  Cu2      1.0000 0.00000  0.50000  0.50000  Biso   1.000  Cu
  N5       1.0000 0.86390  0.72870  0.45480  Biso   1.000  N
  N6       1.0000 0.13610  0.27130  0.54520  Biso   1.000  N
  N7       1.0000 0.78640  0.48880  0.56190  Biso   1.000  N
  N8       1.0000 0.21360  0.51120  0.43810  Biso   1.000  N
  C11      1.0000 0.69630  0.76970  0.50950  Biso   1.000  C
  C12      1.0000 0.30370  0.23030  0.49050  Biso   1.000  C
  C13      1.0000 0.65920  0.63060  0.51960  Biso   1.000  C
  C14      1.0000 0.34080  0.36940  0.48040  Biso   1.000  C
  C15      1.0000 0.77650  0.34150  0.55900  Biso   1.000  C
  C16      1.0000 0.22350  0.65850  0.44100  Biso   1.000  C
  C17      1.0000 0.90650  0.19640  0.60230  Biso   1.000  C
  C18      1.0000 0.09350  0.80360  0.39770  Biso   1.000  C
  C19      1.0000 0.92260  0.84520  0.45600  Biso   1.000  C
  C20      1.0000 0.07740  0.15480  0.54400  Biso   1.000  C
  O1       1.0000 0.90790  0.98430  0.18040  Biso   1.000  O
  O2       1.0000 0.09210  0.01570  0.81960  Biso   1.000  O
  O3       1.0000 0.67780  0.01020  0.28600  Biso   1.000  O
  O4       1.0000 0.32220  0.98980  0.71400  Biso   1.000  O
  O5       1.0000 0.49370  0.24890  0.14230  Biso   1.000  O
  O6       1.0000 0.50630  0.75110  0.85770  Biso   1.000  O
  O7       1.0000 0.31320  0.42800  0.24060  Biso   1.000  O
  O8       1.0000 0.68680  0.57200  0.75940  Biso   1.000  O
  O9       1.0000 0.49670  0.79160  0.29650  Biso   1.000  O
  O10      1.0000 0.50330  0.20840  0.70350  Biso   1.000  O
  O11      1.0000 0.75500  0.74700  0.24400  Biso   1.000  O
  O12      1.0000 0.24500  0.25300  0.75600  Biso   1.000  O
  O13      1.0000 0.50040  0.80830  0.25200  Biso   1.000  O
  O14      1.0000 0.49960  0.19170  0.74800  Biso   1.000  O
  O15      1.0000 0.75600  0.73600  0.26200  Biso   1.000  O
  O16      1.0000 0.24400  0.26400  0.73800  Biso   1.000  O
  O17      1.0000 0.07860  0.43110  0.20020  Biso   1.000  O
  O18      1.0000 0.92140  0.56890  0.79980  Biso   1.000  O
  O19      1.0000 0.97970  0.43850  0.35740  Biso   1.000  O
  O20      1.0000 0.02030  0.56150  0.64260  Biso   1.000  O
  C21      1.0000 0.73950  0.23040  0.23980  Biso   1.000  C
  C22      1.0000 0.26050  0.76960  0.76020  Biso   1.000  C
  C23      1.0000 0.58860  0.35710  0.22870  Biso   1.000  C
  C24      1.0000 0.41140  0.64290  0.77130  Biso   1.000  C
  C25      1.0000 0.56150  0.50840  0.23670  Biso   1.000  C
  C26      1.0000 0.43850  0.49160  0.76330  Biso   1.000  C
  C27      1.0000 0.68170  0.53870  0.25240  Biso   1.000  C
  C28      1.0000 0.31830  0.46130  0.74760  Biso   1.000  C
  C29      1.0000 0.83240  0.41260  0.26110  Biso   1.000  C
  C30      1.0000 0.16760  0.58740  0.73890  Biso   1.000  C
  C31      1.0000 0.85920  0.25980  0.25600  Biso   1.000  C
  C32      1.0000 0.14080  0.74020  0.74400  Biso   1.000  C
  C33      1.0000 0.78010  0.06230  0.23280  Biso   1.000  C
  C34      1.0000 0.21990  0.93770  0.76720  Biso   1.000  C
  C35      1.0000 0.45830  0.33840  0.20090  Biso   1.000  C
  C36      1.0000 0.54170  0.66160  0.79910  Biso   1.000  C
  C37      1.0000 0.63910  0.70740  0.26080  Biso   1.000  C
  C38      1.0000 0.36090  0.29260  0.73920  Biso   1.000  C
  C39      1.0000 0.97060  0.43230  0.27730  Biso   1.000  C
  C40      1.0000 0.02940  0.56770  0.72270  Biso   1.000  C
  O21      1.0000 0.25190  0.09280  0.28150  Biso   1.000  O
  O22      1.0000 0.74810  0.90720  0.71850  Biso   1.000  O
  H1       1.0000 0.70330  0.13070  0.04420  Biso   1.000  H
  H2       1.0000 0.29670  0.86930  0.95580  Biso   1.000  H
  H3       1.0000 0.05100  0.22140  0.90040  Biso   1.000  H
  H4       1.0000 0.94900  0.77860  0.09960  Biso   1.000  H
  H5       1.0000 0.62960  0.35350  0.94470  Biso   1.000  H
  H6       1.0000 0.37040  0.64650  0.05530  Biso   1.000  H
  H7       1.0000 0.78940  0.27660  0.86480  Biso   1.000  H
  H8       1.0000 0.21060  0.72340  0.13520  Biso   1.000  H
  H9       1.0000 0.83030  0.43770  0.94210  Biso   1.000  H
  H10      1.0000 0.16970  0.56230  0.05790  Biso   1.000  H
  H11      1.0000 0.78700  0.34600  0.04500  Biso   1.000  H
  H12      1.0000 0.21300  0.65400  0.95500  Biso   1.000  H
  H13      1.0000 0.04770  0.26470  0.07990  Biso   1.000  H
  H14      1.0000 0.95230  0.73530  0.92010  Biso   1.000  H
  H15      1.0000 0.10980  0.34830  0.97930  Biso   1.000  H
  H16      1.0000 0.89020  0.65170  0.02070  Biso   1.000  H
  H17      1.0000 0.33530  0.15270  0.03700  Biso   1.000  H
  H18      1.0000 0.66470  0.84730  0.96300  Biso   1.000  H
  H19      1.0000 0.32850  0.10100  0.94310  Biso   1.000  H
  H20      1.0000 0.67150  0.89900  0.05690  Biso   1.000  H
  H21      1.0000 0.60510  0.10890  0.92410  Biso   1.000  H
  H22      1.0000 0.39490  0.89110  0.07590  Biso   1.000  H
  H23      1.0000 0.78870  0.02050  0.86890  Biso   1.000  H
  H24      1.0000 0.21130  0.97950  0.13110  Biso   1.000  H
  H25      1.0000 0.86150  0.73250  0.39120  Biso   1.000  H
  H26      1.0000 0.13850  0.26750  0.60880  Biso   1.000  H
  H27      1.0000 0.76670  0.49960  0.62640  Biso   1.000  H
  H28      1.0000 0.23330  0.50040  0.37360  Biso   1.000  H
  H29      1.0000 0.61910  0.86390  0.47540  Biso   1.000  H
  H30      1.0000 0.38090  0.13610  0.52460  Biso   1.000  H
  H31      1.0000 0.68520  0.79440  0.57370  Biso   1.000  H
  H32      1.0000 0.31480  0.20560  0.42630  Biso   1.000  H
  H33      1.0000 0.55150  0.65110  0.56160  Biso   1.000  H
  H34      1.0000 0.44850  0.34890  0.43840  Biso   1.000  H
  H35      1.0000 0.65740  0.61370  0.45600  Biso   1.000  H
  H36      1.0000 0.34260  0.38630  0.54400  Biso   1.000  H
  H37      1.0000 0.78770  0.33020  0.49150  Biso   1.000  H
  H38      1.0000 0.21230  0.66980  0.50850  Biso   1.000  H
  H39      1.0000 0.66850  0.34890  0.59450  Biso   1.000  H
  H40      1.0000 0.33150  0.65110  0.40550  Biso   1.000  H
  H41      1.0000 0.88180  0.10510  0.60990  Biso   1.000  H
  H42      1.0000 0.11820  0.89490  0.39010  Biso   1.000  H
  H43      1.0000 0.90240  0.21380  0.66710  Biso   1.000  H
  H44      1.0000 0.09760  0.78620  0.33290  Biso   1.000  H
  H45      1.0000 0.84850  0.95120  0.42970  Biso   1.000  H
  H46      1.0000 0.15150  0.04880  0.57030  Biso   1.000  H
  H47      1.0000 0.92050  0.85010  0.52310  Biso   1.000  H
  H48      1.0000 0.07950  0.14990  0.47690  Biso   1.000  H
  H49      1.0000 0.70280  0.92060  0.27240  Biso   1.000  H
  H50      1.0000 0.29720  0.07940  0.72760  Biso   1.000  H
  H51      1.0000 0.15840  0.43050  0.21420  Biso   1.000  H
  H52      1.0000 0.84160  0.56950  0.78580  Biso   1.000  H
  H53      1.0000 0.45830  0.59380  0.23140  Biso   1.000  H
  H54      1.0000 0.54170  0.40620  0.76860  Biso   1.000  H
  H55      1.0000 0.96110  0.17400  0.26360  Biso   1.000  H
  H56      1.0000 0.03890  0.82600  0.73640  Biso   1.000  H
  H57      1.0000 0.33100  0.01400  0.27700  Biso   1.000  H
  H58      1.0000 0.66900  0.98600  0.72300  Biso   1.000  H
  H59      1.0000 0.28800  0.15100  0.25100  Biso   1.000  H
  H60      1.0000 0.71200  0.84900  0.74900  Biso   1.000  H
