data_image0
_cell_length_a       12.1329
_cell_length_b       10.4929
_cell_length_c       15.2841
_cell_angle_alpha    90
_cell_angle_beta     98.315
_cell_angle_gamma    90

_symmetry_space_group_name_H-M    "P 1"
_symmetry_int_tables_number       1

loop_
  _symmetry_equiv_pos_as_xyz
  'x, y, z'

loop_
  _atom_site_label
  _atom_site_occupancy
  _atom_site_fract_x
  _atom_site_fract_y
  _atom_site_fract_z
  _atom_site_thermal_displace_type
  _atom_site_B_iso_or_equiv
  _atom_site_type_symbol
  Cu1      1.0000 0.61855  0.57603  0.99662  Biso   1.000  Cu
  Cu2      1.0000 0.11855  0.92397  0.49662  Biso   1.000  Cu
  Cu3      1.0000 0.38145  0.42397  0.00338  Biso   1.000  Cu
  Cu4      1.0000 0.88145  0.07603  0.50338  Biso   1.000  Cu
  Cu5      1.0000 0.73038  0.89423  0.20225  Biso   1.000  Cu
  Cu6      1.0000 0.23038  0.60577  0.70225  Biso   1.000  Cu
  Cu7      1.0000 0.26962  0.10577  0.79775  Biso   1.000  Cu
  Cu8      1.0000 0.76962  0.39423  0.29775  Biso   1.000  Cu
  C1       1.0000 0.67730  0.84020  0.02482  Biso   1.000  C
  C2       1.0000 0.17730  0.65980  0.52482  Biso   1.000  C
  C3       1.0000 0.32270  0.15980  0.97518  Biso   1.000  C
  C4       1.0000 0.82270  0.34020  0.47518  Biso   1.000  C
  C5       1.0000 0.63420  0.87530  0.92971  Biso   1.000  C
  C6       1.0000 0.13420  0.62470  0.42971  Biso   1.000  C
  C7       1.0000 0.36580  0.12470  0.07029  Biso   1.000  C
  C8       1.0000 0.86580  0.37530  0.57029  Biso   1.000  C
  C9       1.0000 0.54850  0.78500  0.87937  Biso   1.000  C
  C10      1.0000 0.04850  0.71500  0.37937  Biso   1.000  C
  C11      1.0000 0.45150  0.21500  0.12063  Biso   1.000  C
  C12      1.0000 0.95150  0.28500  0.62063  Biso   1.000  C
  C13      1.0000 0.73250  0.89100  0.87840  Biso   1.000  C
  C14      1.0000 0.23250  0.60900  0.37840  Biso   1.000  C
  C15      1.0000 0.26750  0.10900  0.12160  Biso   1.000  C
  C16      1.0000 0.76750  0.39100  0.62160  Biso   1.000  C
  C17      1.0000 0.78340  0.78960  0.84410  Biso   1.000  C
  C18      1.0000 0.28340  0.71040  0.34410  Biso   1.000  C
  C19      1.0000 0.21660  0.21040  0.15590  Biso   1.000  C
  C20      1.0000 0.71660  0.28960  0.65590  Biso   1.000  C
  C21      1.0000 0.87230  0.80940  0.79890  Biso   1.000  C
  C22      1.0000 0.37230  0.69060  0.29890  Biso   1.000  C
  C23      1.0000 0.12770  0.19060  0.20110  Biso   1.000  C
  C24      1.0000 0.62770  0.30940  0.70110  Biso   1.000  C
  C25      1.0000 0.91140  0.92810  0.78740  Biso   1.000  C
  C26      1.0000 0.41140  0.57190  0.28740  Biso   1.000  C
  C27      1.0000 0.08860  0.07190  0.21260  Biso   1.000  C
  C28      1.0000 0.58860  0.42810  0.71260  Biso   1.000  C
  C29      1.0000 0.86030  0.03100  0.82030  Biso   1.000  C
  C30      1.0000 0.36030  0.46900  0.32030  Biso   1.000  C
  C31      1.0000 0.13970  0.96900  0.17970  Biso   1.000  C
  C32      1.0000 0.63970  0.53100  0.67970  Biso   1.000  C
  C33      1.0000 0.77120  0.01220  0.86610  Biso   1.000  C
  C34      1.0000 0.27120  0.48780  0.36610  Biso   1.000  C
  C35      1.0000 0.22880  0.98780  0.13390  Biso   1.000  C
  C36      1.0000 0.72880  0.51220  0.63390  Biso   1.000  C
  C37      1.0000 0.72100  0.37410  0.10447  Biso   1.000  C
  C38      1.0000 0.22100  0.12590  0.60447  Biso   1.000  C
  C39      1.0000 0.27900  0.62590  0.89553  Biso   1.000  C
  C40      1.0000 0.77900  0.87410  0.39553  Biso   1.000  C
  C41      1.0000 0.71470  0.29300  0.02154  Biso   1.000  C
  C42      1.0000 0.21470  0.20700  0.52154  Biso   1.000  C
  C43      1.0000 0.28530  0.70700  0.97846  Biso   1.000  C
  C44      1.0000 0.78530  0.79300  0.47846  Biso   1.000  C
  C45      1.0000 0.60340  0.30530  0.96037  Biso   1.000  C
  C46      1.0000 0.10340  0.19470  0.46037  Biso   1.000  C
  C47      1.0000 0.39660  0.69470  0.03963  Biso   1.000  C
  C48      1.0000 0.89660  0.80530  0.53963  Biso   1.000  C
  C49      1.0000 0.81380  0.32800  0.97557  Biso   1.000  C
  C50      1.0000 0.31380  0.17200  0.47557  Biso   1.000  C
  C51      1.0000 0.18620  0.67200  0.02443  Biso   1.000  C
  C52      1.0000 0.68620  0.82800  0.52443  Biso   1.000  C
  C53      1.0000 0.91830  0.28200  0.01100  Biso   1.000  C
  C54      1.0000 0.41830  0.21800  0.51100  Biso   1.000  C
  C55      1.0000 0.08170  0.71800  0.98900  Biso   1.000  C
  C56      1.0000 0.58170  0.78200  0.48900  Biso   1.000  C
  C57      1.0000 0.01100  0.31910  0.97380  Biso   1.000  C
  C58      1.0000 0.51100  0.18090  0.47380  Biso   1.000  C
  C59      1.0000 0.98900  0.68090  0.02620  Biso   1.000  C
  C60      1.0000 0.48900  0.81910  0.52620  Biso   1.000  C
  C61      1.0000 0.00270  0.39800  0.90230  Biso   1.000  C
  C62      1.0000 0.50270  0.10200  0.40230  Biso   1.000  C
  C63      1.0000 0.99730  0.60200  0.09770  Biso   1.000  C
  C64      1.0000 0.49730  0.89800  0.59770  Biso   1.000  C
  C65      1.0000 0.89920  0.44010  0.86560  Biso   1.000  C
  C66      1.0000 0.39920  0.05990  0.36560  Biso   1.000  C
  C67      1.0000 0.10080  0.55990  0.13440  Biso   1.000  C
  C68      1.0000 0.60080  0.94010  0.63440  Biso   1.000  C
  C69      1.0000 0.80540  0.40600  0.90220  Biso   1.000  C
  C70      1.0000 0.30540  0.09400  0.40220  Biso   1.000  C
  C71      1.0000 0.19460  0.59400  0.09780  Biso   1.000  C
  C72      1.0000 0.69460  0.90600  0.59780  Biso   1.000  C
  O1       1.0000 0.70560  0.93189  0.07584  Biso   1.000  O
  O2       1.0000 0.20560  0.56811  0.57584  Biso   1.000  O
  O3       1.0000 0.29440  0.06811  0.92416  Biso   1.000  O
  O4       1.0000 0.79440  0.43189  0.42416  Biso   1.000  O
  O5       1.0000 0.68645  0.72737  0.05166  Biso   1.000  O
  O6       1.0000 0.18645  0.77263  0.55166  Biso   1.000  O
  O7       1.0000 0.31355  0.27263  0.94834  Biso   1.000  O
  O8       1.0000 0.81355  0.22737  0.44834  Biso   1.000  O
  O9       1.0000 0.48220  0.83393  0.81918  Biso   1.000  O
  O10      1.0000 0.98220  0.66607  0.31918  Biso   1.000  O
  O11      1.0000 0.51780  0.16607  0.18082  Biso   1.000  O
  O12      1.0000 0.01780  0.33393  0.68082  Biso   1.000  O
  O13      1.0000 0.54712  0.66719  0.89546  Biso   1.000  O
  O14      1.0000 0.04712  0.83281  0.39546  Biso   1.000  O
  O15      1.0000 0.45288  0.33281  0.10454  Biso   1.000  O
  O16      1.0000 0.95288  0.16719  0.60454  Biso   1.000  O
  O17      1.0000 0.69672  0.49026  0.09794  Biso   1.000  O
  O18      1.0000 0.19672  0.00974  0.59794  Biso   1.000  O
  O19      1.0000 0.30328  0.50974  0.90206  Biso   1.000  O
  O20      1.0000 0.80328  0.99026  0.40206  Biso   1.000  O
  O21      1.0000 0.75544  0.32186  0.17703  Biso   1.000  O
  O22      1.0000 0.25544  0.17814  0.67703  Biso   1.000  O
  O23      1.0000 0.24456  0.67814  0.82297  Biso   1.000  O
  O24      1.0000 0.74456  0.82186  0.32297  Biso   1.000  O
  O25      1.0000 0.56165  0.20700  0.92715  Biso   1.000  O
  O26      1.0000 0.06165  0.29300  0.42715  Biso   1.000  O
  O27      1.0000 0.43835  0.79300  0.07285  Biso   1.000  O
  O28      1.0000 0.93835  0.70700  0.57285  Biso   1.000  O
  O29      1.0000 0.55857  0.41564  0.94664  Biso   1.000  O
  O30      1.0000 0.05857  0.08436  0.44664  Biso   1.000  O
  O31      1.0000 0.44143  0.58436  0.05336  Biso   1.000  O
  O32      1.0000 0.94143  0.91564  0.55336  Biso   1.000  O
  O33      1.0000 0.79230  0.07950  0.23580  Biso   1.000  O
  O34      1.0000 0.29230  0.42050  0.73580  Biso   1.000  O
  O35      1.0000 0.20770  0.92050  0.76420  Biso   1.000  O
  O36      1.0000 0.70770  0.57950  0.26420  Biso   1.000  O
  O37      1.0000 0.56907  0.91590  0.20539  Biso   1.000  O
  O38      1.0000 0.06907  0.58410  0.70539  Biso   1.000  O
  O39      1.0000 0.43093  0.08410  0.79461  Biso   1.000  O
  O40      1.0000 0.93093  0.41590  0.29461  Biso   1.000  O
  O41      1.0000 0.87930  0.82470  0.19710  Biso   1.000  O
  O42      1.0000 0.37930  0.67530  0.69710  Biso   1.000  O
  O43      1.0000 0.12070  0.17530  0.80290  Biso   1.000  O
  O44      1.0000 0.62070  0.32470  0.30290  Biso   1.000  O
  H1       1.0000 0.60400  0.95200  0.93420  Biso   1.000  H
  H2       1.0000 0.10400  0.54800  0.43420  Biso   1.000  H
  H3       1.0000 0.39600  0.04800  0.06580  Biso   1.000  H
  H4       1.0000 0.89600  0.45200  0.56580  Biso   1.000  H
  H5       1.0000 0.72300  0.20900  0.03960  Biso   1.000  H
  H6       1.0000 0.22300  0.29100  0.53960  Biso   1.000  H
  H7       1.0000 0.27700  0.79100  0.96040  Biso   1.000  H
  H8       1.0000 0.77700  0.70900  0.46040  Biso   1.000  H
  H9       1.0000 0.92500  0.23200  0.06100  Biso   1.000  H
  H10      1.0000 0.42500  0.26800  0.56100  Biso   1.000  H
  H11      1.0000 0.07500  0.76800  0.93900  Biso   1.000  H
  H12      1.0000 0.57500  0.73200  0.43900  Biso   1.000  H
  H13      1.0000 0.06700  0.42300  0.87300  Biso   1.000  H
  H14      1.0000 0.56700  0.07700  0.37300  Biso   1.000  H
  H15      1.0000 0.93300  0.57700  0.12700  Biso   1.000  H
  H16      1.0000 0.43300  0.92300  0.62700  Biso   1.000  H
  H17      1.0000 0.73500  0.43500  0.87300  Biso   1.000  H
  H18      1.0000 0.23500  0.06500  0.37300  Biso   1.000  H
  H19      1.0000 0.26500  0.56500  0.12700  Biso   1.000  H
  H20      1.0000 0.76500  0.93500  0.62700  Biso   1.000  H
  H21      1.0000 0.77500  0.13500  0.21800  Biso   1.000  H
  H22      1.0000 0.27500  0.36500  0.71800  Biso   1.000  H
  H23      1.0000 0.22500  0.86500  0.78200  Biso   1.000  H
  H24      1.0000 0.72500  0.63500  0.28200  Biso   1.000  H
  H25      1.0000 0.97300  0.93500  0.75600  Biso   1.000  H
  H26      1.0000 0.47300  0.56500  0.25600  Biso   1.000  H
  H27      1.0000 0.02700  0.06500  0.24400  Biso   1.000  H
  H28      1.0000 0.52700  0.43500  0.74400  Biso   1.000  H
  H29      1.0000 0.75900  0.71000  0.85300  Biso   1.000  H
  H30      1.0000 0.25900  0.79000  0.35300  Biso   1.000  H
  H31      1.0000 0.24100  0.29000  0.14700  Biso   1.000  H
  H32      1.0000 0.74100  0.21000  0.64700  Biso   1.000  H
  H33      1.0000 0.54300  0.87100  0.17200  Biso   1.000  H
  H34      1.0000 0.04300  0.62900  0.67200  Biso   1.000  H
  H35      1.0000 0.45700  0.12900  0.82800  Biso   1.000  H
  H36      1.0000 0.95700  0.37100  0.32800  Biso   1.000  H
  H37      1.0000 0.79600  0.09100  0.28400  Biso   1.000  H
  H38      1.0000 0.29600  0.40900  0.78400  Biso   1.000  H
  H39      1.0000 0.20400  0.90900  0.71600  Biso   1.000  H
  H40      1.0000 0.70400  0.59100  0.21600  Biso   1.000  H
  H41      1.0000 0.87800  0.12000  0.81200  Biso   1.000  H
  H42      1.0000 0.37800  0.38000  0.31200  Biso   1.000  H
  H43      1.0000 0.12200  0.88000  0.18800  Biso   1.000  H
  H44      1.0000 0.62200  0.62000  0.68800  Biso   1.000  H
  H45      1.0000 0.74400  0.07300  0.89500  Biso   1.000  H
  H46      1.0000 0.24400  0.42700  0.39500  Biso   1.000  H
  H47      1.0000 0.25600  0.92700  0.10500  Biso   1.000  H
  H48      1.0000 0.75600  0.57300  0.60500  Biso   1.000  H
  H49      1.0000 0.88900  0.49300  0.81800  Biso   1.000  H
  H50      1.0000 0.38900  0.00700  0.31800  Biso   1.000  H
  H51      1.0000 0.11100  0.50700  0.18200  Biso   1.000  H
  H52      1.0000 0.61100  0.99300  0.68200  Biso   1.000  H
  H53      1.0000 0.55600  0.99000  0.19600  Biso   1.000  H
  H54      1.0000 0.05600  0.51000  0.69600  Biso   1.000  H
  H55      1.0000 0.44400  0.01000  0.80400  Biso   1.000  H
  H56      1.0000 0.94400  0.49000  0.30400  Biso   1.000  H
  H57      1.0000 0.90000  0.74300  0.77400  Biso   1.000  H
  H58      1.0000 0.40000  0.75700  0.27400  Biso   1.000  H
  H59      1.0000 0.10000  0.25700  0.22600  Biso   1.000  H
  H60      1.0000 0.60000  0.24300  0.72600  Biso   1.000  H
  H61      1.0000 0.06800  0.30200  0.99300  Biso   1.000  H
  H62      1.0000 0.56800  0.19800  0.49300  Biso   1.000  H
  H63      1.0000 0.93200  0.69800  0.00700  Biso   1.000  H
  H64      1.0000 0.43200  0.80200  0.50700  Biso   1.000  H
  H65      1.0000 0.89400  0.79200  0.22800  Biso   1.000  H
  H66      1.0000 0.39400  0.70800  0.72800  Biso   1.000  H
  H67      1.0000 0.10600  0.20800  0.77200  Biso   1.000  H
  H68      1.0000 0.60600  0.29200  0.27200  Biso   1.000  H
  H69      1.0000 0.89600  0.81400  0.15000  Biso   1.000  H
  H70      1.0000 0.39600  0.68600  0.65000  Biso   1.000  H
  H71      1.0000 0.10400  0.18600  0.85000  Biso   1.000  H
  H72      1.0000 0.60400  0.31400  0.35000  Biso   1.000  H
