data_image0
_cell_length_a       15.349
_cell_length_b       10.756
_cell_length_c       21.42
_cell_angle_alpha    90
_cell_angle_beta     90
_cell_angle_gamma    90

_symmetry_space_group_name_H-M    "P 1"
_symmetry_int_tables_number       1

loop_
  _symmetry_equiv_pos_as_xyz
  'x, y, z'

loop_
  _atom_site_label
  _atom_site_occupancy
  _atom_site_fract_x
  _atom_site_fract_y
  _atom_site_fract_z
  _atom_site_thermal_displace_type
  _atom_site_B_iso_or_equiv
  _atom_site_type_symbol
  Cu1      1.0000 0.05967  0.29034  0.06687  Biso   1.000  Cu
  Cu2      1.0000 0.44033  0.70966  0.56687  Biso   1.000  Cu
  Cu3      1.0000 0.94033  0.79034  0.43313  Biso   1.000  Cu
  Cu4      1.0000 0.55967  0.20966  0.93313  Biso   1.000  Cu
  Cu5      1.0000 0.94033  0.70966  0.93313  Biso   1.000  Cu
  Cu6      1.0000 0.55967  0.29034  0.43313  Biso   1.000  Cu
  Cu7      1.0000 0.05967  0.20966  0.56687  Biso   1.000  Cu
  Cu8      1.0000 0.44033  0.79034  0.06687  Biso   1.000  Cu
  O1       1.0000 0.13760  0.34930  0.13220  Biso   1.000  O
  O2       1.0000 0.36240  0.65070  0.63220  Biso   1.000  O
  O3       1.0000 0.86240  0.84930  0.36780  Biso   1.000  O
  O4       1.0000 0.63760  0.15070  0.86780  Biso   1.000  O
  O5       1.0000 0.86240  0.65070  0.86780  Biso   1.000  O
  O6       1.0000 0.63760  0.34930  0.36780  Biso   1.000  O
  O7       1.0000 0.13760  0.15070  0.63220  Biso   1.000  O
  O8       1.0000 0.36240  0.84930  0.13220  Biso   1.000  O
  O9       1.0000 0.02050  0.46480  0.14850  Biso   1.000  O
  O10      1.0000 0.47950  0.53520  0.64850  Biso   1.000  O
  O11      1.0000 0.97950  0.96480  0.35150  Biso   1.000  O
  O12      1.0000 0.52050  0.03520  0.85150  Biso   1.000  O
  O13      1.0000 0.97950  0.53520  0.85150  Biso   1.000  O
  O14      1.0000 0.52050  0.46480  0.35150  Biso   1.000  O
  O15      1.0000 0.02050  0.03520  0.64850  Biso   1.000  O
  O16      1.0000 0.47950  0.96480  0.14850  Biso   1.000  O
  O17      1.0000 0.39850  0.59490  0.50270  Biso   1.000  O
  O18      1.0000 0.10150  0.40510  0.00270  Biso   1.000  O
  O19      1.0000 0.60150  0.09490  0.99730  Biso   1.000  O
  O20      1.0000 0.89850  0.90510  0.49730  Biso   1.000  O
  O21      1.0000 0.60150  0.40510  0.49730  Biso   1.000  O
  O22      1.0000 0.89850  0.59490  0.99730  Biso   1.000  O
  O23      1.0000 0.39850  0.90510  0.00270  Biso   1.000  O
  O24      1.0000 0.10150  0.09490  0.50270  Biso   1.000  O
  O25      1.0000 0.33370  0.77530  0.48370  Biso   1.000  O
  O26      1.0000 0.16630  0.22470  0.98370  Biso   1.000  O
  O27      1.0000 0.66630  0.27530  0.01630  Biso   1.000  O
  O28      1.0000 0.83370  0.72470  0.51630  Biso   1.000  O
  O29      1.0000 0.66630  0.22470  0.51630  Biso   1.000  O
  O30      1.0000 0.83370  0.77530  0.01630  Biso   1.000  O
  O31      1.0000 0.33370  0.72470  0.98370  Biso   1.000  O
  O32      1.0000 0.16630  0.27530  0.48370  Biso   1.000  O
  N1       1.0000 0.02970  0.13470  0.11040  Biso   1.000  N
  N2       1.0000 0.47030  0.86530  0.61040  Biso   1.000  N
  N3       1.0000 0.97030  0.63470  0.38960  Biso   1.000  N
  N4       1.0000 0.52970  0.36530  0.88960  Biso   1.000  N
  N5       1.0000 0.97030  0.86530  0.88960  Biso   1.000  N
  N6       1.0000 0.52970  0.13470  0.38960  Biso   1.000  N
  N7       1.0000 0.02970  0.36530  0.61040  Biso   1.000  N
  N8       1.0000 0.47030  0.63470  0.11040  Biso   1.000  N
  N9       1.0000 0.95890  0.24000  0.01560  Biso   1.000  N
  N10      1.0000 0.54110  0.76000  0.51560  Biso   1.000  N
  N11      1.0000 0.04110  0.74000  0.48440  Biso   1.000  N
  N12      1.0000 0.45890  0.26000  0.98440  Biso   1.000  N
  N13      1.0000 0.04110  0.76000  0.98440  Biso   1.000  N
  N14      1.0000 0.45890  0.24000  0.48440  Biso   1.000  N
  N15      1.0000 0.95890  0.26000  0.51560  Biso   1.000  N
  N16      1.0000 0.54110  0.74000  0.01560  Biso   1.000  N
  C1       1.0000 0.09640  0.43530  0.16070  Biso   1.000  C
  C2       1.0000 0.40360  0.56470  0.66070  Biso   1.000  C
  C3       1.0000 0.90360  0.93530  0.33930  Biso   1.000  C
  C4       1.0000 0.59640  0.06470  0.83930  Biso   1.000  C
  C5       1.0000 0.90360  0.56470  0.83930  Biso   1.000  C
  C6       1.0000 0.59640  0.43530  0.33930  Biso   1.000  C
  C7       1.0000 0.09640  0.06470  0.66070  Biso   1.000  C
  C8       1.0000 0.40360  0.93530  0.16070  Biso   1.000  C
  C9       1.0000 0.14310  0.49710  0.21250  Biso   1.000  C
  C10      1.0000 0.35690  0.50290  0.71250  Biso   1.000  C
  C11      1.0000 0.85690  0.99710  0.28750  Biso   1.000  C
  C12      1.0000 0.64310  0.00290  0.78750  Biso   1.000  C
  C13      1.0000 0.85690  0.50290  0.78750  Biso   1.000  C
  C14      1.0000 0.64310  0.49710  0.28750  Biso   1.000  C
  C15      1.0000 0.14310  0.00290  0.71250  Biso   1.000  C
  C16      1.0000 0.35690  0.99710  0.21250  Biso   1.000  C
  C17      1.0000 0.11390  0.60280  0.23830  Biso   1.000  C
  C18      1.0000 0.38610  0.39720  0.73830  Biso   1.000  C
  C19      1.0000 0.88610  0.10280  0.26170  Biso   1.000  C
  C20      1.0000 0.61390  0.89720  0.76170  Biso   1.000  C
  C21      1.0000 0.88610  0.39720  0.76170  Biso   1.000  C
  C22      1.0000 0.61390  0.60280  0.26170  Biso   1.000  C
  C23      1.0000 0.11390  0.89720  0.73830  Biso   1.000  C
  C24      1.0000 0.38610  0.10280  0.23830  Biso   1.000  C
  H1       1.0000 0.06460  0.64000  0.22130  Biso   1.000  H
  H2       1.0000 0.43540  0.36000  0.72130  Biso   1.000  H
  H3       1.0000 0.93540  0.14000  0.27870  Biso   1.000  H
  H4       1.0000 0.56460  0.86000  0.77870  Biso   1.000  H
  H5       1.0000 0.93540  0.36000  0.77870  Biso   1.000  H
  H6       1.0000 0.56460  0.64000  0.27870  Biso   1.000  H
  H7       1.0000 0.06460  0.86000  0.72130  Biso   1.000  H
  H8       1.0000 0.43540  0.14000  0.22130  Biso   1.000  H
  C25      1.0000 0.15490  0.66120  0.29080  Biso   1.000  C
  C26      1.0000 0.34510  0.33880  0.79080  Biso   1.000  C
  C27      1.0000 0.84510  0.16120  0.20920  Biso   1.000  C
  C28      1.0000 0.65490  0.83880  0.70920  Biso   1.000  C
  C29      1.0000 0.84510  0.33880  0.70920  Biso   1.000  C
  C30      1.0000 0.65490  0.66120  0.20920  Biso   1.000  C
  C31      1.0000 0.15490  0.83880  0.79080  Biso   1.000  C
  C32      1.0000 0.34510  0.16120  0.29080  Biso   1.000  C
  H9       1.0000 0.13360  0.73510  0.30740  Biso   1.000  H
  H10      1.0000 0.36640  0.26490  0.80740  Biso   1.000  H
  H11      1.0000 0.86640  0.23510  0.19260  Biso   1.000  H
  H12      1.0000 0.63360  0.76490  0.69260  Biso   1.000  H
  H13      1.0000 0.86640  0.26490  0.69260  Biso   1.000  H
  H14      1.0000 0.63360  0.73510  0.19260  Biso   1.000  H
  H15      1.0000 0.13360  0.76490  0.80740  Biso   1.000  H
  H16      1.0000 0.36640  0.23510  0.30740  Biso   1.000  H
  C33      1.0000 0.22540  0.60530  0.31510  Biso   1.000  C
  C34      1.0000 0.27460  0.39470  0.81510  Biso   1.000  C
  C35      1.0000 0.77460  0.10530  0.18490  Biso   1.000  C
  C36      1.0000 0.72540  0.89470  0.68490  Biso   1.000  C
  C37      1.0000 0.77460  0.39470  0.68490  Biso   1.000  C
  C38      1.0000 0.72540  0.60530  0.18490  Biso   1.000  C
  C39      1.0000 0.22540  0.89470  0.81510  Biso   1.000  C
  C40      1.0000 0.27460  0.10530  0.31510  Biso   1.000  C
  C41      1.0000 0.26180  0.50150  0.29240  Biso   1.000  C
  C42      1.0000 0.23820  0.49850  0.79240  Biso   1.000  C
  C43      1.0000 0.73820  0.00150  0.20760  Biso   1.000  C
  C44      1.0000 0.76180  0.99850  0.70760  Biso   1.000  C
  C45      1.0000 0.73820  0.49850  0.70760  Biso   1.000  C
  C46      1.0000 0.76180  0.50150  0.20760  Biso   1.000  C
  C47      1.0000 0.26180  0.99850  0.79240  Biso   1.000  C
  C48      1.0000 0.23820  0.00150  0.29240  Biso   1.000  C
  H17      1.0000 0.31110  0.46520  0.30990  Biso   1.000  H
  H18      1.0000 0.18890  0.53480  0.80990  Biso   1.000  H
  H19      1.0000 0.68890  0.96520  0.19010  Biso   1.000  H
  H20      1.0000 0.81110  0.03480  0.69010  Biso   1.000  H
  H21      1.0000 0.68890  0.53480  0.69010  Biso   1.000  H
  H22      1.0000 0.81110  0.46520  0.19010  Biso   1.000  H
  H23      1.0000 0.31110  0.03480  0.80990  Biso   1.000  H
  H24      1.0000 0.18890  0.96520  0.30990  Biso   1.000  H
  C49      1.0000 0.21640  0.44860  0.23640  Biso   1.000  C
  C50      1.0000 0.28360  0.55140  0.73640  Biso   1.000  C
  C51      1.0000 0.78360  0.94860  0.26360  Biso   1.000  C
  C52      1.0000 0.71640  0.05140  0.76360  Biso   1.000  C
  C53      1.0000 0.78360  0.55140  0.76360  Biso   1.000  C
  C54      1.0000 0.71640  0.44860  0.26360  Biso   1.000  C
  C55      1.0000 0.21640  0.05140  0.73640  Biso   1.000  C
  C56      1.0000 0.28360  0.94860  0.23640  Biso   1.000  C
  H25      1.0000 0.24020  0.37880  0.21730  Biso   1.000  H
  H26      1.0000 0.25980  0.62120  0.71730  Biso   1.000  H
  H27      1.0000 0.75980  0.87880  0.28270  Biso   1.000  H
  H28      1.0000 0.74020  0.12120  0.78270  Biso   1.000  H
  H29      1.0000 0.75980  0.62120  0.78270  Biso   1.000  H
  H30      1.0000 0.74020  0.37880  0.28270  Biso   1.000  H
  H31      1.0000 0.24020  0.12120  0.71730  Biso   1.000  H
  H32      1.0000 0.25980  0.87880  0.21730  Biso   1.000  H
  C57      1.0000 0.26240  0.66620  0.37330  Biso   1.000  C
  C58      1.0000 0.23760  0.33380  0.87330  Biso   1.000  C
  C59      1.0000 0.73760  0.16620  0.12670  Biso   1.000  C
  C60      1.0000 0.76240  0.83380  0.62670  Biso   1.000  C
  C61      1.0000 0.73760  0.33380  0.62670  Biso   1.000  C
  C62      1.0000 0.76240  0.66620  0.12670  Biso   1.000  C
  C63      1.0000 0.26240  0.83380  0.87330  Biso   1.000  C
  C64      1.0000 0.23760  0.16620  0.37330  Biso   1.000  C
  H33      1.0000 0.24490  0.74610  0.38410  Biso   1.000  H
  H34      1.0000 0.25510  0.25390  0.88410  Biso   1.000  H
  H35      1.0000 0.75510  0.24610  0.11590  Biso   1.000  H
  H36      1.0000 0.74490  0.75390  0.61590  Biso   1.000  H
  H37      1.0000 0.75510  0.25390  0.61590  Biso   1.000  H
  H38      1.0000 0.74490  0.74610  0.11590  Biso   1.000  H
  H39      1.0000 0.24490  0.75390  0.88410  Biso   1.000  H
  H40      1.0000 0.25510  0.24610  0.38410  Biso   1.000  H
  C65      1.0000 0.31920  0.60690  0.40870  Biso   1.000  C
  C66      1.0000 0.18080  0.39310  0.90870  Biso   1.000  C
  C67      1.0000 0.68080  0.10690  0.09130  Biso   1.000  C
  C68      1.0000 0.81920  0.89310  0.59130  Biso   1.000  C
  C69      1.0000 0.68080  0.39310  0.59130  Biso   1.000  C
  C70      1.0000 0.81920  0.60690  0.09130  Biso   1.000  C
  C71      1.0000 0.31920  0.89310  0.90870  Biso   1.000  C
  C72      1.0000 0.18080  0.10690  0.40870  Biso   1.000  C
  H41      1.0000 0.33950  0.52910  0.39650  Biso   1.000  H
  H42      1.0000 0.16050  0.47090  0.89650  Biso   1.000  H
  H43      1.0000 0.66050  0.02910  0.10350  Biso   1.000  H
  H44      1.0000 0.83950  0.97090  0.60350  Biso   1.000  H
  H45      1.0000 0.66050  0.47090  0.60350  Biso   1.000  H
  H46      1.0000 0.83950  0.52910  0.10350  Biso   1.000  H
  H47      1.0000 0.33950  0.97090  0.89650  Biso   1.000  H
  H48      1.0000 0.16050  0.02910  0.39650  Biso   1.000  H
  C73      1.0000 0.35200  0.66430  0.46940  Biso   1.000  C
  C74      1.0000 0.14800  0.33570  0.96940  Biso   1.000  C
  C75      1.0000 0.64800  0.16430  0.03060  Biso   1.000  C
  C76      1.0000 0.85200  0.83570  0.53060  Biso   1.000  C
  C77      1.0000 0.64800  0.33570  0.53060  Biso   1.000  C
  C78      1.0000 0.85200  0.66430  0.03060  Biso   1.000  C
  C79      1.0000 0.35200  0.83570  0.96940  Biso   1.000  C
  C80      1.0000 0.14800  0.16430  0.46940  Biso   1.000  C
  C81      1.0000 0.06900  0.08510  0.16110  Biso   1.000  C
  C82      1.0000 0.43100  0.91490  0.66110  Biso   1.000  C
  C83      1.0000 0.93100  0.58510  0.33890  Biso   1.000  C
  C84      1.0000 0.56900  0.41490  0.83890  Biso   1.000  C
  C85      1.0000 0.93100  0.91490  0.83890  Biso   1.000  C
  C86      1.0000 0.56900  0.08510  0.33890  Biso   1.000  C
  C87      1.0000 0.06900  0.41490  0.66110  Biso   1.000  C
  C88      1.0000 0.43100  0.58510  0.16110  Biso   1.000  C
  H49      1.0000 0.11260  0.13030  0.18100  Biso   1.000  H
  H50      1.0000 0.38740  0.86970  0.68100  Biso   1.000  H
  H51      1.0000 0.88740  0.63030  0.31900  Biso   1.000  H
  H52      1.0000 0.61260  0.36970  0.81900  Biso   1.000  H
  H53      1.0000 0.88740  0.86970  0.81900  Biso   1.000  H
  H54      1.0000 0.61260  0.13030  0.31900  Biso   1.000  H
  H55      1.0000 0.11260  0.36970  0.68100  Biso   1.000  H
  H56      1.0000 0.38740  0.63030  0.18100  Biso   1.000  H
  C89      1.0000 0.04660  0.96870  0.18470  Biso   1.000  C
  C90      1.0000 0.45340  0.03130  0.68470  Biso   1.000  C
  C91      1.0000 0.95340  0.46870  0.31530  Biso   1.000  C
  C92      1.0000 0.54660  0.53130  0.81530  Biso   1.000  C
  C93      1.0000 0.95340  0.03130  0.81530  Biso   1.000  C
  C94      1.0000 0.54660  0.96870  0.31530  Biso   1.000  C
  C95      1.0000 0.04660  0.53130  0.68470  Biso   1.000  C
  C96      1.0000 0.45340  0.46870  0.18470  Biso   1.000  C
  H57      1.0000 0.07660  0.93600  0.21860  Biso   1.000  H
  H58      1.0000 0.42340  0.06400  0.71860  Biso   1.000  H
  H59      1.0000 0.92340  0.43600  0.28140  Biso   1.000  H
  H60      1.0000 0.57660  0.56400  0.78140  Biso   1.000  H
  H61      1.0000 0.92340  0.06400  0.78140  Biso   1.000  H
  H62      1.0000 0.57660  0.93600  0.28140  Biso   1.000  H
  H63      1.0000 0.07660  0.56400  0.71860  Biso   1.000  H
  H64      1.0000 0.42340  0.43600  0.21860  Biso   1.000  H
  C97      1.0000 0.98110  0.90360  0.15800  Biso   1.000  C
  C98      1.0000 0.51890  0.09640  0.65800  Biso   1.000  C
  C99      1.0000 0.01890  0.40360  0.34200  Biso   1.000  C
  C100     1.0000 0.48110  0.59640  0.84200  Biso   1.000  C
  C101     1.0000 0.01890  0.09640  0.84200  Biso   1.000  C
  C102     1.0000 0.48110  0.90360  0.34200  Biso   1.000  C
  C103     1.0000 0.98110  0.59640  0.65800  Biso   1.000  C
  C104     1.0000 0.51890  0.40360  0.15800  Biso   1.000  C
  H65      1.0000 0.96370  0.82760  0.17450  Biso   1.000  H
  H66      1.0000 0.53630  0.17240  0.67450  Biso   1.000  H
  H67      1.0000 0.03630  0.32760  0.32550  Biso   1.000  H
  H68      1.0000 0.46370  0.67240  0.82550  Biso   1.000  H
  H69      1.0000 0.03630  0.17240  0.82550  Biso   1.000  H
  H70      1.0000 0.46370  0.82760  0.32550  Biso   1.000  H
  H71      1.0000 0.96370  0.67240  0.67450  Biso   1.000  H
  H72      1.0000 0.53630  0.32760  0.17450  Biso   1.000  H
  C105     1.0000 0.94130  0.95050  0.10680  Biso   1.000  C
  C106     1.0000 0.55870  0.04950  0.60680  Biso   1.000  C
  C107     1.0000 0.05870  0.45050  0.39320  Biso   1.000  C
  C108     1.0000 0.44130  0.54950  0.89320  Biso   1.000  C
  C109     1.0000 0.05870  0.04950  0.89320  Biso   1.000  C
  C110     1.0000 0.44130  0.95050  0.39320  Biso   1.000  C
  C111     1.0000 0.94130  0.54950  0.60680  Biso   1.000  C
  C112     1.0000 0.55870  0.45050  0.10680  Biso   1.000  C
  H73      1.0000 0.89700  0.90610  0.08720  Biso   1.000  H
  H74      1.0000 0.60300  0.09390  0.58720  Biso   1.000  H
  H75      1.0000 0.10300  0.40610  0.41280  Biso   1.000  H
  H76      1.0000 0.39700  0.59390  0.91280  Biso   1.000  H
  H77      1.0000 0.10300  0.09390  0.91280  Biso   1.000  H
  H78      1.0000 0.39700  0.90610  0.41280  Biso   1.000  H
  H79      1.0000 0.89700  0.59390  0.58720  Biso   1.000  H
  H80      1.0000 0.60300  0.40610  0.08720  Biso   1.000  H
  C113     1.0000 0.96680  0.06490  0.08390  Biso   1.000  C
  C114     1.0000 0.53320  0.93510  0.58390  Biso   1.000  C
  C115     1.0000 0.03320  0.56490  0.41610  Biso   1.000  C
  C116     1.0000 0.46680  0.43510  0.91610  Biso   1.000  C
  C117     1.0000 0.03320  0.93510  0.91610  Biso   1.000  C
  C118     1.0000 0.46680  0.06490  0.41610  Biso   1.000  C
  C119     1.0000 0.96680  0.43510  0.58390  Biso   1.000  C
  C120     1.0000 0.53320  0.56490  0.08390  Biso   1.000  C
  C121     1.0000 0.92610  0.12520  0.02860  Biso   1.000  C
  C122     1.0000 0.57390  0.87480  0.52860  Biso   1.000  C
  C123     1.0000 0.07390  0.62520  0.47140  Biso   1.000  C
  C124     1.0000 0.42610  0.37480  0.97140  Biso   1.000  C
  C125     1.0000 0.07390  0.87480  0.97140  Biso   1.000  C
  C126     1.0000 0.42610  0.12520  0.47140  Biso   1.000  C
  C127     1.0000 0.92610  0.37480  0.52860  Biso   1.000  C
  C128     1.0000 0.57390  0.62520  0.02860  Biso   1.000  C
  C129     1.0000 0.85940  0.07400  0.99360  Biso   1.000  C
  C130     1.0000 0.64060  0.92600  0.49360  Biso   1.000  C
  C131     1.0000 0.14060  0.57400  0.50640  Biso   1.000  C
  C132     1.0000 0.35940  0.42600  0.00640  Biso   1.000  C
  C133     1.0000 0.14060  0.92600  0.00640  Biso   1.000  C
  C134     1.0000 0.35940  0.07400  0.50640  Biso   1.000  C
  C135     1.0000 0.85940  0.42600  0.49360  Biso   1.000  C
  C136     1.0000 0.64060  0.57400  0.99360  Biso   1.000  C
  H81      1.0000 0.83800  0.99520  0.00270  Biso   1.000  H
  H82      1.0000 0.66200  0.00480  0.50270  Biso   1.000  H
  H83      1.0000 0.16200  0.49520  0.49730  Biso   1.000  H
  H84      1.0000 0.33800  0.50480  0.99730  Biso   1.000  H
  H85      1.0000 0.16200  0.00480  0.99730  Biso   1.000  H
  H86      1.0000 0.33800  0.99520  0.49730  Biso   1.000  H
  H87      1.0000 0.83800  0.50480  0.50270  Biso   1.000  H
  H88      1.0000 0.66200  0.49520  0.00270  Biso   1.000  H
  C137     1.0000 0.82580  0.14170  0.94560  Biso   1.000  C
  C138     1.0000 0.67420  0.85830  0.44560  Biso   1.000  C
  C139     1.0000 0.17420  0.64170  0.55440  Biso   1.000  C
  C140     1.0000 0.32580  0.35830  0.05440  Biso   1.000  C
  C141     1.0000 0.17420  0.85830  0.05440  Biso   1.000  C
  C142     1.0000 0.32580  0.14170  0.55440  Biso   1.000  C
  C143     1.0000 0.82580  0.35830  0.44560  Biso   1.000  C
  C144     1.0000 0.67420  0.64170  0.94560  Biso   1.000  C
  H89      1.0000 0.78130  0.10850  0.92130  Biso   1.000  H
  H90      1.0000 0.71870  0.89150  0.42130  Biso   1.000  H
  H91      1.0000 0.21870  0.60850  0.57870  Biso   1.000  H
  H92      1.0000 0.28130  0.39150  0.07870  Biso   1.000  H
  H93      1.0000 0.21870  0.89150  0.07870  Biso   1.000  H
  H94      1.0000 0.28130  0.10850  0.57870  Biso   1.000  H
  H95      1.0000 0.78130  0.39150  0.42130  Biso   1.000  H
  H96      1.0000 0.71870  0.60850  0.92130  Biso   1.000  H
  C145     1.0000 0.85730  0.25950  0.93260  Biso   1.000  C
  C146     1.0000 0.64270  0.74050  0.43260  Biso   1.000  C
  C147     1.0000 0.14270  0.75950  0.56740  Biso   1.000  C
  C148     1.0000 0.35730  0.24050  0.06740  Biso   1.000  C
  C149     1.0000 0.14270  0.74050  0.06740  Biso   1.000  C
  C150     1.0000 0.35730  0.25950  0.56740  Biso   1.000  C
  C151     1.0000 0.85730  0.24050  0.43260  Biso   1.000  C
  C152     1.0000 0.64270  0.75950  0.93260  Biso   1.000  C
  H97      1.0000 0.83370  0.30650  0.90030  Biso   1.000  H
  H98      1.0000 0.66630  0.69350  0.40030  Biso   1.000  H
  H99      1.0000 0.16630  0.80650  0.59970  Biso   1.000  H
  H100     1.0000 0.33370  0.19350  0.09970  Biso   1.000  H
  H101     1.0000 0.16630  0.69350  0.09970  Biso   1.000  H
  H102     1.0000 0.33370  0.30650  0.59970  Biso   1.000  H
  H103     1.0000 0.83370  0.19350  0.40030  Biso   1.000  H
  H104     1.0000 0.66630  0.80650  0.90030  Biso   1.000  H
  C153     1.0000 0.92350  0.30490  0.96810  Biso   1.000  C
  C154     1.0000 0.57650  0.69510  0.46810  Biso   1.000  C
  C155     1.0000 0.07650  0.80490  0.53190  Biso   1.000  C
  C156     1.0000 0.42350  0.19510  0.03190  Biso   1.000  C
  C157     1.0000 0.07650  0.69510  0.03190  Biso   1.000  C
  C158     1.0000 0.42350  0.30490  0.53190  Biso   1.000  C
  C159     1.0000 0.92350  0.19510  0.46810  Biso   1.000  C
  C160     1.0000 0.57650  0.80490  0.96810  Biso   1.000  C
  H105     1.0000 0.94520  0.38370  0.95920  Biso   1.000  H
  H106     1.0000 0.55480  0.61630  0.45920  Biso   1.000  H
  H107     1.0000 0.05480  0.88370  0.54080  Biso   1.000  H
  H108     1.0000 0.44520  0.11630  0.04080  Biso   1.000  H
  H109     1.0000 0.05480  0.61630  0.04080  Biso   1.000  H
  H110     1.0000 0.44520  0.38370  0.54080  Biso   1.000  H
  H111     1.0000 0.94520  0.11630  0.45920  Biso   1.000  H
  H112     1.0000 0.55480  0.88370  0.95920  Biso   1.000  H
