data_image0
_cell_length_a       13.655
_cell_length_b       8.165
_cell_length_c       23.753
_cell_angle_alpha    90
_cell_angle_beta     104.74
_cell_angle_gamma    90

_symmetry_space_group_name_H-M    "P 1"
_symmetry_int_tables_number       1

loop_
  _symmetry_equiv_pos_as_xyz
  'x, y, z'

loop_
  _atom_site_label
  _atom_site_occupancy
  _atom_site_fract_x
  _atom_site_fract_y
  _atom_site_fract_z
  _atom_site_thermal_displace_type
  _atom_site_B_iso_or_equiv
  _atom_site_type_symbol
  Cu1      1.0000 0.40187  0.02851  0.90123  Biso   1.000  Cu
  Cu2      1.0000 0.09813  0.52851  0.59877  Biso   1.000  Cu
  Cu3      1.0000 0.59813  0.97149  0.09877  Biso   1.000  Cu
  Cu4      1.0000 0.90187  0.47149  0.40123  Biso   1.000  Cu
  O1       1.0000 0.22272  0.37860  0.66544  Biso   1.000  O
  O2       1.0000 0.27728  0.87860  0.83456  Biso   1.000  O
  O3       1.0000 0.77728  0.62140  0.33456  Biso   1.000  O
  O4       1.0000 0.72272  0.12140  0.16544  Biso   1.000  O
  O5       1.0000 0.42274  0.87230  0.96558  Biso   1.000  O
  O6       1.0000 0.07726  0.37230  0.53442  Biso   1.000  O
  O7       1.0000 0.57726  0.12770  0.03442  Biso   1.000  O
  O8       1.0000 0.92274  0.62770  0.46558  Biso   1.000  O
  H1       1.0000 0.40330  0.90160  0.99490  Biso   1.000  H
  H2       1.0000 0.09670  0.40160  0.50510  Biso   1.000  H
  H3       1.0000 0.59670  0.09840  0.00510  Biso   1.000  H
  H4       1.0000 0.90330  0.59840  0.49490  Biso   1.000  H
  H5       1.0000 0.47980  0.82730  0.97620  Biso   1.000  H
  H6       1.0000 0.02020  0.32730  0.52380  Biso   1.000  H
  H7       1.0000 0.52020  0.17270  0.02380  Biso   1.000  H
  H8       1.0000 0.97980  0.67270  0.47620  Biso   1.000  H
  O9       1.0000 0.29374  0.12610  0.92898  Biso   1.000  O
  O10      1.0000 0.20626  0.62610  0.57102  Biso   1.000  O
  O11      1.0000 0.70626  0.87390  0.07102  Biso   1.000  O
  O12      1.0000 0.79374  0.37390  0.42898  Biso   1.000  O
  O13      1.0000 0.50401  0.92190  0.87045  Biso   1.000  O
  O14      1.0000 0.99599  0.42190  0.62955  Biso   1.000  O
  O15      1.0000 0.49599  0.07810  0.12955  Biso   1.000  O
  O16      1.0000 0.00401  0.57810  0.37045  Biso   1.000  O
  O17      1.0000 0.40477  0.28310  0.99045  Biso   1.000  O
  O18      1.0000 0.09523  0.78310  0.50955  Biso   1.000  O
  O19      1.0000 0.59523  0.71690  0.00955  Biso   1.000  O
  O20      1.0000 0.90477  0.21690  0.49045  Biso   1.000  O
  O21      1.0000 0.62610  0.05540  0.93373  Biso   1.000  O
  O22      1.0000 0.87390  0.55540  0.56627  Biso   1.000  O
  O23      1.0000 0.37390  0.94460  0.06627  Biso   1.000  O
  O24      1.0000 0.12610  0.44460  0.43373  Biso   1.000  O
  O25      1.0000 0.34834  0.44730  0.06826  Biso   1.000  O
  O26      1.0000 0.15166  0.94730  0.43174  Biso   1.000  O
  O27      1.0000 0.65166  0.55270  0.93174  Biso   1.000  O
  O28      1.0000 0.84834  0.05270  0.56826  Biso   1.000  O
  H9       1.0000 0.38710  0.41900  0.04770  Biso   1.000  H
  H10      1.0000 0.11290  0.91900  0.45230  Biso   1.000  H
  H11      1.0000 0.61290  0.58100  0.95230  Biso   1.000  H
  H12      1.0000 0.88710  0.08100  0.54770  Biso   1.000  H
  O29      1.0000 0.80755  0.05680  0.92055  Biso   1.000  O
  O30      1.0000 0.69245  0.55680  0.57945  Biso   1.000  O
  O31      1.0000 0.19245  0.94320  0.07945  Biso   1.000  O
  O32      1.0000 0.30755  0.44320  0.42055  Biso   1.000  O
  H13      1.0000 0.76220  0.07150  0.93820  Biso   1.000  H
  H14      1.0000 0.73780  0.57150  0.56180  Biso   1.000  H
  H15      1.0000 0.23780  0.92850  0.06180  Biso   1.000  H
  H16      1.0000 0.26220  0.42850  0.43820  Biso   1.000  H
  N1       1.0000 0.40069  0.21500  0.84581  Biso   1.000  N
  N2       1.0000 0.09931  0.71500  0.65419  Biso   1.000  N
  N3       1.0000 0.59931  0.78500  0.15419  Biso   1.000  N
  N4       1.0000 0.90069  0.28500  0.34581  Biso   1.000  N
  N5       1.0000 0.31884  0.15990  0.65554  Biso   1.000  N
  N6       1.0000 0.18116  0.65990  0.84446  Biso   1.000  N
  N7       1.0000 0.68116  0.84010  0.34446  Biso   1.000  N
  N8       1.0000 0.81884  0.34010  0.15554  Biso   1.000  N
  C1       1.0000 0.31600  0.22740  0.97058  Biso   1.000  C
  C2       1.0000 0.18400  0.72740  0.52942  Biso   1.000  C
  C3       1.0000 0.68400  0.77260  0.02942  Biso   1.000  C
  C4       1.0000 0.81600  0.27260  0.47058  Biso   1.000  C
  C5       1.0000 0.59514  0.96990  0.88885  Biso   1.000  C
  C6       1.0000 0.90486  0.46990  0.61115  Biso   1.000  C
  C7       1.0000 0.40486  0.03010  0.11115  Biso   1.000  C
  C8       1.0000 0.09514  0.53010  0.38885  Biso   1.000  C
  C9       1.0000 0.23400  0.28250  0.99681  Biso   1.000  C
  C10      1.0000 0.26600  0.78250  0.50319  Biso   1.000  C
  C11      1.0000 0.76600  0.71750  0.00319  Biso   1.000  C
  C12      1.0000 0.73400  0.21750  0.49681  Biso   1.000  C
  C13      1.0000 0.66790  0.92430  0.85396  Biso   1.000  C
  C14      1.0000 0.83210  0.42430  0.64604  Biso   1.000  C
  C15      1.0000 0.33210  0.07570  0.14604  Biso   1.000  C
  C16      1.0000 0.16790  0.57570  0.35396  Biso   1.000  C
  C17      1.0000 0.35852  0.19060  0.78906  Biso   1.000  C
  C18      1.0000 0.14148  0.69060  0.71094  Biso   1.000  C
  C19      1.0000 0.64148  0.80940  0.21094  Biso   1.000  C
  C20      1.0000 0.85852  0.30940  0.28906  Biso   1.000  C
  H17      1.0000 0.33180  0.08540  0.77670  Biso   1.000  H
  H18      1.0000 0.16820  0.58540  0.72330  Biso   1.000  H
  H19      1.0000 0.66820  0.91460  0.22330  Biso   1.000  H
  H20      1.0000 0.83180  0.41460  0.27670  Biso   1.000  H
  C21      1.0000 0.25460  0.38750  0.04489  Biso   1.000  C
  C22      1.0000 0.24540  0.88750  0.45511  Biso   1.000  C
  C23      1.0000 0.74540  0.61250  0.95511  Biso   1.000  C
  C24      1.0000 0.75460  0.11250  0.54489  Biso   1.000  C
  C25      1.0000 0.76970  0.97060  0.87178  Biso   1.000  C
  C26      1.0000 0.73030  0.47060  0.62822  Biso   1.000  C
  C27      1.0000 0.23030  0.02940  0.12822  Biso   1.000  C
  C28      1.0000 0.26970  0.52940  0.37178  Biso   1.000  C
  C29      1.0000 0.35222  0.31200  0.74756  Biso   1.000  C
  C30      1.0000 0.14778  0.81200  0.75244  Biso   1.000  C
  C31      1.0000 0.64778  0.68800  0.25244  Biso   1.000  C
  C32      1.0000 0.85222  0.18800  0.24756  Biso   1.000  C
  C33      1.0000 0.17680  0.43390  0.07073  Biso   1.000  C
  C34      1.0000 0.32320  0.93390  0.42927  Biso   1.000  C
  C35      1.0000 0.82320  0.56610  0.92927  Biso   1.000  C
  C36      1.0000 0.67680  0.06610  0.57073  Biso   1.000  C
  C37      1.0000 0.83680  0.92890  0.83777  Biso   1.000  C
  C38      1.0000 0.66320  0.42890  0.66223  Biso   1.000  C
  C39      1.0000 0.16320  0.07110  0.16223  Biso   1.000  C
  C40      1.0000 0.33680  0.57110  0.33777  Biso   1.000  C
  C41      1.0000 0.39160  0.46410  0.76611  Biso   1.000  C
  C42      1.0000 0.10840  0.96410  0.73389  Biso   1.000  C
  C43      1.0000 0.60840  0.53590  0.23389  Biso   1.000  C
  C44      1.0000 0.89160  0.03590  0.26611  Biso   1.000  C
  H21      1.0000 0.38700  0.55100  0.73900  Biso   1.000  H
  H22      1.0000 0.11300  0.05100  0.76100  Biso   1.000  H
  H23      1.0000 0.61300  0.44900  0.26100  Biso   1.000  H
  H24      1.0000 0.88700  0.94900  0.23900  Biso   1.000  H
  C45      1.0000 0.08120  0.37530  0.04683  Biso   1.000  C
  C46      1.0000 0.41880  0.87530  0.45317  Biso   1.000  C
  C47      1.0000 0.91880  0.62470  0.95317  Biso   1.000  C
  C48      1.0000 0.58120  0.12470  0.54683  Biso   1.000  C
  H25      1.0000 0.02810  0.40660  0.06380  Biso   1.000  H
  H26      1.0000 0.47190  0.90660  0.43620  Biso   1.000  H
  H27      1.0000 0.97190  0.59340  0.93620  Biso   1.000  H
  H28      1.0000 0.52810  0.09340  0.56380  Biso   1.000  H
  C49      1.0000 0.80020  0.84220  0.78743  Biso   1.000  C
  C50      1.0000 0.69980  0.34220  0.71257  Biso   1.000  C
  C51      1.0000 0.19980  0.15780  0.21257  Biso   1.000  C
  C52      1.0000 0.30020  0.65780  0.28743  Biso   1.000  C
  H29      1.0000 0.84520  0.81390  0.76430  Biso   1.000  H
  H30      1.0000 0.65480  0.31390  0.73570  Biso   1.000  H
  H31      1.0000 0.15480  0.18610  0.23570  Biso   1.000  H
  H32      1.0000 0.34520  0.68610  0.26430  Biso   1.000  H
  C53      1.0000 0.43780  0.48950  0.82426  Biso   1.000  C
  C54      1.0000 0.06220  0.98950  0.67574  Biso   1.000  C
  C55      1.0000 0.56220  0.51050  0.17574  Biso   1.000  C
  C56      1.0000 0.93780  0.01050  0.32426  Biso   1.000  C
  H33      1.0000 0.46700  0.59260  0.83750  Biso   1.000  H
  H34      1.0000 0.03300  0.09260  0.66250  Biso   1.000  H
  H35      1.0000 0.53300  0.40740  0.16250  Biso   1.000  H
  H36      1.0000 0.96700  0.90740  0.33750  Biso   1.000  H
  C57      1.0000 0.05910  0.27270  0.99911  Biso   1.000  C
  C58      1.0000 0.44090  0.77270  0.50089  Biso   1.000  C
  C59      1.0000 0.94090  0.72730  0.00089  Biso   1.000  C
  C60      1.0000 0.55910  0.22730  0.49911  Biso   1.000  C
  H37      1.0000 0.99190  0.23470  0.98360  Biso   1.000  H
  H38      1.0000 0.50810  0.73470  0.51640  Biso   1.000  H
  H39      1.0000 0.00810  0.76530  0.01640  Biso   1.000  H
  H40      1.0000 0.49190  0.26530  0.48360  Biso   1.000  H
  C61      1.0000 0.70010  0.79450  0.76926  Biso   1.000  C
  C62      1.0000 0.79990  0.29450  0.73074  Biso   1.000  C
  C63      1.0000 0.29990  0.20550  0.23074  Biso   1.000  C
  C64      1.0000 0.20010  0.70550  0.26926  Biso   1.000  C
  H41      1.0000 0.67680  0.73400  0.73420  Biso   1.000  H
  H42      1.0000 0.82320  0.23400  0.76580  Biso   1.000  H
  H43      1.0000 0.32320  0.26600  0.26580  Biso   1.000  H
  H44      1.0000 0.17680  0.76600  0.23420  Biso   1.000  H
  C65      1.0000 0.44080  0.36180  0.86286  Biso   1.000  C
  C66      1.0000 0.05920  0.86180  0.63714  Biso   1.000  C
  C67      1.0000 0.55920  0.63820  0.13714  Biso   1.000  C
  C68      1.0000 0.94080  0.13820  0.36286  Biso   1.000  C
  H45      1.0000 0.47240  0.37900  0.90290  Biso   1.000  H
  H46      1.0000 0.02760  0.87900  0.59710  Biso   1.000  H
  H47      1.0000 0.52760  0.62100  0.09710  Biso   1.000  H
  H48      1.0000 0.97240  0.12100  0.40290  Biso   1.000  H
  C69      1.0000 0.13540  0.22610  0.97437  Biso   1.000  C
  C70      1.0000 0.36460  0.72610  0.52563  Biso   1.000  C
  C71      1.0000 0.86460  0.77390  0.02563  Biso   1.000  C
  C72      1.0000 0.63540  0.27390  0.47437  Biso   1.000  C
  H49      1.0000 0.12090  0.15480  0.94170  Biso   1.000  H
  H50      1.0000 0.37910  0.65480  0.55830  Biso   1.000  H
  H51      1.0000 0.87910  0.84520  0.05830  Biso   1.000  H
  H52      1.0000 0.62090  0.34520  0.44170  Biso   1.000  H
  C73      1.0000 0.63420  0.83550  0.80241  Biso   1.000  C
  C74      1.0000 0.86580  0.33550  0.69759  Biso   1.000  C
  C75      1.0000 0.36580  0.16450  0.19759  Biso   1.000  C
  C76      1.0000 0.13420  0.66450  0.30241  Biso   1.000  C
  H53      1.0000 0.56520  0.80310  0.79000  Biso   1.000  H
  H54      1.0000 0.93480  0.30310  0.71000  Biso   1.000  H
  H55      1.0000 0.43480  0.19690  0.21000  Biso   1.000  H
  H56      1.0000 0.06520  0.69690  0.29000  Biso   1.000  H
  C77      1.0000 0.29354  0.28530  0.68554  Biso   1.000  C
  C78      1.0000 0.20646  0.78530  0.81446  Biso   1.000  C
  C79      1.0000 0.70646  0.71470  0.31446  Biso   1.000  C
  C80      1.0000 0.79354  0.21470  0.18554  Biso   1.000  C
  C81      1.0000 0.20100  0.54310  0.12344  Biso   1.000  C
  C82      1.0000 0.29900  0.04310  0.37656  Biso   1.000  C
  C83      1.0000 0.79900  0.45690  0.87656  Biso   1.000  C
  C84      1.0000 0.70100  0.95690  0.62344  Biso   1.000  C
  H57      1.0000 0.13840  0.57030  0.13440  Biso   1.000  H
  H58      1.0000 0.36160  0.07030  0.36560  Biso   1.000  H
  H59      1.0000 0.86160  0.42970  0.86560  Biso   1.000  H
  H60      1.0000 0.63840  0.92970  0.63440  Biso   1.000  H
  H61      1.0000 0.23300  0.64390  0.11450  Biso   1.000  H
  H62      1.0000 0.26700  0.14390  0.38550  Biso   1.000  H
  H63      1.0000 0.76700  0.35610  0.88550  Biso   1.000  H
  H64      1.0000 0.73300  0.85610  0.61450  Biso   1.000  H
  H65      1.0000 0.24740  0.48620  0.15580  Biso   1.000  H
  H66      1.0000 0.25260  0.98620  0.34420  Biso   1.000  H
  H67      1.0000 0.75260  0.51380  0.84420  Biso   1.000  H
  H68      1.0000 0.74740  0.01380  0.65580  Biso   1.000  H
  C85      1.0000 0.94600  0.98150  0.85881  Biso   1.000  C
  C86      1.0000 0.55400  0.48150  0.64119  Biso   1.000  C
  C87      1.0000 0.05400  0.01850  0.14119  Biso   1.000  C
  C88      1.0000 0.44600  0.51850  0.35881  Biso   1.000  C
  H69      1.0000 0.98330  0.94660  0.83070  Biso   1.000  H
  H70      1.0000 0.51670  0.44660  0.66930  Biso   1.000  H
  H71      1.0000 0.01670  0.05340  0.16930  Biso   1.000  H
  H72      1.0000 0.48330  0.55340  0.33070  Biso   1.000  H
  H73      1.0000 0.97610  0.93100  0.89670  Biso   1.000  H
  H74      1.0000 0.52390  0.43100  0.60330  Biso   1.000  H
  H75      1.0000 0.02390  0.06900  0.10330  Biso   1.000  H
  H76      1.0000 0.47610  0.56900  0.39670  Biso   1.000  H
  H77      1.0000 0.94940  0.10100  0.86270  Biso   1.000  H
  H78      1.0000 0.55060  0.60100  0.63730  Biso   1.000  H
  H79      1.0000 0.05060  0.89900  0.13730  Biso   1.000  H
  H80      1.0000 0.44940  0.39900  0.36270  Biso   1.000  H
  C89      1.0000 0.41030  0.05920  0.67407  Biso   1.000  C
  C90      1.0000 0.08970  0.55920  0.82593  Biso   1.000  C
  C91      1.0000 0.58970  0.94080  0.32593  Biso   1.000  C
  C92      1.0000 0.91030  0.44080  0.17407  Biso   1.000  C
  H81      1.0000 0.45490  0.10780  0.70960  Biso   1.000  H
  H82      1.0000 0.04510  0.60780  0.79040  Biso   1.000  H
  H83      1.0000 0.54510  0.89220  0.29040  Biso   1.000  H
  H84      1.0000 0.95490  0.39220  0.20960  Biso   1.000  H
  H85      1.0000 0.44730  0.06130  0.64320  Biso   1.000  H
  H86      1.0000 0.05270  0.56130  0.85680  Biso   1.000  H
  H87      1.0000 0.55270  0.93870  0.35680  Biso   1.000  H
  H88      1.0000 0.94730  0.43870  0.14320  Biso   1.000  H
  C93      1.0000 0.25850  0.13330  0.59536  Biso   1.000  C
  C94      1.0000 0.24150  0.63330  0.90464  Biso   1.000  C
  C95      1.0000 0.74150  0.86670  0.40464  Biso   1.000  C
  C96      1.0000 0.75850  0.36670  0.09536  Biso   1.000  C
  H89      1.0000 0.18750  0.16580  0.59230  Biso   1.000  H
  H90      1.0000 0.31250  0.66580  0.90770  Biso   1.000  H
  H91      1.0000 0.81250  0.83420  0.40770  Biso   1.000  H
  H92      1.0000 0.68750  0.33420  0.09230  Biso   1.000  H
  H93      1.0000 0.25890  0.01520  0.58600  Biso   1.000  H
  H94      1.0000 0.24110  0.51520  0.91400  Biso   1.000  H
  H95      1.0000 0.74110  0.98480  0.41400  Biso   1.000  H
  H96      1.0000 0.75890  0.48480  0.08600  Biso   1.000  H
  C97      1.0000 0.38820  0.88210  0.68657  Biso   1.000  C
  C98      1.0000 0.11180  0.38210  0.81343  Biso   1.000  C
  C99      1.0000 0.61180  0.11790  0.31343  Biso   1.000  C
  C100     1.0000 0.88820  0.61790  0.18657  Biso   1.000  C
  H97      1.0000 0.36180  0.87760  0.72120  Biso   1.000  H
  H98      1.0000 0.13820  0.37760  0.77880  Biso   1.000  H
  H99      1.0000 0.63820  0.12240  0.27880  Biso   1.000  H
  H100     1.0000 0.86180  0.62240  0.22120  Biso   1.000  H
  H101     1.0000 0.45070  0.81780  0.69330  Biso   1.000  H
  H102     1.0000 0.04930  0.31780  0.80670  Biso   1.000  H
  H103     1.0000 0.54930  0.18220  0.30670  Biso   1.000  H
  H104     1.0000 0.95070  0.68220  0.19330  Biso   1.000  H
  H105     1.0000 0.33790  0.83690  0.65320  Biso   1.000  H
  H106     1.0000 0.16210  0.33690  0.84680  Biso   1.000  H
  H107     1.0000 0.66210  0.16310  0.34680  Biso   1.000  H
  H108     1.0000 0.83790  0.66310  0.15320  Biso   1.000  H
  C101     1.0000 0.29800  0.22910  0.55140  Biso   1.000  C
  C102     1.0000 0.20200  0.72910  0.94860  Biso   1.000  C
  C103     1.0000 0.70200  0.77090  0.44860  Biso   1.000  C
  C104     1.0000 0.79800  0.27090  0.05140  Biso   1.000  C
  H109     1.0000 0.29740  0.34620  0.56030  Biso   1.000  H
  H110     1.0000 0.20260  0.84620  0.93970  Biso   1.000  H
  H111     1.0000 0.70260  0.65380  0.43970  Biso   1.000  H
  H112     1.0000 0.79740  0.15380  0.06030  Biso   1.000  H
  H113     1.0000 0.25470  0.20880  0.51230  Biso   1.000  H
  H114     1.0000 0.24530  0.70880  0.98770  Biso   1.000  H
  H115     1.0000 0.74530  0.79120  0.48770  Biso   1.000  H
  H116     1.0000 0.75470  0.29120  0.01230  Biso   1.000  H
  H117     1.0000 0.36740  0.19440  0.55310  Biso   1.000  H
  H118     1.0000 0.13260  0.69440  0.94690  Biso   1.000  H
  H119     1.0000 0.63260  0.80560  0.44690  Biso   1.000  H
  H120     1.0000 0.86740  0.30560  0.05310  Biso   1.000  H
