data_image0
_cell_length_a       16.598
_cell_length_b       8.126
_cell_length_c       19.98
_cell_angle_alpha    90
_cell_angle_beta     100.99
_cell_angle_gamma    90

_symmetry_space_group_name_H-M    "P 1"
_symmetry_int_tables_number       1

loop_
  _symmetry_equiv_pos_as_xyz
  'x, y, z'

loop_
  _atom_site_label
  _atom_site_occupancy
  _atom_site_fract_x
  _atom_site_fract_y
  _atom_site_fract_z
  _atom_site_thermal_displace_type
  _atom_site_B_iso_or_equiv
  _atom_site_type_symbol
  Cu1      1.0000 0.91244  0.07001  0.89969  Biso   1.000  Cu
  Cu2      1.0000 0.58756  0.57001  0.60031  Biso   1.000  Cu
  Cu3      1.0000 0.08756  0.92999  0.10031  Biso   1.000  Cu
  Cu4      1.0000 0.41244  0.42999  0.39969  Biso   1.000  Cu
  N1       1.0000 0.84265  0.27030  0.87397  Biso   1.000  N
  N2       1.0000 0.65735  0.77030  0.62603  Biso   1.000  N
  N3       1.0000 0.15735  0.72970  0.12603  Biso   1.000  N
  N4       1.0000 0.34265  0.22970  0.37397  Biso   1.000  N
  N5       1.0000 0.58650  0.23420  0.76411  Biso   1.000  N
  N6       1.0000 0.91350  0.73420  0.73589  Biso   1.000  N
  N7       1.0000 0.41350  0.76580  0.23589  Biso   1.000  N
  N8       1.0000 0.08650  0.26580  0.26411  Biso   1.000  N
  O1       1.0000 0.62818  0.45360  0.71020  Biso   1.000  O
  O2       1.0000 0.87182  0.95360  0.78980  Biso   1.000  O
  O3       1.0000 0.37182  0.54640  0.28980  Biso   1.000  O
  O4       1.0000 0.12818  0.04640  0.21020  Biso   1.000  O
  O5       1.0000 0.98100  0.88310  0.93625  Biso   1.000  O
  O6       1.0000 0.51900  0.38310  0.56375  Biso   1.000  O
  O7       1.0000 0.01900  0.11690  0.06375  Biso   1.000  O
  O8       1.0000 0.48100  0.61690  0.43625  Biso   1.000  O
  H1       1.0000 0.96250  0.83700  0.96720  Biso   1.000  H
  H2       1.0000 0.53750  0.33700  0.53280  Biso   1.000  H
  H3       1.0000 0.03750  0.16300  0.03280  Biso   1.000  H
  H4       1.0000 0.46250  0.66300  0.46720  Biso   1.000  H
  H5       1.0000 0.02880  0.91700  0.94790  Biso   1.000  H
  H6       1.0000 0.47120  0.41700  0.55210  Biso   1.000  H
  H7       1.0000 0.97120  0.08300  0.05210  Biso   1.000  H
  H8       1.0000 0.52880  0.58300  0.44790  Biso   1.000  H
  O9       1.0000 0.81924  0.96630  0.92919  Biso   1.000  O
  O10      1.0000 0.68076  0.46630  0.57081  Biso   1.000  O
  O11      1.0000 0.18076  0.03370  0.07081  Biso   1.000  O
  O12      1.0000 0.31924  0.53370  0.42919  Biso   1.000  O
  O13      1.0000 0.00388  0.17070  0.86707  Biso   1.000  O
  O14      1.0000 0.49612  0.67070  0.63293  Biso   1.000  O
  O15      1.0000 0.99612  0.82930  0.13293  Biso   1.000  O
  O16      1.0000 0.50388  0.32930  0.36707  Biso   1.000  O
  O17      1.0000 0.85614  0.08350  0.03085  Biso   1.000  O
  O18      1.0000 0.64386  0.58350  0.46915  Biso   1.000  O
  O19      1.0000 0.14386  0.91650  0.96915  Biso   1.000  O
  O20      1.0000 0.35614  0.41650  0.53085  Biso   1.000  O
  O21      1.0000 0.05716  0.29740  0.96427  Biso   1.000  O
  O22      1.0000 0.44284  0.79740  0.53573  Biso   1.000  O
  O23      1.0000 0.94284  0.70260  0.03573  Biso   1.000  O
  O24      1.0000 0.55716  0.20260  0.46427  Biso   1.000  O
  O25      1.0000 0.76779  0.04590  0.12291  Biso   1.000  O
  O26      1.0000 0.73221  0.54590  0.37709  Biso   1.000  O
  O27      1.0000 0.23221  0.95410  0.87709  Biso   1.000  O
  O28      1.0000 0.26779  0.45410  0.62291  Biso   1.000  O
  H9       1.0000 0.80910  0.07380  0.10790  Biso   1.000  H
  H10      1.0000 0.69090  0.57380  0.39210  Biso   1.000  H
  H11      1.0000 0.19090  0.92620  0.89210  Biso   1.000  H
  H12      1.0000 0.30910  0.42620  0.60790  Biso   1.000  H
  C1       1.0000 0.80763  0.99860  0.98874  Biso   1.000  C
  C2       1.0000 0.69237  0.49860  0.51126  Biso   1.000  C
  C3       1.0000 0.19237  0.00140  0.01126  Biso   1.000  C
  C4       1.0000 0.30763  0.50140  0.48874  Biso   1.000  C
  C5       1.0000 0.05792  0.26430  0.90424  Biso   1.000  C
  C6       1.0000 0.44208  0.76430  0.59576  Biso   1.000  C
  C7       1.0000 0.94208  0.73570  0.09576  Biso   1.000  C
  C8       1.0000 0.55792  0.23570  0.40424  Biso   1.000  C
  C9       1.0000 0.73132  0.93670  0.00905  Biso   1.000  C
  C10      1.0000 0.76868  0.43670  0.49095  Biso   1.000  C
  C11      1.0000 0.26868  0.06330  0.99095  Biso   1.000  C
  C12      1.0000 0.23132  0.56330  0.50905  Biso   1.000  C
  C13      1.0000 0.77094  0.25100  0.83009  Biso   1.000  C
  C14      1.0000 0.72906  0.75100  0.66991  Biso   1.000  C
  C15      1.0000 0.22906  0.74900  0.16991  Biso   1.000  C
  C16      1.0000 0.27094  0.24900  0.33009  Biso   1.000  C
  H13      1.0000 0.75750  0.14580  0.81170  Biso   1.000  H
  H14      1.0000 0.74250  0.64580  0.68830  Biso   1.000  H
  H15      1.0000 0.24250  0.85420  0.18830  Biso   1.000  H
  H16      1.0000 0.25750  0.35420  0.31170  Biso   1.000  H
  C17      1.0000 0.71540  0.96530  0.07400  Biso   1.000  C
  C18      1.0000 0.78460  0.46530  0.42600  Biso   1.000  C
  C19      1.0000 0.28460  0.03470  0.92600  Biso   1.000  C
  C20      1.0000 0.21540  0.53470  0.57400  Biso   1.000  C
  C21      1.0000 0.71656  0.37730  0.81089  Biso   1.000  C
  C22      1.0000 0.78344  0.87730  0.68911  Biso   1.000  C
  C23      1.0000 0.28344  0.62270  0.18911  Biso   1.000  C
  C24      1.0000 0.21656  0.12270  0.31089  Biso   1.000  C
  C25      1.0000 0.73820  0.53280  0.83723  Biso   1.000  C
  C26      1.0000 0.76180  0.03280  0.66277  Biso   1.000  C
  C27      1.0000 0.26180  0.46720  0.16277  Biso   1.000  C
  C28      1.0000 0.23820  0.96720  0.33723  Biso   1.000  C
  H17      1.0000 0.70370  0.62320  0.82350  Biso   1.000  H
  H18      1.0000 0.79630  0.12320  0.67650  Biso   1.000  H
  H19      1.0000 0.29630  0.37680  0.17650  Biso   1.000  H
  H20      1.0000 0.20370  0.87680  0.32350  Biso   1.000  H
  C29      1.0000 0.81023  0.55410  0.88352  Biso   1.000  C
  C30      1.0000 0.68977  0.05410  0.61648  Biso   1.000  C
  C31      1.0000 0.18977  0.44590  0.11648  Biso   1.000  C
  C32      1.0000 0.31023  0.94590  0.38352  Biso   1.000  C
  H21      1.0000 0.82440  0.65770  0.90330  Biso   1.000  H
  H22      1.0000 0.67560  0.15770  0.59670  Biso   1.000  H
  H23      1.0000 0.17560  0.34230  0.09670  Biso   1.000  H
  H24      1.0000 0.32440  0.84230  0.40330  Biso   1.000  H
  C33      1.0000 0.86128  0.42040  0.90033  Biso   1.000  C
  C34      1.0000 0.63872  0.92040  0.59967  Biso   1.000  C
  C35      1.0000 0.13872  0.57960  0.09967  Biso   1.000  C
  C36      1.0000 0.36128  0.07960  0.40033  Biso   1.000  C
  H25      1.0000 0.91090  0.43510  0.93140  Biso   1.000  H
  H26      1.0000 0.58910  0.93510  0.56860  Biso   1.000  H
  H27      1.0000 0.08910  0.56490  0.06860  Biso   1.000  H
  H28      1.0000 0.41090  0.06490  0.43140  Biso   1.000  H
  C37      1.0000 0.63873  0.35650  0.75784  Biso   1.000  C
  C38      1.0000 0.86127  0.85650  0.74216  Biso   1.000  C
  C39      1.0000 0.36127  0.64350  0.24216  Biso   1.000  C
  C40      1.0000 0.13873  0.14350  0.25784  Biso   1.000  C
  C41      1.0000 0.59290  0.11870  0.82120  Biso   1.000  C
  C42      1.0000 0.90710  0.61870  0.67880  Biso   1.000  C
  C43      1.0000 0.40710  0.88130  0.17880  Biso   1.000  C
  C44      1.0000 0.09290  0.38130  0.32120  Biso   1.000  C
  H29      1.0000 0.54170  0.11660  0.83900  Biso   1.000  H
  H30      1.0000 0.95830  0.61660  0.66100  Biso   1.000  H
  H31      1.0000 0.45830  0.88340  0.16100  Biso   1.000  H
  H32      1.0000 0.04170  0.38340  0.33900  Biso   1.000  H
  H33      1.0000 0.63800  0.14960  0.85820  Biso   1.000  H
  H34      1.0000 0.86200  0.64960  0.64180  Biso   1.000  H
  H35      1.0000 0.36200  0.85040  0.14180  Biso   1.000  H
  H36      1.0000 0.13800  0.35040  0.35820  Biso   1.000  H
  C45      1.0000 0.61030  0.93950  0.78960  Biso   1.000  C
  C46      1.0000 0.88970  0.43950  0.71040  Biso   1.000  C
  C47      1.0000 0.38970  0.06050  0.21040  Biso   1.000  C
  C48      1.0000 0.11030  0.56050  0.28960  Biso   1.000  C
  H37      1.0000 0.61510  0.85650  0.82500  Biso   1.000  H
  H38      1.0000 0.88490  0.35650  0.67500  Biso   1.000  H
  H39      1.0000 0.38490  0.14350  0.17500  Biso   1.000  H
  H40      1.0000 0.11510  0.64350  0.32500  Biso   1.000  H
  H41      1.0000 0.66090  0.94420  0.77210  Biso   1.000  H
  H42      1.0000 0.83910  0.44420  0.72790  Biso   1.000  H
  H43      1.0000 0.33910  0.05580  0.22790  Biso   1.000  H
  H44      1.0000 0.16090  0.55580  0.27210  Biso   1.000  H
  H45      1.0000 0.56520  0.91160  0.75280  Biso   1.000  H
  H46      1.0000 0.93480  0.41160  0.74720  Biso   1.000  H
  H47      1.0000 0.43480  0.08840  0.24720  Biso   1.000  H
  H48      1.0000 0.06520  0.58840  0.25280  Biso   1.000  H
  C49      1.0000 0.67389  0.85100  0.96160  Biso   1.000  C
  C50      1.0000 0.82611  0.35100  0.53840  Biso   1.000  C
  C51      1.0000 0.32611  0.14900  0.03840  Biso   1.000  C
  C52      1.0000 0.17389  0.64900  0.46160  Biso   1.000  C
  H49      1.0000 0.68480  0.82960  0.91800  Biso   1.000  H
  H50      1.0000 0.81520  0.32960  0.58200  Biso   1.000  H
  H51      1.0000 0.31520  0.17040  0.08200  Biso   1.000  H
  H52      1.0000 0.18480  0.67040  0.41800  Biso   1.000  H
  C53      1.0000 0.60030  0.79680  0.97830  Biso   1.000  C
  C54      1.0000 0.89970  0.29680  0.52170  Biso   1.000  C
  C55      1.0000 0.39970  0.20320  0.02170  Biso   1.000  C
  C56      1.0000 0.10030  0.70320  0.47830  Biso   1.000  C
  C57      1.0000 0.64300  0.90930  0.09020  Biso   1.000  C
  C58      1.0000 0.85700  0.40930  0.40980  Biso   1.000  C
  C59      1.0000 0.35700  0.09070  0.90980  Biso   1.000  C
  C60      1.0000 0.14300  0.59070  0.59020  Biso   1.000  C
  H53      1.0000 0.63200  0.92740  0.13400  Biso   1.000  H
  H54      1.0000 0.86800  0.42740  0.36600  Biso   1.000  H
  H55      1.0000 0.36800  0.07260  0.86600  Biso   1.000  H
  H56      1.0000 0.13200  0.57260  0.63400  Biso   1.000  H
  C61      1.0000 0.58760  0.82780  0.04270  Biso   1.000  C
  C62      1.0000 0.91240  0.32780  0.45730  Biso   1.000  C
  C63      1.0000 0.41240  0.17220  0.95730  Biso   1.000  C
  C64      1.0000 0.08760  0.67220  0.54270  Biso   1.000  C
  H57      1.0000 0.53850  0.79140  0.05470  Biso   1.000  H
  H58      1.0000 0.96150  0.29140  0.44530  Biso   1.000  H
  H59      1.0000 0.46150  0.20860  0.94530  Biso   1.000  H
  H60      1.0000 0.03850  0.70860  0.55470  Biso   1.000  H
  C65      1.0000 0.53842  0.70251  0.92462  Biso   1.000  C
  C66      1.0000 0.96158  0.20251  0.57538  Biso   1.000  C
  C67      1.0000 0.46158  0.29749  0.07538  Biso   1.000  C
  C68      1.0000 0.03842  0.79749  0.42462  Biso   1.000  C
  H61      1.0000 0.55950  0.69440  0.88270  Biso   1.000  H
  H62      1.0000 0.94050  0.19440  0.61730  Biso   1.000  H
  H63      1.0000 0.44050  0.30560  0.11730  Biso   1.000  H
  H64      1.0000 0.05950  0.80560  0.38270  Biso   1.000  H
  H65      1.0000 0.48650  0.76080  0.91600  Biso   1.000  H
  H66      1.0000 0.01350  0.26080  0.58400  Biso   1.000  H
  H67      1.0000 0.51350  0.23920  0.08400  Biso   1.000  H
  H68      1.0000 0.98650  0.73920  0.41600  Biso   1.000  H
  H69      1.0000 0.53030  0.59290  0.94140  Biso   1.000  H
  H70      1.0000 0.96970  0.09290  0.55860  Biso   1.000  H
  H71      1.0000 0.46970  0.40710  0.05860  Biso   1.000  H
  H72      1.0000 0.03030  0.90710  0.44140  Biso   1.000  H
  C69      1.0000 0.24466  0.47892  0.86676  Biso   1.000  C
  C70      1.0000 0.25534  0.97892  0.63324  Biso   1.000  C
  C71      1.0000 0.75534  0.52108  0.13324  Biso   1.000  C
  C72      1.0000 0.74466  0.02108  0.36676  Biso   1.000  C
  C73      1.0000 0.24011  0.44870  0.79766  Biso   1.000  C
  C74      1.0000 0.25989  0.94870  0.70234  Biso   1.000  C
  C75      1.0000 0.75989  0.55130  0.20234  Biso   1.000  C
  C76      1.0000 0.74011  0.05130  0.29766  Biso   1.000  C
  H73      1.0000 0.28080  0.49020  0.77530  Biso   1.000  H
  H74      1.0000 0.21920  0.99020  0.72470  Biso   1.000  H
  H75      1.0000 0.71920  0.50980  0.22470  Biso   1.000  H
  H76      1.0000 0.78080  0.00980  0.27530  Biso   1.000  H
  C77      1.0000 0.17541  0.35708  0.76159  Biso   1.000  C
  C78      1.0000 0.32459  0.85708  0.73841  Biso   1.000  C
  C79      1.0000 0.82459  0.64292  0.23841  Biso   1.000  C
  C80      1.0000 0.67541  0.14292  0.26159  Biso   1.000  C
  H77      1.0000 0.17230  0.33660  0.71490  Biso   1.000  H
  H78      1.0000 0.32770  0.83660  0.78510  Biso   1.000  H
  H79      1.0000 0.82770  0.66340  0.28510  Biso   1.000  H
  H80      1.0000 0.67230  0.16340  0.21490  Biso   1.000  H
  C81      1.0000 0.11526  0.29568  0.79460  Biso   1.000  C
  C82      1.0000 0.38474  0.79568  0.70540  Biso   1.000  C
  C83      1.0000 0.88474  0.70432  0.20540  Biso   1.000  C
  C84      1.0000 0.61526  0.20432  0.29460  Biso   1.000  C
  C85      1.0000 0.11981  0.32589  0.86370  Biso   1.000  C
  C86      1.0000 0.38019  0.82589  0.63630  Biso   1.000  C
  C87      1.0000 0.88019  0.67411  0.13630  Biso   1.000  C
  C88      1.0000 0.61981  0.17411  0.36370  Biso   1.000  C
  C89      1.0000 0.18451  0.41751  0.89978  Biso   1.000  C
  C90      1.0000 0.31549  0.91751  0.60022  Biso   1.000  C
  C91      1.0000 0.81549  0.58249  0.10022  Biso   1.000  C
  C92      1.0000 0.68451  0.08249  0.39978  Biso   1.000  C
  H81      1.0000 0.18760  0.43790  0.94650  Biso   1.000  H
  H82      1.0000 0.31240  0.93790  0.55350  Biso   1.000  H
  H83      1.0000 0.81240  0.56210  0.05350  Biso   1.000  H
  H84      1.0000 0.68760  0.06210  0.44650  Biso   1.000  H
  C93      1.0000 0.51200  0.20910  0.71060  Biso   1.000  C
  C94      1.0000 0.98800  0.70910  0.78940  Biso   1.000  C
  C95      1.0000 0.48800  0.79090  0.28940  Biso   1.000  C
  C96      1.0000 0.01200  0.29090  0.21060  Biso   1.000  C
  H85      1.0000 0.52000  0.26370  0.66860  Biso   1.000  H
  H86      1.0000 0.98000  0.76370  0.83140  Biso   1.000  H
  H87      1.0000 0.48000  0.73630  0.33140  Biso   1.000  H
  H88      1.0000 0.02000  0.23630  0.16860  Biso   1.000  H
  H89      1.0000 0.50530  0.09110  0.70100  Biso   1.000  H
  H90      1.0000 0.99470  0.59110  0.79900  Biso   1.000  H
  H91      1.0000 0.49470  0.90890  0.29900  Biso   1.000  H
  H92      1.0000 0.00530  0.40890  0.20100  Biso   1.000  H
  C97      1.0000 0.43640  0.27250  0.72940  Biso   1.000  C
  C98      1.0000 0.06360  0.77250  0.77060  Biso   1.000  C
  C99      1.0000 0.56360  0.72750  0.27060  Biso   1.000  C
  C100     1.0000 0.93640  0.22750  0.22940  Biso   1.000  C
  H93      1.0000 0.38980  0.24620  0.69370  Biso   1.000  H
  H94      1.0000 0.11020  0.74620  0.80630  Biso   1.000  H
  H95      1.0000 0.61020  0.75380  0.30630  Biso   1.000  H
  H96      1.0000 0.88980  0.25380  0.19370  Biso   1.000  H
  H97      1.0000 0.44050  0.39090  0.73510  Biso   1.000  H
  H98      1.0000 0.05950  0.89090  0.76490  Biso   1.000  H
  H99      1.0000 0.55950  0.60910  0.26490  Biso   1.000  H
  H100     1.0000 0.94050  0.10910  0.23510  Biso   1.000  H
  H101     1.0000 0.42890  0.22220  0.77180  Biso   1.000  H
  H102     1.0000 0.07110  0.72220  0.72820  Biso   1.000  H
  H103     1.0000 0.57110  0.77780  0.22820  Biso   1.000  H
  H104     1.0000 0.92890  0.27780  0.27180  Biso   1.000  H
  O29      1.0000 0.05580  0.20200  0.75660  Biso   1.000  O
  O30      1.0000 0.44420  0.70200  0.74340  Biso   1.000  O
  O31      1.0000 0.94420  0.79800  0.24340  Biso   1.000  O
  O32      1.0000 0.55580  0.29800  0.25660  Biso   1.000  O
  H105     1.0000 0.02190  0.17480  0.78010  Biso   1.000  H
  H106     1.0000 0.47810  0.67480  0.71990  Biso   1.000  H
  H107     1.0000 0.97810  0.82520  0.21990  Biso   1.000  H
  H108     1.0000 0.52190  0.32520  0.28010  Biso   1.000  H
  C101     1.0000 0.31650  0.57700  0.90850  Biso   1.000  C
  C102     1.0000 0.18350  0.07700  0.59150  Biso   1.000  C
  C103     1.0000 0.68350  0.42300  0.09150  Biso   1.000  C
  C104     1.0000 0.81650  0.92300  0.40850  Biso   1.000  C
  H109     1.0000 0.30920  0.58590  0.95540  Biso   1.000  H
  H110     1.0000 0.19080  0.08590  0.54460  Biso   1.000  H
  H111     1.0000 0.69080  0.41410  0.04460  Biso   1.000  H
  H112     1.0000 0.80920  0.91410  0.45540  Biso   1.000  H
  H113     1.0000 0.31780  0.68670  0.88930  Biso   1.000  H
  H114     1.0000 0.18220  0.18670  0.61070  Biso   1.000  H
  H115     1.0000 0.68220  0.31330  0.11070  Biso   1.000  H
  H116     1.0000 0.81780  0.81330  0.38930  Biso   1.000  H
  H117     1.0000 0.36780  0.52130  0.90720  Biso   1.000  H
  H118     1.0000 0.13220  0.02130  0.59280  Biso   1.000  H
  H119     1.0000 0.63220  0.47870  0.09280  Biso   1.000  H
  H120     1.0000 0.86780  0.97870  0.40720  Biso   1.000  H
  C105     1.0000 0.12724  0.34465  0.87925  Biso   1.000  C
  C106     1.0000 0.37276  0.84465  0.62075  Biso   1.000  C
  C107     1.0000 0.87276  0.65535  0.12075  Biso   1.000  C
  C108     1.0000 0.62724  0.15535  0.37925  Biso   1.000  C
  C109     1.0000 0.18578  0.43938  0.92133  Biso   1.000  C
  C110     1.0000 0.31422  0.93938  0.57867  Biso   1.000  C
  C111     1.0000 0.81422  0.56062  0.07867  Biso   1.000  C
  C112     1.0000 0.68578  0.06062  0.42133  Biso   1.000  C
  C113     1.0000 0.25197  0.50336  0.89647  Biso   1.000  C
  C114     1.0000 0.24803  0.00336  0.60353  Biso   1.000  C
  C115     1.0000 0.74803  0.49664  0.10353  Biso   1.000  C
  C116     1.0000 0.75197  0.99664  0.39647  Biso   1.000  C
  C117     1.0000 0.25962  0.47261  0.82953  Biso   1.000  C
  C118     1.0000 0.24038  0.97261  0.67047  Biso   1.000  C
  C119     1.0000 0.74038  0.52739  0.17047  Biso   1.000  C
  C120     1.0000 0.75962  0.02739  0.32953  Biso   1.000  C
  C121     1.0000 0.20108  0.37788  0.78745  Biso   1.000  C
  C122     1.0000 0.29892  0.87788  0.71255  Biso   1.000  C
  C123     1.0000 0.79892  0.62212  0.21255  Biso   1.000  C
  C124     1.0000 0.70108  0.12212  0.28745  Biso   1.000  C
  C125     1.0000 0.13489  0.31390  0.81231  Biso   1.000  C
  C126     1.0000 0.36511  0.81390  0.68769  Biso   1.000  C
  C127     1.0000 0.86511  0.68610  0.18769  Biso   1.000  C
  C128     1.0000 0.63489  0.18610  0.31231  Biso   1.000  C
  C129     1.0000 0.31760  0.60200  0.94450  Biso   1.000  C
  C130     1.0000 0.18240  0.10200  0.55550  Biso   1.000  C
  C131     1.0000 0.68240  0.39800  0.05550  Biso   1.000  C
  C132     1.0000 0.81760  0.89800  0.44450  Biso   1.000  C
  C133     1.0000 0.58740  0.24150  0.88520  Biso   1.000  C
  C134     1.0000 0.91260  0.74150  0.61480  Biso   1.000  C
  C135     1.0000 0.41260  0.75850  0.11480  Biso   1.000  C
  C136     1.0000 0.08740  0.25850  0.38520  Biso   1.000  C
  H121     1.0000 0.18060  0.46020  0.96660  Biso   1.000  H
  H122     1.0000 0.31940  0.96020  0.53340  Biso   1.000  H
  H123     1.0000 0.81940  0.53980  0.03340  Biso   1.000  H
  H124     1.0000 0.68060  0.03980  0.46660  Biso   1.000  H
  H125     1.0000 0.30440  0.51590  0.81270  Biso   1.000  H
  H126     1.0000 0.19560  0.01590  0.68730  Biso   1.000  H
  H127     1.0000 0.69560  0.48410  0.18730  Biso   1.000  H
  H128     1.0000 0.80440  0.98410  0.31270  Biso   1.000  H
  H129     1.0000 0.04230  0.19850  0.78240  Biso   1.000  H
  H130     1.0000 0.45770  0.69850  0.71760  Biso   1.000  H
  H131     1.0000 0.95770  0.80150  0.21760  Biso   1.000  H
  H132     1.0000 0.54230  0.30150  0.28240  Biso   1.000  H
  H133     1.0000 0.20630  0.35710  0.74220  Biso   1.000  H
  H134     1.0000 0.29370  0.85710  0.75780  Biso   1.000  H
  H135     1.0000 0.79370  0.64290  0.25780  Biso   1.000  H
  H136     1.0000 0.70630  0.14290  0.24220  Biso   1.000  H
  H137     1.0000 0.35950  0.63770  0.91990  Biso   1.000  H
  H138     1.0000 0.14050  0.13770  0.58010  Biso   1.000  H
  H139     1.0000 0.64050  0.36230  0.08010  Biso   1.000  H
  H140     1.0000 0.85950  0.86230  0.41990  Biso   1.000  H
  H141     1.0000 0.34230  0.53260  0.98250  Biso   1.000  H
  H142     1.0000 0.15770  0.03260  0.51750  Biso   1.000  H
  H143     1.0000 0.65770  0.46740  0.01750  Biso   1.000  H
  H144     1.0000 0.84230  0.96740  0.48250  Biso   1.000  H
  H145     1.0000 0.29250  0.69680  0.96150  Biso   1.000  H
  H146     1.0000 0.20750  0.19680  0.53850  Biso   1.000  H
  H147     1.0000 0.70750  0.30320  0.03850  Biso   1.000  H
  H148     1.0000 0.79250  0.80320  0.46150  Biso   1.000  H
  H149     1.0000 0.64510  0.05900  0.82860  Biso   1.000  H
  H150     1.0000 0.85490  0.55900  0.67140  Biso   1.000  H
  H151     1.0000 0.35490  0.94100  0.17140  Biso   1.000  H
  H152     1.0000 0.14510  0.44100  0.32860  Biso   1.000  H
  H153     1.0000 0.54750  0.03940  0.81380  Biso   1.000  H
  H154     1.0000 0.95250  0.53940  0.68620  Biso   1.000  H
  H155     1.0000 0.45250  0.96060  0.18620  Biso   1.000  H
  H156     1.0000 0.04750  0.46060  0.31380  Biso   1.000  H
  H157     1.0000 0.59020  0.17700  0.92650  Biso   1.000  H
  H158     1.0000 0.90980  0.67700  0.57350  Biso   1.000  H
  H159     1.0000 0.40980  0.82300  0.07350  Biso   1.000  H
  H160     1.0000 0.09020  0.32300  0.42650  Biso   1.000  H
  H161     1.0000 0.53590  0.30140  0.87590  Biso   1.000  H
  H162     1.0000 0.96410  0.80140  0.62410  Biso   1.000  H
  H163     1.0000 0.46410  0.69860  0.12410  Biso   1.000  H
  H164     1.0000 0.03590  0.19860  0.37590  Biso   1.000  H
  H165     1.0000 0.63280  0.31870  0.89120  Biso   1.000  H
  H166     1.0000 0.86720  0.81870  0.60880  Biso   1.000  H
  H167     1.0000 0.36720  0.68130  0.10880  Biso   1.000  H
  H168     1.0000 0.13280  0.18130  0.39120  Biso   1.000  H
  O33      1.0000 0.08050  0.23300  0.76500  Biso   1.000  O
  O34      1.0000 0.41950  0.73300  0.73500  Biso   1.000  O
  O35      1.0000 0.91950  0.76700  0.23500  Biso   1.000  O
  O36      1.0000 0.58050  0.26700  0.26500  Biso   1.000  O
