data_image0
_cell_length_a       16.281
_cell_length_b       8.065
_cell_length_c       19.96
_cell_angle_alpha    90
_cell_angle_beta     99.5
_cell_angle_gamma    90

_symmetry_space_group_name_H-M    "P 1"
_symmetry_int_tables_number       1

loop_
  _symmetry_equiv_pos_as_xyz
  'x, y, z'

loop_
  _atom_site_label
  _atom_site_occupancy
  _atom_site_fract_x
  _atom_site_fract_y
  _atom_site_fract_z
  _atom_site_thermal_displace_type
  _atom_site_B_iso_or_equiv
  _atom_site_type_symbol
  Cu1      1.0000 0.91289  0.06668  0.89939  Biso   1.000  Cu
  Cu2      1.0000 0.58711  0.56668  0.60061  Biso   1.000  Cu
  Cu3      1.0000 0.08711  0.93332  0.10061  Biso   1.000  Cu
  Cu4      1.0000 0.41289  0.43332  0.39939  Biso   1.000  Cu
  N1       1.0000 0.83960  0.26400  0.87290  Biso   1.000  N
  N2       1.0000 0.66040  0.76400  0.62710  Biso   1.000  N
  N3       1.0000 0.16040  0.73600  0.12710  Biso   1.000  N
  N4       1.0000 0.33960  0.23600  0.37290  Biso   1.000  N
  N5       1.0000 0.58410  0.21020  0.75860  Biso   1.000  N
  N6       1.0000 0.91590  0.71020  0.74140  Biso   1.000  N
  N7       1.0000 0.41590  0.78980  0.24140  Biso   1.000  N
  N8       1.0000 0.08410  0.28980  0.25860  Biso   1.000  N
  O1       1.0000 0.62310  0.44810  0.71030  Biso   1.000  O
  O2       1.0000 0.87690  0.94810  0.78970  Biso   1.000  O
  O3       1.0000 0.37690  0.55190  0.28970  Biso   1.000  O
  O4       1.0000 0.12310  0.05190  0.21030  Biso   1.000  O
  O5       1.0000 0.98420  0.88420  0.93690  Biso   1.000  O
  O6       1.0000 0.51580  0.38420  0.56310  Biso   1.000  O
  O7       1.0000 0.01580  0.11580  0.06310  Biso   1.000  O
  O8       1.0000 0.48420  0.61580  0.43690  Biso   1.000  O
  H1       1.0000 0.96570  0.83820  0.96780  Biso   1.000  H
  H2       1.0000 0.53430  0.33820  0.53220  Biso   1.000  H
  H3       1.0000 0.03430  0.16180  0.03220  Biso   1.000  H
  H4       1.0000 0.46570  0.66180  0.46780  Biso   1.000  H
  H5       1.0000 0.03200  0.91810  0.94850  Biso   1.000  H
  H6       1.0000 0.46800  0.41810  0.55150  Biso   1.000  H
  H7       1.0000 0.96800  0.08190  0.05150  Biso   1.000  H
  H8       1.0000 0.53200  0.58190  0.44850  Biso   1.000  H
  O9       1.0000 0.81770  0.95820  0.92920  Biso   1.000  O
  O10      1.0000 0.68230  0.45820  0.57080  Biso   1.000  O
  O11      1.0000 0.18230  0.04180  0.07080  Biso   1.000  O
  O12      1.0000 0.31770  0.54180  0.42920  Biso   1.000  O
  O13      1.0000 0.00660  0.17700  0.86680  Biso   1.000  O
  O14      1.0000 0.49340  0.67700  0.63320  Biso   1.000  O
  O15      1.0000 0.99340  0.82300  0.13320  Biso   1.000  O
  O16      1.0000 0.50660  0.32300  0.36680  Biso   1.000  O
  O17      1.0000 0.85210  0.08170  0.03010  Biso   1.000  O
  O18      1.0000 0.64790  0.58170  0.46990  Biso   1.000  O
  O19      1.0000 0.14790  0.91830  0.96990  Biso   1.000  O
  O20      1.0000 0.35210  0.41830  0.53010  Biso   1.000  O
  O21      1.0000 0.05550  0.30050  0.96500  Biso   1.000  O
  O22      1.0000 0.44450  0.80050  0.53500  Biso   1.000  O
  O23      1.0000 0.94450  0.69950  0.03500  Biso   1.000  O
  O24      1.0000 0.55550  0.19950  0.46500  Biso   1.000  O
  O25      1.0000 0.76330  0.03190  0.12370  Biso   1.000  O
  O26      1.0000 0.73670  0.53190  0.37630  Biso   1.000  O
  O27      1.0000 0.23670  0.96810  0.87630  Biso   1.000  O
  O28      1.0000 0.26330  0.46810  0.62370  Biso   1.000  O
  H9       1.0000 0.80590  0.06070  0.10810  Biso   1.000  H
  H10      1.0000 0.69410  0.56070  0.39190  Biso   1.000  H
  H11      1.0000 0.19410  0.93930  0.89190  Biso   1.000  H
  H12      1.0000 0.30590  0.43930  0.60810  Biso   1.000  H
  C1       1.0000 0.80480  0.99120  0.98890  Biso   1.000  C
  C2       1.0000 0.69520  0.49120  0.51110  Biso   1.000  C
  C3       1.0000 0.19520  0.00880  0.01110  Biso   1.000  C
  C4       1.0000 0.30480  0.50880  0.48890  Biso   1.000  C
  C5       1.0000 0.05950  0.26950  0.90490  Biso   1.000  C
  C6       1.0000 0.44050  0.76950  0.59510  Biso   1.000  C
  C7       1.0000 0.94050  0.73050  0.09510  Biso   1.000  C
  C8       1.0000 0.55950  0.23050  0.40490  Biso   1.000  C
  C9       1.0000 0.72720  0.92530  0.01040  Biso   1.000  C
  C10      1.0000 0.77280  0.42530  0.48960  Biso   1.000  C
  C11      1.0000 0.27280  0.07470  0.98960  Biso   1.000  C
  C12      1.0000 0.22720  0.57470  0.51040  Biso   1.000  C
  C13      1.0000 0.76790  0.23830  0.82900  Biso   1.000  C
  C14      1.0000 0.73210  0.73830  0.67100  Biso   1.000  C
  C15      1.0000 0.23210  0.76170  0.17100  Biso   1.000  C
  C16      1.0000 0.26790  0.26170  0.32900  Biso   1.000  C
  H13      1.0000 0.75500  0.12950  0.81220  Biso   1.000  H
  H14      1.0000 0.74500  0.62950  0.68780  Biso   1.000  H
  H15      1.0000 0.24500  0.87050  0.18780  Biso   1.000  H
  H16      1.0000 0.25500  0.37050  0.31220  Biso   1.000  H
  C17      1.0000 0.71130  0.95600  0.07610  Biso   1.000  C
  C18      1.0000 0.78870  0.45600  0.42390  Biso   1.000  C
  C19      1.0000 0.28870  0.04400  0.92390  Biso   1.000  C
  C20      1.0000 0.21130  0.54400  0.57610  Biso   1.000  C
  C21      1.0000 0.71310  0.36480  0.80800  Biso   1.000  C
  C22      1.0000 0.78690  0.86480  0.69200  Biso   1.000  C
  C23      1.0000 0.28690  0.63520  0.19200  Biso   1.000  C
  C24      1.0000 0.21310  0.13520  0.30800  Biso   1.000  C
  C25      1.0000 0.73070  0.52260  0.83530  Biso   1.000  C
  C26      1.0000 0.76930  0.02260  0.66470  Biso   1.000  C
  C27      1.0000 0.26930  0.47740  0.16470  Biso   1.000  C
  C28      1.0000 0.23070  0.97740  0.33530  Biso   1.000  C
  H17      1.0000 0.69290  0.61120  0.82230  Biso   1.000  H
  H18      1.0000 0.80710  0.11120  0.67770  Biso   1.000  H
  H19      1.0000 0.30710  0.38880  0.17770  Biso   1.000  H
  H20      1.0000 0.19290  0.88880  0.32230  Biso   1.000  H
  C29      1.0000 0.80270  0.55080  0.88100  Biso   1.000  C
  C30      1.0000 0.69730  0.05080  0.61900  Biso   1.000  C
  C31      1.0000 0.19730  0.44920  0.11900  Biso   1.000  C
  C32      1.0000 0.30270  0.94920  0.38100  Biso   1.000  C
  H21      1.0000 0.81600  0.65780  0.89960  Biso   1.000  H
  H22      1.0000 0.68400  0.15780  0.60040  Biso   1.000  H
  H23      1.0000 0.18400  0.34220  0.10040  Biso   1.000  H
  H24      1.0000 0.31600  0.84220  0.39960  Biso   1.000  H
  C33      1.0000 0.85580  0.41300  0.89910  Biso   1.000  C
  C34      1.0000 0.64420  0.91300  0.60090  Biso   1.000  C
  C35      1.0000 0.14420  0.58700  0.10090  Biso   1.000  C
  C36      1.0000 0.35580  0.08700  0.39910  Biso   1.000  C
  H25      1.0000 0.90500  0.42860  0.93130  Biso   1.000  H
  H26      1.0000 0.59500  0.92860  0.56870  Biso   1.000  H
  H27      1.0000 0.09500  0.57140  0.06870  Biso   1.000  H
  H28      1.0000 0.40500  0.07140  0.43130  Biso   1.000  H
  C37      1.0000 0.63490  0.34110  0.75540  Biso   1.000  C
  C38      1.0000 0.86510  0.84110  0.74460  Biso   1.000  C
  C39      1.0000 0.36510  0.65890  0.24460  Biso   1.000  C
  C40      1.0000 0.13490  0.15890  0.25540  Biso   1.000  C
  C41      1.0000 0.58740  0.09450  0.81490  Biso   1.000  C
  C42      1.0000 0.91260  0.59450  0.68510  Biso   1.000  C
  C43      1.0000 0.41260  0.90550  0.18510  Biso   1.000  C
  C44      1.0000 0.08740  0.40550  0.31490  Biso   1.000  C
  H29      1.0000 0.53330  0.09370  0.83140  Biso   1.000  H
  H30      1.0000 0.96670  0.59370  0.66860  Biso   1.000  H
  H31      1.0000 0.46670  0.90630  0.16860  Biso   1.000  H
  H32      1.0000 0.03330  0.40630  0.33140  Biso   1.000  H
  H33      1.0000 0.63100  0.12950  0.85290  Biso   1.000  H
  H34      1.0000 0.86900  0.62950  0.64710  Biso   1.000  H
  H35      1.0000 0.36900  0.87050  0.14710  Biso   1.000  H
  H36      1.0000 0.13100  0.37050  0.35290  Biso   1.000  H
  C45      1.0000 0.60690  0.92100  0.79110  Biso   1.000  C
  C46      1.0000 0.89310  0.42100  0.70890  Biso   1.000  C
  C47      1.0000 0.39310  0.07900  0.20890  Biso   1.000  C
  C48      1.0000 0.10690  0.57900  0.29110  Biso   1.000  C
  H37      1.0000 0.61090  0.84360  0.82920  Biso   1.000  H
  H38      1.0000 0.88910  0.34360  0.67080  Biso   1.000  H
  H39      1.0000 0.38910  0.15640  0.17080  Biso   1.000  H
  H40      1.0000 0.11090  0.65640  0.32920  Biso   1.000  H
  H41      1.0000 0.65990  0.92330  0.77390  Biso   1.000  H
  H42      1.0000 0.84010  0.42330  0.72610  Biso   1.000  H
  H43      1.0000 0.34010  0.07670  0.22610  Biso   1.000  H
  H44      1.0000 0.15990  0.57670  0.27390  Biso   1.000  H
  H45      1.0000 0.56230  0.88550  0.75470  Biso   1.000  H
  H46      1.0000 0.93770  0.38550  0.74530  Biso   1.000  H
  H47      1.0000 0.43770  0.11450  0.24530  Biso   1.000  H
  H48      1.0000 0.06230  0.61450  0.25470  Biso   1.000  H
  C49      1.0000 0.66870  0.84300  0.96370  Biso   1.000  C
  C50      1.0000 0.83130  0.34300  0.53630  Biso   1.000  C
  C51      1.0000 0.33130  0.15700  0.03630  Biso   1.000  C
  C52      1.0000 0.16870  0.65700  0.46370  Biso   1.000  C
  H49      1.0000 0.67850  0.82730  0.91850  Biso   1.000  H
  H50      1.0000 0.82150  0.32730  0.58150  Biso   1.000  H
  H51      1.0000 0.32150  0.17270  0.08150  Biso   1.000  H
  H52      1.0000 0.17850  0.67270  0.41850  Biso   1.000  H
  C53      1.0000 0.59490  0.78200  0.98300  Biso   1.000  C
  C54      1.0000 0.90510  0.28200  0.51700  Biso   1.000  C
  C55      1.0000 0.40510  0.21800  0.01700  Biso   1.000  C
  C56      1.0000 0.09490  0.71800  0.48300  Biso   1.000  C
  C57      1.0000 0.63490  0.89300  0.09290  Biso   1.000  C
  C58      1.0000 0.86510  0.39300  0.40710  Biso   1.000  C
  C59      1.0000 0.36510  0.10700  0.90710  Biso   1.000  C
  C60      1.0000 0.13490  0.60700  0.59290  Biso   1.000  C
  H53      1.0000 0.62310  0.90930  0.13750  Biso   1.000  H
  H54      1.0000 0.87690  0.40930  0.36250  Biso   1.000  H
  H55      1.0000 0.37690  0.09070  0.86250  Biso   1.000  H
  H56      1.0000 0.12310  0.59070  0.63750  Biso   1.000  H
  C61      1.0000 0.58070  0.81400  0.04800  Biso   1.000  C
  C62      1.0000 0.91930  0.31400  0.45200  Biso   1.000  C
  C63      1.0000 0.41930  0.18600  0.95200  Biso   1.000  C
  C64      1.0000 0.08070  0.68600  0.54800  Biso   1.000  C
  H57      1.0000 0.53010  0.77710  0.06090  Biso   1.000  H
  H58      1.0000 0.96990  0.27710  0.43910  Biso   1.000  H
  H59      1.0000 0.46990  0.22290  0.93910  Biso   1.000  H
  H60      1.0000 0.03010  0.72290  0.56090  Biso   1.000  H
  C65      1.0000 0.54190  0.71500  0.92610  Biso   1.000  C
  C66      1.0000 0.95810  0.21500  0.57390  Biso   1.000  C
  C67      1.0000 0.45810  0.28500  0.07390  Biso   1.000  C
  C68      1.0000 0.04190  0.78500  0.42610  Biso   1.000  C
  H61      1.0000 0.57090  0.71460  0.88680  Biso   1.000  H
  H62      1.0000 0.92910  0.21460  0.61320  Biso   1.000  H
  H63      1.0000 0.42910  0.28540  0.11320  Biso   1.000  H
  H64      1.0000 0.07090  0.78540  0.38680  Biso   1.000  H
  H65      1.0000 0.49140  0.78260  0.91590  Biso   1.000  H
  H66      1.0000 0.00860  0.28260  0.58410  Biso   1.000  H
  H67      1.0000 0.50860  0.21740  0.08410  Biso   1.000  H
  H68      1.0000 0.99140  0.71740  0.41590  Biso   1.000  H
  H69      1.0000 0.52680  0.60120  0.93630  Biso   1.000  H
  H70      1.0000 0.97320  0.10120  0.56370  Biso   1.000  H
  H71      1.0000 0.47320  0.39880  0.06370  Biso   1.000  H
  H72      1.0000 0.02680  0.89880  0.43630  Biso   1.000  H
  C69      1.0000 0.24820  0.49140  0.86830  Biso   1.000  C
  C70      1.0000 0.25180  0.99140  0.63170  Biso   1.000  C
  C71      1.0000 0.75180  0.50860  0.13170  Biso   1.000  C
  C72      1.0000 0.74820  0.00860  0.36830  Biso   1.000  C
  C73      1.0000 0.24360  0.46120  0.79920  Biso   1.000  C
  C74      1.0000 0.25640  0.96120  0.70080  Biso   1.000  C
  C75      1.0000 0.75640  0.53880  0.20080  Biso   1.000  C
  C76      1.0000 0.74360  0.03880  0.29920  Biso   1.000  C
  H73      1.0000 0.28570  0.50420  0.77620  Biso   1.000  H
  H74      1.0000 0.21430  0.00420  0.72380  Biso   1.000  H
  H75      1.0000 0.71430  0.49580  0.22380  Biso   1.000  H
  H76      1.0000 0.78570  0.99580  0.27620  Biso   1.000  H
  C77      1.0000 0.17890  0.36960  0.76310  Biso   1.000  C
  C78      1.0000 0.32110  0.86960  0.73690  Biso   1.000  C
  C79      1.0000 0.82110  0.63040  0.23690  Biso   1.000  C
  C80      1.0000 0.67890  0.13040  0.26310  Biso   1.000  C
  H77      1.0000 0.17660  0.34990  0.71590  Biso   1.000  H
  H78      1.0000 0.32340  0.84990  0.78410  Biso   1.000  H
  H79      1.0000 0.82340  0.65010  0.28410  Biso   1.000  H
  H80      1.0000 0.67660  0.15010  0.21590  Biso   1.000  H
  C81      1.0000 0.11880  0.30820  0.79610  Biso   1.000  C
  C82      1.0000 0.38120  0.80820  0.70390  Biso   1.000  C
  C83      1.0000 0.88120  0.69180  0.20390  Biso   1.000  C
  C84      1.0000 0.61880  0.19180  0.29610  Biso   1.000  C
  C85      1.0000 0.12330  0.33840  0.86520  Biso   1.000  C
  C86      1.0000 0.37670  0.83840  0.63480  Biso   1.000  C
  C87      1.0000 0.87670  0.66160  0.13480  Biso   1.000  C
  C88      1.0000 0.62330  0.16160  0.36520  Biso   1.000  C
  C89      1.0000 0.18800  0.43000  0.90130  Biso   1.000  C
  C90      1.0000 0.31200  0.93000  0.59870  Biso   1.000  C
  C91      1.0000 0.81200  0.57000  0.09870  Biso   1.000  C
  C92      1.0000 0.68800  0.07000  0.40130  Biso   1.000  C
  H81      1.0000 0.19030  0.44970  0.94850  Biso   1.000  H
  H82      1.0000 0.30970  0.94970  0.55150  Biso   1.000  H
  H83      1.0000 0.80970  0.55030  0.05150  Biso   1.000  H
  H84      1.0000 0.69030  0.05030  0.44850  Biso   1.000  H
  C93      1.0000 0.51020  0.19300  0.70480  Biso   1.000  C
  C94      1.0000 0.98980  0.69300  0.79520  Biso   1.000  C
  C95      1.0000 0.48980  0.80700  0.29520  Biso   1.000  C
  C96      1.0000 0.01020  0.30700  0.20480  Biso   1.000  C
  H85      1.0000 0.52440  0.23560  0.66160  Biso   1.000  H
  H86      1.0000 0.97560  0.73560  0.83840  Biso   1.000  H
  H87      1.0000 0.47560  0.76440  0.33840  Biso   1.000  H
  H88      1.0000 0.02440  0.26440  0.16160  Biso   1.000  H
  H89      1.0000 0.49710  0.07330  0.69830  Biso   1.000  H
  H90      1.0000 0.00290  0.57330  0.80170  Biso   1.000  H
  H91      1.0000 0.50290  0.92670  0.30170  Biso   1.000  H
  H92      1.0000 0.99710  0.42670  0.19830  Biso   1.000  H
  C97      1.0000 0.43570  0.27900  0.71880  Biso   1.000  C
  C98      1.0000 0.06430  0.77900  0.78120  Biso   1.000  C
  C99      1.0000 0.56430  0.72100  0.28120  Biso   1.000  C
  C100     1.0000 0.93570  0.22100  0.21880  Biso   1.000  C
  H93      1.0000 0.38860  0.25330  0.68300  Biso   1.000  H
  H94      1.0000 0.11140  0.75330  0.81700  Biso   1.000  H
  H95      1.0000 0.61140  0.74670  0.31700  Biso   1.000  H
  H96      1.0000 0.88860  0.24670  0.18300  Biso   1.000  H
  H97      1.0000 0.44570  0.39890  0.71990  Biso   1.000  H
  H98      1.0000 0.05430  0.89890  0.78010  Biso   1.000  H
  H99      1.0000 0.55430  0.60110  0.28010  Biso   1.000  H
  H100     1.0000 0.94570  0.10110  0.21990  Biso   1.000  H
  H101     1.0000 0.42300  0.24270  0.76280  Biso   1.000  H
  H102     1.0000 0.07700  0.74270  0.73720  Biso   1.000  H
  H103     1.0000 0.57700  0.75730  0.23720  Biso   1.000  H
  H104     1.0000 0.92300  0.25730  0.26280  Biso   1.000  H
  O29      1.0000 0.05800  0.22800  0.75510  Biso   1.000  O
  O30      1.0000 0.44200  0.72800  0.74490  Biso   1.000  O
  O31      1.0000 0.94200  0.77200  0.24490  Biso   1.000  O
  O32      1.0000 0.55800  0.27200  0.25510  Biso   1.000  O
  H105     1.0000 0.02170  0.19680  0.77750  Biso   1.000  H
  H106     1.0000 0.47830  0.69680  0.72250  Biso   1.000  H
  H107     1.0000 0.97830  0.80320  0.22250  Biso   1.000  H
  H108     1.0000 0.52170  0.30320  0.27750  Biso   1.000  H
  C101     1.0000 0.31800  0.60000  0.91700  Biso   1.000  C
  C102     1.0000 0.18200  0.10000  0.58300  Biso   1.000  C
  C103     1.0000 0.68200  0.40000  0.08300  Biso   1.000  C
  C104     1.0000 0.81800  0.90000  0.41700  Biso   1.000  C
  H109     1.0000 0.30480  0.60140  0.96330  Biso   1.000  H
  H110     1.0000 0.19520  0.10140  0.53670  Biso   1.000  H
  H111     1.0000 0.69520  0.39860  0.03670  Biso   1.000  H
  H112     1.0000 0.80480  0.89860  0.46330  Biso   1.000  H
  H113     1.0000 0.31730  0.71430  0.89980  Biso   1.000  H
  H114     1.0000 0.18270  0.21430  0.60020  Biso   1.000  H
  H115     1.0000 0.68270  0.28570  0.10020  Biso   1.000  H
  H116     1.0000 0.81730  0.78570  0.39980  Biso   1.000  H
  H117     1.0000 0.37280  0.55150  0.91750  Biso   1.000  H
  H118     1.0000 0.12720  0.05150  0.58250  Biso   1.000  H
  H119     1.0000 0.62720  0.44850  0.08250  Biso   1.000  H
  H120     1.0000 0.87280  0.94850  0.41750  Biso   1.000  H
  C105     1.0000 0.13070  0.35710  0.88080  Biso   1.000  C
  C106     1.0000 0.36930  0.85710  0.61920  Biso   1.000  C
  C107     1.0000 0.86930  0.64290  0.11920  Biso   1.000  C
  C108     1.0000 0.63070  0.14290  0.38080  Biso   1.000  C
  C109     1.0000 0.18930  0.45190  0.92290  Biso   1.000  C
  C110     1.0000 0.31070  0.95190  0.57710  Biso   1.000  C
  C111     1.0000 0.81070  0.54810  0.07710  Biso   1.000  C
  C112     1.0000 0.68930  0.04810  0.42290  Biso   1.000  C
  C113     1.0000 0.25550  0.51590  0.89800  Biso   1.000  C
  C114     1.0000 0.24450  0.01590  0.60200  Biso   1.000  C
  C115     1.0000 0.74450  0.48410  0.10200  Biso   1.000  C
  C116     1.0000 0.75550  0.98410  0.39800  Biso   1.000  C
  C117     1.0000 0.26310  0.48510  0.83110  Biso   1.000  C
  C118     1.0000 0.23690  0.98510  0.66890  Biso   1.000  C
  C119     1.0000 0.73690  0.51490  0.16890  Biso   1.000  C
  C120     1.0000 0.76310  0.01490  0.33110  Biso   1.000  C
  C121     1.0000 0.20460  0.39040  0.78900  Biso   1.000  C
  C122     1.0000 0.29540  0.89040  0.71100  Biso   1.000  C
  C123     1.0000 0.79540  0.60960  0.21100  Biso   1.000  C
  C124     1.0000 0.70460  0.10960  0.28900  Biso   1.000  C
  C125     1.0000 0.13840  0.32640  0.81380  Biso   1.000  C
  C126     1.0000 0.36160  0.82640  0.68620  Biso   1.000  C
  C127     1.0000 0.86160  0.67360  0.18620  Biso   1.000  C
  C128     1.0000 0.63840  0.17360  0.31380  Biso   1.000  C
  C129     1.0000 0.31900  0.62000  0.95500  Biso   1.000  C
  C130     1.0000 0.18100  0.12000  0.54500  Biso   1.000  C
  C131     1.0000 0.68100  0.38000  0.04500  Biso   1.000  C
  C132     1.0000 0.81900  0.88000  0.45500  Biso   1.000  C
  C133     1.0000 0.58100  0.19800  0.87880  Biso   1.000  C
  C134     1.0000 0.91900  0.69800  0.62120  Biso   1.000  C
  C135     1.0000 0.41900  0.80200  0.12120  Biso   1.000  C
  C136     1.0000 0.08100  0.30200  0.37880  Biso   1.000  C
  H121     1.0000 0.18310  0.47180  0.96870  Biso   1.000  H
  H122     1.0000 0.31690  0.97180  0.53130  Biso   1.000  H
  H123     1.0000 0.81690  0.52820  0.03130  Biso   1.000  H
  H124     1.0000 0.68310  0.02820  0.46870  Biso   1.000  H
  H125     1.0000 0.30930  0.52960  0.81350  Biso   1.000  H
  H126     1.0000 0.19070  0.02960  0.68650  Biso   1.000  H
  H127     1.0000 0.69070  0.47040  0.18650  Biso   1.000  H
  H128     1.0000 0.80930  0.97040  0.31350  Biso   1.000  H
  H129     1.0000 0.05640  0.18320  0.78440  Biso   1.000  H
  H130     1.0000 0.44360  0.68320  0.71560  Biso   1.000  H
  H131     1.0000 0.94360  0.81680  0.21560  Biso   1.000  H
  H132     1.0000 0.55640  0.31680  0.28440  Biso   1.000  H
  H133     1.0000 0.21080  0.37050  0.74320  Biso   1.000  H
  H134     1.0000 0.28920  0.87050  0.75680  Biso   1.000  H
  H135     1.0000 0.78920  0.62950  0.25680  Biso   1.000  H
  H136     1.0000 0.71080  0.12950  0.24320  Biso   1.000  H
  H137     1.0000 0.36570  0.66000  0.93420  Biso   1.000  H
  H138     1.0000 0.13430  0.16000  0.56580  Biso   1.000  H
  H139     1.0000 0.63430  0.34000  0.06580  Biso   1.000  H
  H140     1.0000 0.86570  0.84000  0.43420  Biso   1.000  H
  H141     1.0000 0.34070  0.54320  0.99240  Biso   1.000  H
  H142     1.0000 0.15930  0.04320  0.50760  Biso   1.000  H
  H143     1.0000 0.65930  0.45680  0.00760  Biso   1.000  H
  H144     1.0000 0.84070  0.95680  0.49240  Biso   1.000  H
  H145     1.0000 0.28980  0.71030  0.97170  Biso   1.000  H
  H146     1.0000 0.21020  0.21030  0.52830  Biso   1.000  H
  H147     1.0000 0.71020  0.28970  0.02830  Biso   1.000  H
  H148     1.0000 0.78980  0.78970  0.47170  Biso   1.000  H
  H149     1.0000 0.64040  0.03180  0.82130  Biso   1.000  H
  H150     1.0000 0.85960  0.53180  0.67870  Biso   1.000  H
  H151     1.0000 0.35960  0.96820  0.17870  Biso   1.000  H
  H152     1.0000 0.14040  0.46820  0.32130  Biso   1.000  H
  H153     1.0000 0.54060  0.01480  0.80600  Biso   1.000  H
  H154     1.0000 0.95940  0.51480  0.69400  Biso   1.000  H
  H155     1.0000 0.45940  0.98520  0.19400  Biso   1.000  H
  H156     1.0000 0.04060  0.48520  0.30600  Biso   1.000  H
  H157     1.0000 0.58420  0.12490  0.91820  Biso   1.000  H
  H158     1.0000 0.91580  0.62490  0.58180  Biso   1.000  H
  H159     1.0000 0.41580  0.87510  0.08180  Biso   1.000  H
  H160     1.0000 0.08420  0.37510  0.41820  Biso   1.000  H
  H161     1.0000 0.52790  0.25810  0.87220  Biso   1.000  H
  H162     1.0000 0.97210  0.75810  0.62780  Biso   1.000  H
  H163     1.0000 0.47210  0.74190  0.12780  Biso   1.000  H
  H164     1.0000 0.02790  0.24190  0.37220  Biso   1.000  H
  H165     1.0000 0.62700  0.27820  0.88650  Biso   1.000  H
  H166     1.0000 0.87300  0.77820  0.61350  Biso   1.000  H
  H167     1.0000 0.37300  0.72180  0.11350  Biso   1.000  H
  H168     1.0000 0.12700  0.22180  0.38650  Biso   1.000  H
  O33      1.0000 0.09700  0.22400  0.76900  Biso   1.000  O
  O34      1.0000 0.40300  0.72400  0.73100  Biso   1.000  O
  O35      1.0000 0.90300  0.77600  0.23100  Biso   1.000  O
  O36      1.0000 0.59700  0.27600  0.26900  Biso   1.000  O
