data_image0
_cell_length_a       14.297
_cell_length_b       8.155
_cell_length_c       22.388
_cell_angle_alpha    90
_cell_angle_beta     100.37
_cell_angle_gamma    90

_symmetry_space_group_name_H-M    "P 1"
_symmetry_int_tables_number       1

loop_
  _symmetry_equiv_pos_as_xyz
  'x, y, z'

loop_
  _atom_site_label
  _atom_site_occupancy
  _atom_site_fract_x
  _atom_site_fract_y
  _atom_site_fract_z
  _atom_site_thermal_displace_type
  _atom_site_B_iso_or_equiv
  _atom_site_type_symbol
  Cu1      1.0000 0.40020  0.54071  0.40377  Biso   1.000  Cu
  Cu2      1.0000 0.09980  0.04071  0.09623  Biso   1.000  Cu
  Cu3      1.0000 0.59980  0.45929  0.59623  Biso   1.000  Cu
  Cu4      1.0000 0.90020  0.95929  0.90377  Biso   1.000  Cu
  N1       1.0000 0.32077  0.73480  0.37014  Biso   1.000  N
  N2       1.0000 0.17923  0.23480  0.12986  Biso   1.000  N
  N3       1.0000 0.67923  0.26520  0.62986  Biso   1.000  N
  N4       1.0000 0.82077  0.76520  0.87014  Biso   1.000  N
  N5       1.0000 0.06319  0.68860  0.22981  Biso   1.000  N
  N6       1.0000 0.43681  0.18860  0.27019  Biso   1.000  N
  N7       1.0000 0.93681  0.31140  0.77019  Biso   1.000  N
  N8       1.0000 0.56319  0.81140  0.72981  Biso   1.000  N
  O1       1.0000 0.13752  0.89840  0.19059  Biso   1.000  O
  O2       1.0000 0.36248  0.39840  0.30941  Biso   1.000  O
  O3       1.0000 0.86248  0.10160  0.80941  Biso   1.000  O
  O4       1.0000 0.63752  0.60160  0.69059  Biso   1.000  O
  O5       1.0000 0.48149  0.36940  0.44685  Biso   1.000  O
  O6       1.0000 0.01851  0.86940  0.05315  Biso   1.000  O
  O7       1.0000 0.51851  0.63060  0.55315  Biso   1.000  O
  O8       1.0000 0.98149  0.13060  0.94685  Biso   1.000  O
  H1       1.0000 0.53920  0.39320  0.45750  Biso   1.000  H
  H2       1.0000 0.96080  0.89320  0.04250  Biso   1.000  H
  H3       1.0000 0.46080  0.60680  0.54250  Biso   1.000  H
  H4       1.0000 0.03920  0.10680  0.95750  Biso   1.000  H
  H5       1.0000 0.46150  0.31840  0.47460  Biso   1.000  H
  H6       1.0000 0.03850  0.81840  0.02540  Biso   1.000  H
  H7       1.0000 0.53850  0.68160  0.52540  Biso   1.000  H
  H8       1.0000 0.96150  0.18160  0.97460  Biso   1.000  H
  O9       1.0000 0.28835  0.43530  0.42764  Biso   1.000  O
  O10      1.0000 0.21165  0.93530  0.07236  Biso   1.000  O
  O11      1.0000 0.71165  0.56470  0.57236  Biso   1.000  O
  O12      1.0000 0.78835  0.06470  0.92764  Biso   1.000  O
  O13      1.0000 0.50992  0.63550  0.37648  Biso   1.000  O
  O14      1.0000 0.99008  0.13550  0.12352  Biso   1.000  O
  O15      1.0000 0.49008  0.36450  0.62352  Biso   1.000  O
  O16      1.0000 0.00992  0.86450  0.87648  Biso   1.000  O
  O17      1.0000 0.33184  0.58290  0.51208  Biso   1.000  O
  O18      1.0000 0.16816  0.08290  0.98792  Biso   1.000  O
  O19      1.0000 0.66816  0.41710  0.48792  Biso   1.000  O
  O20      1.0000 0.83184  0.91710  0.01208  Biso   1.000  O
  O21      1.0000 0.56019  0.79240  0.45866  Biso   1.000  O
  O22      1.0000 0.93981  0.29240  0.04134  Biso   1.000  O
  O23      1.0000 0.43981  0.20760  0.54134  Biso   1.000  O
  O24      1.0000 0.06019  0.70760  0.95866  Biso   1.000  O
  O25      1.0000 0.95312  0.27160  0.57294  Biso   1.000  O
  O26      1.0000 0.54688  0.77160  0.92706  Biso   1.000  O
  O27      1.0000 0.04688  0.72840  0.42706  Biso   1.000  O
  O28      1.0000 0.45312  0.22840  0.07294  Biso   1.000  O
  O29      1.0000 0.87438  0.93660  0.29622  Biso   1.000  O
  O30      1.0000 0.62562  0.43660  0.20378  Biso   1.000  O
  O31      1.0000 0.12562  0.06340  0.70378  Biso   1.000  O
  O32      1.0000 0.37438  0.56340  0.79622  Biso   1.000  O
  O33      1.0000 0.22330  0.58650  0.59418  Biso   1.000  O
  O34      1.0000 0.27670  0.08650  0.90582  Biso   1.000  O
  O35      1.0000 0.77670  0.41350  0.40582  Biso   1.000  O
  O36      1.0000 0.72330  0.91350  0.09418  Biso   1.000  O
  H9       1.0000 0.27270  0.60710  0.58020  Biso   1.000  H
  H10      1.0000 0.22730  0.10710  0.91980  Biso   1.000  H
  H11      1.0000 0.72730  0.39290  0.41980  Biso   1.000  H
  H12      1.0000 0.77270  0.89290  0.08020  Biso   1.000  H
  O37      1.0000 0.13030  0.27240  0.41381  Biso   1.000  O
  O38      1.0000 0.36970  0.77240  0.08619  Biso   1.000  O
  O39      1.0000 0.86970  0.72760  0.58619  Biso   1.000  O
  O40      1.0000 0.63030  0.22760  0.91381  Biso   1.000  O
  H13      1.0000 0.17840  0.31520  0.40350  Biso   1.000  H
  H14      1.0000 0.32160  0.81520  0.09650  Biso   1.000  H
  H15      1.0000 0.82160  0.68480  0.59650  Biso   1.000  H
  H16      1.0000 0.67840  0.18480  0.90350  Biso   1.000  H
  O41      1.0000 0.70756  0.97390  0.46186  Biso   1.000  O
  O42      1.0000 0.79244  0.47390  0.03814  Biso   1.000  O
  O43      1.0000 0.29244  0.02610  0.53814  Biso   1.000  O
  O44      1.0000 0.20756  0.52610  0.96186  Biso   1.000  O
  H17      1.0000 0.65580  0.94500  0.47140  Biso   1.000  H
  H18      1.0000 0.84420  0.44500  0.02860  Biso   1.000  H
  H19      1.0000 0.34420  0.05500  0.52860  Biso   1.000  H
  H20      1.0000 0.15580  0.55500  0.97140  Biso   1.000  H
  C1       1.0000 0.27576  0.48410  0.48055  Biso   1.000  C
  C2       1.0000 0.22424  0.98410  0.01945  Biso   1.000  C
  C3       1.0000 0.72424  0.51590  0.51945  Biso   1.000  C
  C4       1.0000 0.77576  0.01590  0.98055  Biso   1.000  C
  C5       1.0000 0.56823  0.73630  0.40633  Biso   1.000  C
  C6       1.0000 0.93177  0.23630  0.09367  Biso   1.000  C
  C7       1.0000 0.43177  0.26370  0.59367  Biso   1.000  C
  C8       1.0000 0.06823  0.76370  0.90633  Biso   1.000  C
  C9       1.0000 0.19095  0.42350  0.50354  Biso   1.000  C
  C10      1.0000 0.30905  0.92350  0.99646  Biso   1.000  C
  C11      1.0000 0.80905  0.57650  0.49646  Biso   1.000  C
  C12      1.0000 0.69095  0.07650  0.00354  Biso   1.000  C
  C13      1.0000 0.64836  0.79440  0.37872  Biso   1.000  C
  C14      1.0000 0.85164  0.29440  0.12128  Biso   1.000  C
  C15      1.0000 0.35164  0.20560  0.62128  Biso   1.000  C
  C16      1.0000 0.14836  0.70560  0.87872  Biso   1.000  C
  C17      1.0000 0.25049  0.71130  0.32208  Biso   1.000  C
  C18      1.0000 0.24951  0.21130  0.17792  Biso   1.000  C
  C19      1.0000 0.74951  0.28870  0.67792  Biso   1.000  C
  C20      1.0000 0.75049  0.78870  0.82208  Biso   1.000  C
  H21      1.0000 0.23850  0.60290  0.30710  Biso   1.000  H
  H22      1.0000 0.26150  0.10290  0.19290  Biso   1.000  H
  H23      1.0000 0.76150  0.39710  0.69290  Biso   1.000  H
  H24      1.0000 0.73850  0.89710  0.80710  Biso   1.000  H
  C21      1.0000 0.12466  0.31890  0.46945  Biso   1.000  C
  C22      1.0000 0.37534  0.81890  0.03055  Biso   1.000  C
  C23      1.0000 0.87534  0.68110  0.53055  Biso   1.000  C
  C24      1.0000 0.62466  0.18110  0.96945  Biso   1.000  C
  H25      1.0000 0.13470  0.28340  0.43070  Biso   1.000  H
  H26      1.0000 0.36530  0.78340  0.06930  Biso   1.000  H
  H27      1.0000 0.86530  0.71660  0.56930  Biso   1.000  H
  H28      1.0000 0.63470  0.21660  0.93070  Biso   1.000  H
  C25      1.0000 0.71493  0.90860  0.40780  Biso   1.000  C
  C26      1.0000 0.78507  0.40860  0.09220  Biso   1.000  C
  C27      1.0000 0.28507  0.09140  0.59220  Biso   1.000  C
  C28      1.0000 0.21493  0.59140  0.90780  Biso   1.000  C
  C29      1.0000 0.19492  0.83740  0.29343  Biso   1.000  C
  C30      1.0000 0.30508  0.33740  0.20657  Biso   1.000  C
  C31      1.0000 0.80508  0.16260  0.70657  Biso   1.000  C
  C32      1.0000 0.69492  0.66260  0.79343  Biso   1.000  C
  C33      1.0000 0.04412  0.26510  0.49083  Biso   1.000  C
  C34      1.0000 0.45588  0.76510  0.00917  Biso   1.000  C
  C35      1.0000 0.95588  0.73490  0.50917  Biso   1.000  C
  C36      1.0000 0.54412  0.23490  0.99083  Biso   1.000  C
  H29      1.0000 0.99990  0.19370  0.46700  Biso   1.000  H
  H30      1.0000 0.50010  0.69370  0.03300  Biso   1.000  H
  H31      1.0000 0.00010  0.80630  0.53300  Biso   1.000  H
  H32      1.0000 0.49990  0.30630  0.96700  Biso   1.000  H
  C37      1.0000 0.79107  0.96000  0.38117  Biso   1.000  C
  C38      1.0000 0.70893  0.46000  0.11883  Biso   1.000  C
  C39      1.0000 0.20893  0.04000  0.61883  Biso   1.000  C
  C40      1.0000 0.29107  0.54000  0.88117  Biso   1.000  C
  H33      1.0000 0.83540  0.03770  0.40120  Biso   1.000  H
  H34      1.0000 0.66460  0.53770  0.09880  Biso   1.000  H
  H35      1.0000 0.16460  0.96230  0.59880  Biso   1.000  H
  H36      1.0000 0.33540  0.46230  0.90120  Biso   1.000  H
  C41      1.0000 0.21286  0.99630  0.31615  Biso   1.000  C
  C42      1.0000 0.28714  0.49630  0.18385  Biso   1.000  C
  C43      1.0000 0.78714  0.00370  0.68385  Biso   1.000  C
  C44      1.0000 0.71286  0.50370  0.81615  Biso   1.000  C
  H37      1.0000 0.17730  0.08650  0.29710  Biso   1.000  H
  H38      1.0000 0.32270  0.58650  0.20290  Biso   1.000  H
  H39      1.0000 0.82270  0.91350  0.70290  Biso   1.000  H
  H40      1.0000 0.67730  0.41350  0.79710  Biso   1.000  H
  C45      1.0000 0.02954  0.31770  0.54766  Biso   1.000  C
  C46      1.0000 0.47046  0.81770  0.95234  Biso   1.000  C
  C47      1.0000 0.97046  0.68230  0.45234  Biso   1.000  C
  C48      1.0000 0.52954  0.18230  0.04766  Biso   1.000  C
  C49      1.0000 0.80142  0.89670  0.32547  Biso   1.000  C
  C50      1.0000 0.69858  0.39670  0.17453  Biso   1.000  C
  C51      1.0000 0.19858  0.10330  0.67453  Biso   1.000  C
  C52      1.0000 0.30142  0.60330  0.82547  Biso   1.000  C
  C53      1.0000 0.28348  0.02070  0.36700  Biso   1.000  C
  C54      1.0000 0.21652  0.52070  0.13300  Biso   1.000  C
  C55      1.0000 0.71652  0.97930  0.63300  Biso   1.000  C
  C56      1.0000 0.78348  0.47930  0.86700  Biso   1.000  C
  H41      1.0000 0.29530  0.12690  0.38410  Biso   1.000  H
  H42      1.0000 0.20470  0.62690  0.11590  Biso   1.000  H
  H43      1.0000 0.70470  0.87310  0.61590  Biso   1.000  H
  H44      1.0000 0.79530  0.37310  0.88410  Biso   1.000  H
  C57      1.0000 0.09470  0.42100  0.58255  Biso   1.000  C
  C58      1.0000 0.40530  0.92100  0.91745  Biso   1.000  C
  C59      1.0000 0.90530  0.57900  0.41745  Biso   1.000  C
  C60      1.0000 0.59470  0.07900  0.08255  Biso   1.000  C
  H45      1.0000 0.08470  0.45560  0.62140  Biso   1.000  H
  H46      1.0000 0.41530  0.95560  0.87860  Biso   1.000  H
  H47      1.0000 0.91530  0.54440  0.37860  Biso   1.000  H
  H48      1.0000 0.58470  0.04440  0.12140  Biso   1.000  H
  C61      1.0000 0.73640  0.78370  0.29526  Biso   1.000  C
  C62      1.0000 0.76360  0.28370  0.20474  Biso   1.000  C
  C63      1.0000 0.26360  0.21630  0.70474  Biso   1.000  C
  C64      1.0000 0.23640  0.71630  0.79526  Biso   1.000  C
  H49      1.0000 0.74390  0.74160  0.25680  Biso   1.000  H
  H50      1.0000 0.75610  0.24160  0.24320  Biso   1.000  H
  H51      1.0000 0.25610  0.25840  0.74320  Biso   1.000  H
  H52      1.0000 0.24390  0.75840  0.75680  Biso   1.000  H
  C65      1.0000 0.33611  0.88730  0.39214  Biso   1.000  C
  C66      1.0000 0.16389  0.38730  0.10786  Biso   1.000  C
  C67      1.0000 0.66389  0.11270  0.60786  Biso   1.000  C
  C68      1.0000 0.83611  0.61270  0.89214  Biso   1.000  C
  H53      1.0000 0.38510  0.90450  0.42630  Biso   1.000  H
  H54      1.0000 0.11490  0.40450  0.07370  Biso   1.000  H
  H55      1.0000 0.61490  0.09550  0.57370  Biso   1.000  H
  H56      1.0000 0.88510  0.59550  0.92630  Biso   1.000  H
  C69      1.0000 0.17382  0.47340  0.56091  Biso   1.000  C
  C70      1.0000 0.32618  0.97340  0.93909  Biso   1.000  C
  C71      1.0000 0.82618  0.52660  0.43909  Biso   1.000  C
  C72      1.0000 0.67382  0.02660  0.06091  Biso   1.000  C
  H57      1.0000 0.21780  0.54460  0.58510  Biso   1.000  H
  H58      1.0000 0.28220  0.04460  0.91490  Biso   1.000  H
  H59      1.0000 0.78220  0.45540  0.41490  Biso   1.000  H
  H60      1.0000 0.71780  0.95540  0.08510  Biso   1.000  H
  C73      1.0000 0.66130  0.73370  0.32153  Biso   1.000  C
  C74      1.0000 0.83870  0.23370  0.17847  Biso   1.000  C
  C75      1.0000 0.33870  0.26630  0.67847  Biso   1.000  C
  C76      1.0000 0.16130  0.76630  0.82153  Biso   1.000  C
  H61      1.0000 0.61710  0.65660  0.30090  Biso   1.000  H
  H62      1.0000 0.88290  0.15660  0.19910  Biso   1.000  H
  H63      1.0000 0.38290  0.34340  0.69910  Biso   1.000  H
  H64      1.0000 0.11710  0.84340  0.80090  Biso   1.000  H
  C77      1.0000 0.12717  0.81030  0.23413  Biso   1.000  C
  C78      1.0000 0.37283  0.31030  0.26587  Biso   1.000  C
  C79      1.0000 0.87283  0.18970  0.76587  Biso   1.000  C
  C80      1.0000 0.62717  0.68970  0.73413  Biso   1.000  C
  C81      1.0000 0.88062  0.17420  0.53670  Biso   1.000  C
  C82      1.0000 0.61938  0.67420  0.96330  Biso   1.000  C
  C83      1.0000 0.11938  0.82580  0.46330  Biso   1.000  C
  C84      1.0000 0.38062  0.32580  0.03670  Biso   1.000  C
  H65      1.0000 0.85590  0.23230  0.49880  Biso   1.000  H
  H66      1.0000 0.64410  0.73230  0.00120  Biso   1.000  H
  H67      1.0000 0.14410  0.76770  0.50120  Biso   1.000  H
  H68      1.0000 0.35590  0.26770  0.99880  Biso   1.000  H
  H69      1.0000 0.82880  0.15500  0.55920  Biso   1.000  H
  H70      1.0000 0.67120  0.65500  0.94080  Biso   1.000  H
  H71      1.0000 0.17120  0.84500  0.44080  Biso   1.000  H
  H72      1.0000 0.32880  0.34500  0.05920  Biso   1.000  H
  H73      1.0000 0.90770  0.06890  0.52730  Biso   1.000  H
  H74      1.0000 0.59230  0.56890  0.97270  Biso   1.000  H
  H75      1.0000 0.09230  0.93110  0.47270  Biso   1.000  H
  H76      1.0000 0.40770  0.43110  0.02730  Biso   1.000  H
  C85      1.0000 0.94644  0.04490  0.32659  Biso   1.000  C
  C86      1.0000 0.55356  0.54490  0.17341  Biso   1.000  C
  C87      1.0000 0.05356  0.95510  0.67341  Biso   1.000  C
  C88      1.0000 0.44644  0.45510  0.82659  Biso   1.000  C
  H77      1.0000 0.91740  0.14910  0.33520  Biso   1.000  H
  H78      1.0000 0.58260  0.64910  0.16480  Biso   1.000  H
  H79      1.0000 0.08260  0.85090  0.66480  Biso   1.000  H
  H80      1.0000 0.41740  0.35090  0.83520  Biso   1.000  H
  H81      1.0000 0.99360  0.06480  0.30060  Biso   1.000  H
  H82      1.0000 0.50640  0.56480  0.19940  Biso   1.000  H
  H83      1.0000 0.00640  0.93520  0.69940  Biso   1.000  H
  H84      1.0000 0.49360  0.43520  0.80060  Biso   1.000  H
  H85      1.0000 0.97770  0.99470  0.36480  Biso   1.000  H
  H86      1.0000 0.52230  0.49470  0.13520  Biso   1.000  H
  H87      1.0000 0.02230  0.00530  0.63520  Biso   1.000  H
  H88      1.0000 0.47770  0.50530  0.86480  Biso   1.000  H
  C89      1.0000 0.03960  0.59640  0.28150  Biso   1.000  C
  C90      1.0000 0.46040  0.09640  0.21850  Biso   1.000  C
  C91      1.0000 0.96040  0.40360  0.71850  Biso   1.000  C
  C92      1.0000 0.53960  0.90360  0.78150  Biso   1.000  C
  H89      1.0000 0.97020  0.60340  0.28060  Biso   1.000  H
  H90      1.0000 0.52980  0.10340  0.21940  Biso   1.000  H
  H91      1.0000 0.02980  0.39660  0.71940  Biso   1.000  H
  H92      1.0000 0.47020  0.89660  0.78060  Biso   1.000  H
  H93      1.0000 0.07210  0.64750  0.31970  Biso   1.000  H
  H94      1.0000 0.42790  0.14750  0.18030  Biso   1.000  H
  H95      1.0000 0.92790  0.35250  0.68030  Biso   1.000  H
  H96      1.0000 0.57210  0.85250  0.81970  Biso   1.000  H
  C93      1.0000 0.00186  0.65550  0.17048  Biso   1.000  C
  C94      1.0000 0.49814  0.15550  0.32952  Biso   1.000  C
  C95      1.0000 0.99814  0.34450  0.82952  Biso   1.000  C
  C96      1.0000 0.50186  0.84450  0.67048  Biso   1.000  C
  H97      1.0000 0.98780  0.53670  0.16710  Biso   1.000  H
  H98      1.0000 0.51220  0.03670  0.33290  Biso   1.000  H
  H99      1.0000 0.01220  0.46330  0.83290  Biso   1.000  H
  H100     1.0000 0.48780  0.96330  0.66710  Biso   1.000  H
  H101     1.0000 0.03670  0.68520  0.13760  Biso   1.000  H
  H102     1.0000 0.46330  0.18520  0.36240  Biso   1.000  H
  H103     1.0000 0.96330  0.31480  0.86240  Biso   1.000  H
  H104     1.0000 0.53670  0.81480  0.63760  Biso   1.000  H
  C97      1.0000 0.06840  0.41640  0.28101  Biso   1.000  C
  C98      1.0000 0.43160  0.91640  0.21899  Biso   1.000  C
  C99      1.0000 0.93160  0.58360  0.71899  Biso   1.000  C
  C100     1.0000 0.56840  0.08360  0.78101  Biso   1.000  C
  H105     1.0000 0.03570  0.36460  0.24350  Biso   1.000  H
  H106     1.0000 0.46430  0.86460  0.25650  Biso   1.000  H
  H107     1.0000 0.96430  0.63540  0.75650  Biso   1.000  H
  H108     1.0000 0.53570  0.13540  0.74350  Biso   1.000  H
  H109     1.0000 0.05070  0.36040  0.31610  Biso   1.000  H
  H110     1.0000 0.44930  0.86040  0.18390  Biso   1.000  H
  H111     1.0000 0.94930  0.63960  0.68390  Biso   1.000  H
  H112     1.0000 0.55070  0.13960  0.81610  Biso   1.000  H
  H113     1.0000 0.13730  0.40850  0.28310  Biso   1.000  H
  H114     1.0000 0.36270  0.90850  0.21690  Biso   1.000  H
  H115     1.0000 0.86270  0.59150  0.71690  Biso   1.000  H
  H116     1.0000 0.63730  0.09150  0.78310  Biso   1.000  H
  C101     1.0000 0.90889  0.75020  0.16182  Biso   1.000  C
  C102     1.0000 0.59111  0.25020  0.33818  Biso   1.000  C
  C103     1.0000 0.09111  0.24980  0.83818  Biso   1.000  C
  C104     1.0000 0.40889  0.74980  0.66182  Biso   1.000  C
  H117     1.0000 0.87130  0.71370  0.19190  Biso   1.000  H
  H118     1.0000 0.62870  0.21370  0.30810  Biso   1.000  H
  H119     1.0000 0.12870  0.28630  0.80810  Biso   1.000  H
  H120     1.0000 0.37130  0.78630  0.69190  Biso   1.000  H
  H121     1.0000 0.87310  0.73040  0.12090  Biso   1.000  H
  H122     1.0000 0.62690  0.23040  0.37910  Biso   1.000  H
  H123     1.0000 0.12690  0.26960  0.87910  Biso   1.000  H
  H124     1.0000 0.37310  0.76960  0.62090  Biso   1.000  H
  H125     1.0000 0.92230  0.86770  0.16720  Biso   1.000  H
  H126     1.0000 0.57770  0.36770  0.33280  Biso   1.000  H
  H127     1.0000 0.07770  0.13230  0.83280  Biso   1.000  H
  H128     1.0000 0.42230  0.63230  0.66720  Biso   1.000  H
  H129     1.0000 0.70800  0.95160  0.44620  Biso   1.000  H
  H130     1.0000 0.79200  0.45160  0.05380  Biso   1.000  H
  H131     1.0000 0.29200  0.04840  0.55380  Biso   1.000  H
  H132     1.0000 0.20800  0.54840  0.94620  Biso   1.000  H
  H133     1.0000 0.59870  0.57460  0.27400  Biso   1.000  H
  H134     1.0000 0.90130  0.07460  0.22600  Biso   1.000  H
  H135     1.0000 0.40130  0.42540  0.72600  Biso   1.000  H
  H136     1.0000 0.09870  0.92540  0.77400  Biso   1.000  H
  O45      1.0000 0.58400  0.66600  0.28720  Biso   1.000  O
  O46      1.0000 0.91600  0.16600  0.21280  Biso   1.000  O
  O47      1.0000 0.41600  0.33400  0.71280  Biso   1.000  O
  O48      1.0000 0.08400  0.83400  0.78720  Biso   1.000  O
