data_image0
_cell_length_a       15.708
_cell_length_b       8.065
_cell_length_c       22.541
_cell_angle_alpha    90
_cell_angle_beta     105.86
_cell_angle_gamma    90

_symmetry_space_group_name_H-M    "P 1"
_symmetry_int_tables_number       1

loop_
  _symmetry_equiv_pos_as_xyz
  'x, y, z'

loop_
  _atom_site_label
  _atom_site_occupancy
  _atom_site_fract_x
  _atom_site_fract_y
  _atom_site_fract_z
  _atom_site_thermal_displace_type
  _atom_site_B_iso_or_equiv
  _atom_site_type_symbol
  Cu1      1.0000 0.08753  0.10676  0.10115  Biso   1.000  Cu
  Cu2      1.0000 0.41247  0.60676  0.39885  Biso   1.000  Cu
  Cu3      1.0000 0.91247  0.89324  0.89885  Biso   1.000  Cu
  Cu4      1.0000 0.58753  0.39324  0.60115  Biso   1.000  Cu
  Cl1      1.0000 0.47944  0.62948  0.12182  Biso   1.000  Cl
  Cl2      1.0000 0.02056  0.12948  0.37818  Biso   1.000  Cl
  Cl3      1.0000 0.52056  0.37052  0.87818  Biso   1.000  Cl
  Cl4      1.0000 0.97944  0.87052  0.62182  Biso   1.000  Cl
  Cl5      1.0000 0.39216  0.84660  0.88661  Biso   1.000  Cl
  Cl6      1.0000 0.10784  0.34660  0.61339  Biso   1.000  Cl
  Cl7      1.0000 0.60784  0.15340  0.11339  Biso   1.000  Cl
  Cl8      1.0000 0.89216  0.65340  0.38661  Biso   1.000  Cl
  Cl9      1.0000 0.78079  0.53053  0.22921  Biso   1.000  Cl
  Cl10     1.0000 0.71921  0.03053  0.27079  Biso   1.000  Cl
  Cl11     1.0000 0.21921  0.46947  0.77079  Biso   1.000  Cl
  Cl12     1.0000 0.28079  0.96947  0.72921  Biso   1.000  Cl
  Cl13     1.0000 0.65224  0.67615  0.98691  Biso   1.000  Cl
  Cl14     1.0000 0.84776  0.17615  0.51309  Biso   1.000  Cl
  Cl15     1.0000 0.34776  0.32385  0.01309  Biso   1.000  Cl
  Cl16     1.0000 0.15224  0.82385  0.48691  Biso   1.000  Cl
  N1       1.0000 0.15780  0.31140  0.13301  Biso   1.000  N
  N2       1.0000 0.34220  0.81140  0.36699  Biso   1.000  N
  N3       1.0000 0.84220  0.68860  0.86699  Biso   1.000  N
  N4       1.0000 0.65780  0.18860  0.63301  Biso   1.000  N
  N5       1.0000 0.43720  0.31540  0.24825  Biso   1.000  N
  N6       1.0000 0.06280  0.81540  0.25175  Biso   1.000  N
  N7       1.0000 0.56280  0.68460  0.75175  Biso   1.000  N
  N8       1.0000 0.93720  0.18460  0.74825  Biso   1.000  N
  O1       1.0000 0.37906  0.51000  0.29839  Biso   1.000  O
  O2       1.0000 0.12094  0.01000  0.20161  Biso   1.000  O
  O3       1.0000 0.62094  0.49000  0.70161  Biso   1.000  O
  O4       1.0000 0.87906  0.99000  0.79839  Biso   1.000  O
  O5       1.0000 0.01838  0.91080  0.06532  Biso   1.000  O
  O6       1.0000 0.48162  0.41080  0.43468  Biso   1.000  O
  O7       1.0000 0.98162  0.08920  0.93468  Biso   1.000  O
  O8       1.0000 0.51838  0.58920  0.56532  Biso   1.000  O
  H1       1.0000 0.03820  0.85190  0.04140  Biso   1.000  H
  H2       1.0000 0.46180  0.35190  0.45860  Biso   1.000  H
  H3       1.0000 0.96180  0.14810  0.95860  Biso   1.000  H
  H4       1.0000 0.53820  0.64810  0.54140  Biso   1.000  H
  H5       1.0000 0.96450  0.92700  0.04790  Biso   1.000  H
  H6       1.0000 0.53550  0.42700  0.45210  Biso   1.000  H
  H7       1.0000 0.03550  0.07300  0.95210  Biso   1.000  H
  H8       1.0000 0.46450  0.57300  0.54790  Biso   1.000  H
  O9       1.0000 0.97960  0.21580  0.10918  Biso   1.000  O
  O10      1.0000 0.52040  0.71580  0.39082  Biso   1.000  O
  O11      1.0000 0.02040  0.78420  0.89082  Biso   1.000  O
  O12      1.0000 0.47960  0.28420  0.60918  Biso   1.000  O
  O13      1.0000 0.19271  0.99640  0.08892  Biso   1.000  O
  O14      1.0000 0.30729  0.49640  0.41108  Biso   1.000  O
  O15      1.0000 0.80729  0.00360  0.91108  Biso   1.000  O
  O16      1.0000 0.69271  0.50360  0.58892  Biso   1.000  O
  O17      1.0000 0.93105  0.29460  0.01026  Biso   1.000  O
  O18      1.0000 0.56895  0.79460  0.48974  Biso   1.000  O
  O19      1.0000 0.06895  0.70540  0.98974  Biso   1.000  O
  O20      1.0000 0.43105  0.20540  0.51026  Biso   1.000  O
  O21      1.0000 0.15336  0.08530  0.99138  Biso   1.000  O
  O22      1.0000 0.34664  0.58530  0.50862  Biso   1.000  O
  O23      1.0000 0.84664  0.91470  0.00862  Biso   1.000  O
  O24      1.0000 0.65336  0.41470  0.49138  Biso   1.000  O
  O25      1.0000 0.90680  0.33690  0.18806  Biso   1.000  O
  O26      1.0000 0.59320  0.83690  0.31194  Biso   1.000  O
  O27      1.0000 0.09320  0.66310  0.81194  Biso   1.000  O
  O28      1.0000 0.40680  0.16310  0.68806  Biso   1.000  O
  H9       1.0000 0.94410  0.28320  0.17540  Biso   1.000  H
  H10      1.0000 0.55590  0.78320  0.32460  Biso   1.000  H
  H11      1.0000 0.05590  0.71680  0.82460  Biso   1.000  H
  H12      1.0000 0.44410  0.21680  0.67540  Biso   1.000  H
  O29      1.0000 0.24660  0.00510  0.91846  Biso   1.000  O
  O30      1.0000 0.25340  0.50510  0.58154  Biso   1.000  O
  O31      1.0000 0.75340  0.99490  0.08154  Biso   1.000  O
  O32      1.0000 0.74660  0.49490  0.41846  Biso   1.000  O
  H13      1.0000 0.20500  0.05080  0.92900  Biso   1.000  H
  H14      1.0000 0.29500  0.55080  0.57100  Biso   1.000  H
  H15      1.0000 0.79500  0.94920  0.07100  Biso   1.000  H
  H16      1.0000 0.70500  0.44920  0.42900  Biso   1.000  H
  C1       1.0000 0.37140  0.83660  0.95810  Biso   1.000  C
  C2       1.0000 0.12860  0.33660  0.54190  Biso   1.000  C
  C3       1.0000 0.62860  0.16340  0.04190  Biso   1.000  C
  C4       1.0000 0.87140  0.66340  0.45810  Biso   1.000  C
  C5       1.0000 0.92620  0.29480  0.06453  Biso   1.000  C
  C6       1.0000 0.57380  0.79480  0.43547  Biso   1.000  C
  C7       1.0000 0.07380  0.70520  0.93547  Biso   1.000  C
  C8       1.0000 0.42620  0.20520  0.56453  Biso   1.000  C
  C9       1.0000 0.20350  0.00470  0.03510  Biso   1.000  C
  C10      1.0000 0.29650  0.50470  0.46490  Biso   1.000  C
  C11      1.0000 0.79650  0.99530  0.96490  Biso   1.000  C
  C12      1.0000 0.70350  0.49530  0.53510  Biso   1.000  C
  C13      1.0000 0.85590  0.39560  0.08055  Biso   1.000  C
  C14      1.0000 0.64410  0.89560  0.41945  Biso   1.000  C
  C15      1.0000 0.14410  0.60440  0.91945  Biso   1.000  C
  C16      1.0000 0.35590  0.10440  0.58055  Biso   1.000  C
  C17      1.0000 0.28080  0.91310  0.02424  Biso   1.000  C
  C18      1.0000 0.21920  0.41310  0.47576  Biso   1.000  C
  C19      1.0000 0.71920  0.08690  0.97576  Biso   1.000  C
  C20      1.0000 0.78080  0.58690  0.52424  Biso   1.000  C
  C21      1.0000 0.23730  0.29450  0.17529  Biso   1.000  C
  C22      1.0000 0.26270  0.79450  0.32471  Biso   1.000  C
  C23      1.0000 0.76270  0.70550  0.82471  Biso   1.000  C
  C24      1.0000 0.73730  0.20550  0.67529  Biso   1.000  C
  H17      1.0000 0.25940  0.18620  0.18700  Biso   1.000  H
  H18      1.0000 0.24060  0.68620  0.31300  Biso   1.000  H
  H19      1.0000 0.74060  0.81380  0.81300  Biso   1.000  H
  H20      1.0000 0.75940  0.31380  0.68700  Biso   1.000  H
  C25      1.0000 0.85090  0.40950  0.14133  Biso   1.000  C
  C26      1.0000 0.64910  0.90950  0.35867  Biso   1.000  C
  C27      1.0000 0.14910  0.59050  0.85867  Biso   1.000  C
  C28      1.0000 0.35090  0.09050  0.64133  Biso   1.000  C
  C29      1.0000 0.29740  0.92210  0.96610  Biso   1.000  C
  C30      1.0000 0.20260  0.42210  0.53390  Biso   1.000  C
  C31      1.0000 0.70260  0.07790  0.03390  Biso   1.000  C
  C32      1.0000 0.79740  0.57790  0.46610  Biso   1.000  C
  C33      1.0000 0.28740  0.43030  0.20195  Biso   1.000  C
  C34      1.0000 0.21260  0.93030  0.29805  Biso   1.000  C
  C35      1.0000 0.71260  0.56970  0.79805  Biso   1.000  C
  C36      1.0000 0.78740  0.06970  0.70195  Biso   1.000  C
  C37      1.0000 0.78430  0.50950  0.15340  Biso   1.000  C
  C38      1.0000 0.71570  0.00950  0.34660  Biso   1.000  C
  C39      1.0000 0.21570  0.49050  0.84660  Biso   1.000  C
  C40      1.0000 0.28430  0.99050  0.65340  Biso   1.000  C
  C41      1.0000 0.25530  0.58930  0.18514  Biso   1.000  C
  C42      1.0000 0.24470  0.08930  0.31486  Biso   1.000  C
  C43      1.0000 0.74470  0.41070  0.81486  Biso   1.000  C
  C44      1.0000 0.75530  0.91070  0.68514  Biso   1.000  C
  H21      1.0000 0.28780  0.68370  0.20400  Biso   1.000  H
  H22      1.0000 0.21220  0.18370  0.29600  Biso   1.000  H
  H23      1.0000 0.71220  0.31630  0.79600  Biso   1.000  H
  H24      1.0000 0.78780  0.81630  0.70400  Biso   1.000  H
  C45      1.0000 0.72390  0.59260  0.10680  Biso   1.000  C
  C46      1.0000 0.77610  0.09260  0.39320  Biso   1.000  C
  C47      1.0000 0.27610  0.40740  0.89320  Biso   1.000  C
  C48      1.0000 0.22390  0.90740  0.60680  Biso   1.000  C
  H25      1.0000 0.67940  0.65970  0.11580  Biso   1.000  H
  H26      1.0000 0.82060  0.15970  0.38420  Biso   1.000  H
  H27      1.0000 0.32060  0.34030  0.88420  Biso   1.000  H
  H28      1.0000 0.17940  0.84030  0.61580  Biso   1.000  H
  C49      1.0000 0.42650  0.74750  0.00470  Biso   1.000  C
  C50      1.0000 0.07350  0.24750  0.49530  Biso   1.000  C
  C51      1.0000 0.57350  0.25250  0.99530  Biso   1.000  C
  C52      1.0000 0.92650  0.75250  0.50470  Biso   1.000  C
  H29      1.0000 0.47650  0.69160  0.99830  Biso   1.000  H
  H30      1.0000 0.02350  0.19160  0.50170  Biso   1.000  H
  H31      1.0000 0.52350  0.30840  0.00170  Biso   1.000  H
  H32      1.0000 0.97650  0.80840  0.49830  Biso   1.000  H
  C53      1.0000 0.17540  0.60840  0.14057  Biso   1.000  C
  C54      1.0000 0.32460  0.10840  0.35943  Biso   1.000  C
  C55      1.0000 0.82460  0.39160  0.85943  Biso   1.000  C
  C56      1.0000 0.67540  0.89160  0.64057  Biso   1.000  C
  H33      1.0000 0.15300  0.71550  0.12740  Biso   1.000  H
  H34      1.0000 0.34700  0.21550  0.37260  Biso   1.000  H
  H35      1.0000 0.84700  0.28450  0.87260  Biso   1.000  H
  H36      1.0000 0.65300  0.78450  0.62740  Biso   1.000  H
  C57      1.0000 0.72930  0.57710  0.04710  Biso   1.000  C
  C58      1.0000 0.77070  0.07710  0.45290  Biso   1.000  C
  C59      1.0000 0.27070  0.42290  0.95290  Biso   1.000  C
  C60      1.0000 0.22930  0.92290  0.54710  Biso   1.000  C
  C61      1.0000 0.40850  0.73990  0.06130  Biso   1.000  C
  C62      1.0000 0.09150  0.23990  0.43870  Biso   1.000  C
  C63      1.0000 0.59150  0.26010  0.93870  Biso   1.000  C
  C64      1.0000 0.90850  0.76010  0.56130  Biso   1.000  C
  C65      1.0000 0.12870  0.46660  0.11565  Biso   1.000  C
  C66      1.0000 0.37130  0.96660  0.38435  Biso   1.000  C
  C67      1.0000 0.87130  0.53340  0.88435  Biso   1.000  C
  C68      1.0000 0.62870  0.03340  0.61565  Biso   1.000  C
  H37      1.0000 0.07400  0.47930  0.08500  Biso   1.000  H
  H38      1.0000 0.42600  0.97930  0.41500  Biso   1.000  H
  H39      1.0000 0.92600  0.52070  0.91500  Biso   1.000  H
  H40      1.0000 0.57400  0.02070  0.58500  Biso   1.000  H
  C69      1.0000 0.79480  0.48130  0.03327  Biso   1.000  C
  C70      1.0000 0.70520  0.98130  0.46673  Biso   1.000  C
  C71      1.0000 0.20520  0.51870  0.96673  Biso   1.000  C
  C72      1.0000 0.29480  0.01870  0.53327  Biso   1.000  C
  H41      1.0000 0.79830  0.47370  0.99190  Biso   1.000  H
  H42      1.0000 0.70170  0.97370  0.50810  Biso   1.000  H
  H43      1.0000 0.20170  0.52630  0.00810  Biso   1.000  H
  H44      1.0000 0.29830  0.02630  0.49190  Biso   1.000  H
  C73      1.0000 0.33680  0.82070  0.07078  Biso   1.000  C
  C74      1.0000 0.16320  0.32070  0.42922  Biso   1.000  C
  C75      1.0000 0.66320  0.17930  0.92922  Biso   1.000  C
  C76      1.0000 0.83680  0.67930  0.57078  Biso   1.000  C
  H45      1.0000 0.32510  0.81350  0.10990  Biso   1.000  H
  H46      1.0000 0.17490  0.31350  0.39010  Biso   1.000  H
  H47      1.0000 0.67490  0.18650  0.89010  Biso   1.000  H
  H48      1.0000 0.82510  0.68650  0.60990  Biso   1.000  H
  C77      1.0000 0.37290  0.41700  0.25339  Biso   1.000  C
  C78      1.0000 0.12710  0.91700  0.24661  Biso   1.000  C
  C79      1.0000 0.62710  0.58300  0.74661  Biso   1.000  C
  C80      1.0000 0.87290  0.08300  0.75339  Biso   1.000  C
  C81      1.0000 0.52200  0.31720  0.29676  Biso   1.000  C
  C82      1.0000 0.97800  0.81720  0.20324  Biso   1.000  C
  C83      1.0000 0.47800  0.68280  0.70324  Biso   1.000  C
  C84      1.0000 0.02200  0.18280  0.79676  Biso   1.000  C
  H49      1.0000 0.54510  0.20260  0.30400  Biso   1.000  H
  H50      1.0000 0.95490  0.70260  0.19600  Biso   1.000  H
  H51      1.0000 0.45490  0.79740  0.69600  Biso   1.000  H
  H52      1.0000 0.04510  0.29740  0.80400  Biso   1.000  H
  H53      1.0000 0.51190  0.35850  0.33570  Biso   1.000  H
  H54      1.0000 0.98810  0.85850  0.16430  Biso   1.000  H
  H55      1.0000 0.48810  0.64150  0.66430  Biso   1.000  H
  H56      1.0000 0.01190  0.14150  0.83570  Biso   1.000  H
  C85      1.0000 0.44080  0.23930  0.18850  Biso   1.000  C
  C86      1.0000 0.05920  0.73930  0.31150  Biso   1.000  C
  C87      1.0000 0.55920  0.76070  0.81150  Biso   1.000  C
  C88      1.0000 0.94080  0.26070  0.68850  Biso   1.000  C
  H57      1.0000 0.49480  0.27670  0.17780  Biso   1.000  H
  H58      1.0000 0.00520  0.77670  0.32220  Biso   1.000  H
  H59      1.0000 0.50520  0.72330  0.82220  Biso   1.000  H
  H60      1.0000 0.99480  0.22330  0.67780  Biso   1.000  H
  H61      1.0000 0.38860  0.27450  0.15510  Biso   1.000  H
  H62      1.0000 0.11140  0.77450  0.34490  Biso   1.000  H
  H63      1.0000 0.61140  0.72550  0.84490  Biso   1.000  H
  H64      1.0000 0.88860  0.22550  0.65510  Biso   1.000  H
  C89      1.0000 0.44160  0.04790  0.19480  Biso   1.000  C
  C90      1.0000 0.05840  0.54790  0.30520  Biso   1.000  C
  C91      1.0000 0.55840  0.95210  0.80520  Biso   1.000  C
  C92      1.0000 0.94160  0.45210  0.69480  Biso   1.000  C
  H65      1.0000 0.44370  0.99730  0.15570  Biso   1.000  H
  H66      1.0000 0.05630  0.49730  0.34430  Biso   1.000  H
  H67      1.0000 0.55630  0.00270  0.84430  Biso   1.000  H
  H68      1.0000 0.94370  0.50270  0.65570  Biso   1.000  H
  H69      1.0000 0.38780  0.01160  0.20520  Biso   1.000  H
  H70      1.0000 0.11220  0.51160  0.29480  Biso   1.000  H
  H71      1.0000 0.61220  0.98840  0.79480  Biso   1.000  H
  H72      1.0000 0.88780  0.48840  0.70520  Biso   1.000  H
  H73      1.0000 0.49370  0.01370  0.22750  Biso   1.000  H
  H74      1.0000 0.00630  0.51370  0.27250  Biso   1.000  H
  H75      1.0000 0.50630  0.98630  0.77250  Biso   1.000  H
  H76      1.0000 0.99370  0.48630  0.72750  Biso   1.000  H
  C93      1.0000 0.58960  0.42450  0.27970  Biso   1.000  C
  C94      1.0000 0.91040  0.92450  0.22030  Biso   1.000  C
  C95      1.0000 0.41040  0.57550  0.72030  Biso   1.000  C
  C96      1.0000 0.08960  0.07550  0.77970  Biso   1.000  C
  H77      1.0000 0.60160  0.38140  0.24220  Biso   1.000  H
  H78      1.0000 0.89840  0.88140  0.25780  Biso   1.000  H
  H79      1.0000 0.39840  0.61860  0.75780  Biso   1.000  H
  H80      1.0000 0.10160  0.11860  0.74220  Biso   1.000  H
  H81      1.0000 0.64440  0.42430  0.31340  Biso   1.000  H
  H82      1.0000 0.85560  0.92430  0.18660  Biso   1.000  H
  H83      1.0000 0.35560  0.57570  0.68660  Biso   1.000  H
  H84      1.0000 0.14440  0.07570  0.81340  Biso   1.000  H
  H85      1.0000 0.56700  0.53810  0.27240  Biso   1.000  H
  H86      1.0000 0.93300  0.03810  0.22760  Biso   1.000  H
  H87      1.0000 0.43300  0.46190  0.72760  Biso   1.000  H
  H88      1.0000 0.06700  0.96190  0.77240  Biso   1.000  H
  C97      1.0000 0.43140  0.17950  0.20310  Biso   1.000  C
  C98      1.0000 0.06860  0.67950  0.29690  Biso   1.000  C
  C99      1.0000 0.56860  0.82050  0.79690  Biso   1.000  C
  C100     1.0000 0.93140  0.32050  0.70310  Biso   1.000  C
  C101     1.0000 0.41840  0.00850  0.22370  Biso   1.000  C
  C102     1.0000 0.08160  0.50850  0.27630  Biso   1.000  C
  C103     1.0000 0.58160  0.99150  0.77630  Biso   1.000  C
  C104     1.0000 0.91840  0.49150  0.72370  Biso   1.000  C
  H89      1.0000 0.89160  0.35240  0.17380  Biso   1.000  H
  H90      1.0000 0.60840  0.85240  0.32620  Biso   1.000  H
  H91      1.0000 0.10840  0.64760  0.82620  Biso   1.000  H
  H92      1.0000 0.39160  0.14760  0.67380  Biso   1.000  H
  H93      1.0000 0.25990  0.98380  0.93340  Biso   1.000  H
  H94      1.0000 0.24010  0.48380  0.56660  Biso   1.000  H
  H95      1.0000 0.74010  0.01620  0.06660  Biso   1.000  H
  H96      1.0000 0.75990  0.51620  0.43340  Biso   1.000  H
  H97      1.0000 0.83330  0.42900  0.97250  Biso   1.000  H
  H98      1.0000 0.66670  0.92900  0.52750  Biso   1.000  H
  H99      1.0000 0.16670  0.57100  0.02750  Biso   1.000  H
  H100     1.0000 0.33330  0.07100  0.47250  Biso   1.000  H
  H101     1.0000 0.28110  0.85970  0.12680  Biso   1.000  H
  H102     1.0000 0.21890  0.35970  0.37320  Biso   1.000  H
  H103     1.0000 0.71890  0.14030  0.87320  Biso   1.000  H
  H104     1.0000 0.78110  0.64030  0.62680  Biso   1.000  H
  H105     1.0000 0.48630  0.18050  0.18960  Biso   1.000  H
  H106     1.0000 0.01370  0.68050  0.31040  Biso   1.000  H
  H107     1.0000 0.51370  0.81950  0.81040  Biso   1.000  H
  H108     1.0000 0.98630  0.31950  0.68960  Biso   1.000  H
  H109     1.0000 0.38180  0.20470  0.16640  Biso   1.000  H
  H110     1.0000 0.11820  0.70470  0.33360  Biso   1.000  H
  H111     1.0000 0.61820  0.79530  0.83360  Biso   1.000  H
  H112     1.0000 0.88180  0.29530  0.66640  Biso   1.000  H
  H113     1.0000 0.41640  0.93020  0.19010  Biso   1.000  H
  H114     1.0000 0.08360  0.43020  0.30990  Biso   1.000  H
  H115     1.0000 0.58360  0.06980  0.80990  Biso   1.000  H
  H116     1.0000 0.91640  0.56980  0.69010  Biso   1.000  H
  H117     1.0000 0.36270  0.00300  0.23530  Biso   1.000  H
  H118     1.0000 0.13730  0.50300  0.26470  Biso   1.000  H
  H119     1.0000 0.63730  0.99700  0.76470  Biso   1.000  H
  H120     1.0000 0.86270  0.49700  0.73530  Biso   1.000  H
  H121     1.0000 0.46770  0.97950  0.25940  Biso   1.000  H
  H122     1.0000 0.03230  0.47950  0.24060  Biso   1.000  H
  H123     1.0000 0.53230  0.02050  0.74060  Biso   1.000  H
  H124     1.0000 0.96770  0.52050  0.75940  Biso   1.000  H
  O33      1.0000 0.79280  0.48860  0.97900  Biso   1.000  O
  O34      1.0000 0.70720  0.98860  0.52100  Biso   1.000  O
  O35      1.0000 0.20720  0.51140  0.02100  Biso   1.000  O
  O36      1.0000 0.29280  0.01140  0.47900  Biso   1.000  O
  O37      1.0000 0.32600  0.80700  0.12500  Biso   1.000  O
  O38      1.0000 0.17400  0.30700  0.37500  Biso   1.000  O
  O39      1.0000 0.67400  0.19300  0.87500  Biso   1.000  O
  O40      1.0000 0.82600  0.69300  0.62500  Biso   1.000  O
