data_image0
_cell_length_a       15.861
_cell_length_b       8.105
_cell_length_c       22.955
_cell_angle_alpha    90
_cell_angle_beta     107.77
_cell_angle_gamma    90

_symmetry_space_group_name_H-M    "P 1"
_symmetry_int_tables_number       1

loop_
  _symmetry_equiv_pos_as_xyz
  'x, y, z'

loop_
  _atom_site_label
  _atom_site_occupancy
  _atom_site_fract_x
  _atom_site_fract_y
  _atom_site_fract_z
  _atom_site_thermal_displace_type
  _atom_site_B_iso_or_equiv
  _atom_site_type_symbol
  Cu1      1.0000 0.08809  0.60258  0.10122  Biso   1.000  Cu
  Cu2      1.0000 0.41191  0.10258  0.39878  Biso   1.000  Cu
  Cu3      1.0000 0.91191  0.39742  0.89878  Biso   1.000  Cu
  Cu4      1.0000 0.58809  0.89742  0.60122  Biso   1.000  Cu
  Br1      1.0000 0.77750  0.01340  0.22814  Biso   1.000  Br
  Br2      1.0000 0.72250  0.51340  0.27186  Biso   1.000  Br
  Br3      1.0000 0.22250  0.98660  0.77186  Biso   1.000  Br
  Br4      1.0000 0.27750  0.48660  0.72814  Biso   1.000  Br
  Br5      1.0000 0.64424  0.17165  0.97608  Biso   1.000  Br
  Br6      1.0000 0.85576  0.67165  0.52392  Biso   1.000  Br
  Br7      1.0000 0.35576  0.82835  0.02392  Biso   1.000  Br
  Br8      1.0000 0.14424  0.32835  0.47608  Biso   1.000  Br
  Br9      1.0000 0.49417  0.14289  0.13831  Biso   1.000  Br
  Br10     1.0000 0.00583  0.64289  0.36169  Biso   1.000  Br
  Br11     1.0000 0.50583  0.85711  0.86169  Biso   1.000  Br
  Br12     1.0000 0.99417  0.35711  0.63831  Biso   1.000  Br
  Br13     1.0000 0.39955  0.35897  0.89204  Biso   1.000  Br
  Br14     1.0000 0.10045  0.85897  0.60796  Biso   1.000  Br
  Br15     1.0000 0.60045  0.64103  0.10796  Biso   1.000  Br
  Br16     1.0000 0.89955  0.14103  0.39204  Biso   1.000  Br
  N1       1.0000 0.15980  0.80550  0.13340  Biso   1.000  N
  N2       1.0000 0.34020  0.30550  0.36660  Biso   1.000  N
  N3       1.0000 0.84020  0.19450  0.86660  Biso   1.000  N
  N4       1.0000 0.65980  0.69450  0.63340  Biso   1.000  N
  N5       1.0000 0.43820  0.80510  0.25530  Biso   1.000  N
  N6       1.0000 0.06180  0.30510  0.24470  Biso   1.000  N
  N7       1.0000 0.56180  0.19490  0.74470  Biso   1.000  N
  N8       1.0000 0.93820  0.69490  0.75530  Biso   1.000  N
  O1       1.0000 0.38150  0.00560  0.29980  Biso   1.000  O
  O2       1.0000 0.11850  0.50560  0.20020  Biso   1.000  O
  O3       1.0000 0.61850  0.99440  0.70020  Biso   1.000  O
  O4       1.0000 0.88150  0.49440  0.79980  Biso   1.000  O
  O5       1.0000 0.15400  0.58150  0.99390  Biso   1.000  O
  O6       1.0000 0.34600  0.08150  0.50610  Biso   1.000  O
  O7       1.0000 0.84600  0.41850  0.00610  Biso   1.000  O
  O8       1.0000 0.65400  0.91850  0.49390  Biso   1.000  O
  O9       1.0000 0.01830  0.40970  0.06357  Biso   1.000  O
  O10      1.0000 0.48170  0.90970  0.43643  Biso   1.000  O
  O11      1.0000 0.98170  0.59030  0.93643  Biso   1.000  O
  O12      1.0000 0.51830  0.09030  0.56357  Biso   1.000  O
  H1       1.0000 0.96330  0.41880  0.04760  Biso   1.000  H
  H2       1.0000 0.53670  0.91880  0.45240  Biso   1.000  H
  H3       1.0000 0.03670  0.58120  0.95240  Biso   1.000  H
  H4       1.0000 0.46330  0.08120  0.54760  Biso   1.000  H
  H5       1.0000 0.03790  0.36000  0.03830  Biso   1.000  H
  H6       1.0000 0.46210  0.86000  0.46170  Biso   1.000  H
  H7       1.0000 0.96210  0.64000  0.96170  Biso   1.000  H
  H8       1.0000 0.53790  0.14000  0.53830  Biso   1.000  H
  O13      1.0000 0.98160  0.71130  0.10784  Biso   1.000  O
  O14      1.0000 0.51840  0.21130  0.39216  Biso   1.000  O
  O15      1.0000 0.01840  0.28870  0.89216  Biso   1.000  O
  O16      1.0000 0.48160  0.78870  0.60784  Biso   1.000  O
  O17      1.0000 0.19240  0.49340  0.09050  Biso   1.000  O
  O18      1.0000 0.30760  0.99340  0.40950  Biso   1.000  O
  O19      1.0000 0.80760  0.50660  0.90950  Biso   1.000  O
  O20      1.0000 0.69240  0.00660  0.59050  Biso   1.000  O
  O21      1.0000 0.90590  0.82300  0.18460  Biso   1.000  O
  O22      1.0000 0.59410  0.32300  0.31540  Biso   1.000  O
  O23      1.0000 0.09410  0.17700  0.81540  Biso   1.000  O
  O24      1.0000 0.40590  0.67700  0.68460  Biso   1.000  O
  H9       1.0000 0.94310  0.76930  0.17300  Biso   1.000  H
  H10      1.0000 0.55690  0.26930  0.32700  Biso   1.000  H
  H11      1.0000 0.05690  0.23070  0.82700  Biso   1.000  H
  H12      1.0000 0.44310  0.73070  0.67300  Biso   1.000  H
  O25      1.0000 0.93300  0.79270  0.01080  Biso   1.000  O
  O26      1.0000 0.56700  0.29270  0.48920  Biso   1.000  O
  O27      1.0000 0.06700  0.20730  0.98920  Biso   1.000  O
  O28      1.0000 0.43300  0.70730  0.51080  Biso   1.000  O
  C1       1.0000 0.20460  0.50150  0.03840  Biso   1.000  C
  C2       1.0000 0.29540  0.00150  0.46160  Biso   1.000  C
  C3       1.0000 0.79540  0.49850  0.96160  Biso   1.000  C
  C4       1.0000 0.70460  0.99850  0.53840  Biso   1.000  C
  C5       1.0000 0.92770  0.79090  0.06300  Biso   1.000  C
  C6       1.0000 0.57230  0.29090  0.43700  Biso   1.000  C
  C7       1.0000 0.07230  0.20910  0.93700  Biso   1.000  C
  C8       1.0000 0.42770  0.70910  0.56300  Biso   1.000  C
  C9       1.0000 0.28240  0.41690  0.02930  Biso   1.000  C
  C10      1.0000 0.21760  0.91690  0.47070  Biso   1.000  C
  C11      1.0000 0.71760  0.58310  0.97070  Biso   1.000  C
  C12      1.0000 0.78240  0.08310  0.52930  Biso   1.000  C
  C13      1.0000 0.85610  0.88890  0.07700  Biso   1.000  C
  C14      1.0000 0.64390  0.38890  0.42300  Biso   1.000  C
  C15      1.0000 0.14390  0.11110  0.92300  Biso   1.000  C
  C16      1.0000 0.35610  0.61110  0.57700  Biso   1.000  C
  C17      1.0000 0.23830  0.78920  0.17760  Biso   1.000  C
  C18      1.0000 0.26170  0.28920  0.32240  Biso   1.000  C
  C19      1.0000 0.76170  0.21080  0.82240  Biso   1.000  C
  C20      1.0000 0.73830  0.71080  0.67760  Biso   1.000  C
  H13      1.0000 0.25850  0.68140  0.19130  Biso   1.000  H
  H14      1.0000 0.24150  0.18140  0.30870  Biso   1.000  H
  H15      1.0000 0.74150  0.31860  0.80870  Biso   1.000  H
  H16      1.0000 0.75850  0.81860  0.69130  Biso   1.000  H
  C21      1.0000 0.85030  0.89820  0.13720  Biso   1.000  C
  C22      1.0000 0.64970  0.39820  0.36280  Biso   1.000  C
  C23      1.0000 0.14970  0.10180  0.86280  Biso   1.000  C
  C24      1.0000 0.35030  0.60180  0.63720  Biso   1.000  C
  C25      1.0000 0.30020  0.42440  0.97340  Biso   1.000  C
  C26      1.0000 0.19980  0.92440  0.52660  Biso   1.000  C
  C27      1.0000 0.69980  0.57560  0.02660  Biso   1.000  C
  C28      1.0000 0.80020  0.07560  0.47340  Biso   1.000  C
  C29      1.0000 0.29010  0.92190  0.20370  Biso   1.000  C
  C30      1.0000 0.20990  0.42190  0.29630  Biso   1.000  C
  C31      1.0000 0.70990  0.07810  0.79630  Biso   1.000  C
  C32      1.0000 0.79010  0.57810  0.70370  Biso   1.000  C
  C33      1.0000 0.78260  0.99550  0.14680  Biso   1.000  C
  C34      1.0000 0.71740  0.49550  0.35320  Biso   1.000  C
  C35      1.0000 0.21740  0.00450  0.85320  Biso   1.000  C
  C36      1.0000 0.28260  0.50450  0.64680  Biso   1.000  C
  C37      1.0000 0.37510  0.34500  0.96730  Biso   1.000  C
  C38      1.0000 0.12490  0.84500  0.53270  Biso   1.000  C
  C39      1.0000 0.62490  0.65500  0.03270  Biso   1.000  C
  C40      1.0000 0.87510  0.15500  0.46730  Biso   1.000  C
  C41      1.0000 0.25890  0.07850  0.18460  Biso   1.000  C
  C42      1.0000 0.24110  0.57850  0.31540  Biso   1.000  C
  C43      1.0000 0.74110  0.92150  0.81540  Biso   1.000  C
  C44      1.0000 0.75890  0.42150  0.68460  Biso   1.000  C
  H17      1.0000 0.29170  0.17260  0.20350  Biso   1.000  H
  H18      1.0000 0.20830  0.67260  0.29650  Biso   1.000  H
  H19      1.0000 0.70830  0.82740  0.79650  Biso   1.000  H
  H20      1.0000 0.79170  0.32740  0.70350  Biso   1.000  H
  C45      1.0000 0.72450  0.07790  0.10180  Biso   1.000  C
  C46      1.0000 0.77550  0.57790  0.39820  Biso   1.000  C
  C47      1.0000 0.27550  0.92210  0.89820  Biso   1.000  C
  C48      1.0000 0.22450  0.42210  0.60180  Biso   1.000  C
  H21      1.0000 0.68040  0.14470  0.11020  Biso   1.000  H
  H22      1.0000 0.81960  0.64470  0.38980  Biso   1.000  H
  H23      1.0000 0.31960  0.85530  0.88980  Biso   1.000  H
  H24      1.0000 0.18040  0.35530  0.61020  Biso   1.000  H
  C49      1.0000 0.43260  0.26230  0.01590  Biso   1.000  C
  C50      1.0000 0.06740  0.76230  0.48410  Biso   1.000  C
  C51      1.0000 0.56740  0.73770  0.98410  Biso   1.000  C
  C52      1.0000 0.93260  0.23770  0.51590  Biso   1.000  C
  H25      1.0000 0.48420  0.21100  0.01170  Biso   1.000  H
  H26      1.0000 0.01580  0.71100  0.48830  Biso   1.000  H
  H27      1.0000 0.51580  0.78900  0.98830  Biso   1.000  H
  H28      1.0000 0.98420  0.28900  0.51170  Biso   1.000  H
  C53      1.0000 0.18030  0.09810  0.13840  Biso   1.000  C
  C54      1.0000 0.31970  0.59810  0.36160  Biso   1.000  C
  C55      1.0000 0.81970  0.90190  0.86160  Biso   1.000  C
  C56      1.0000 0.68030  0.40190  0.63840  Biso   1.000  C
  H29      1.0000 0.16010  0.20500  0.12370  Biso   1.000  H
  H30      1.0000 0.33990  0.70500  0.37630  Biso   1.000  H
  H31      1.0000 0.83990  0.79500  0.87630  Biso   1.000  H
  H32      1.0000 0.66010  0.29500  0.62370  Biso   1.000  H
  C57      1.0000 0.72920  0.06460  0.04190  Biso   1.000  C
  C58      1.0000 0.77080  0.56460  0.45810  Biso   1.000  C
  C59      1.0000 0.27080  0.93540  0.95810  Biso   1.000  C
  C60      1.0000 0.22920  0.43540  0.54190  Biso   1.000  C
  C61      1.0000 0.41400  0.25490  0.07110  Biso   1.000  C
  C62      1.0000 0.08600  0.75490  0.42890  Biso   1.000  C
  C63      1.0000 0.58600  0.74510  0.92890  Biso   1.000  C
  C64      1.0000 0.91400  0.24510  0.57110  Biso   1.000  C
  C65      1.0000 0.13090  0.95870  0.11350  Biso   1.000  C
  C66      1.0000 0.36910  0.45870  0.38650  Biso   1.000  C
  C67      1.0000 0.86910  0.04130  0.88650  Biso   1.000  C
  C68      1.0000 0.63090  0.54130  0.61350  Biso   1.000  C
  H33      1.0000 0.07610  0.97140  0.08220  Biso   1.000  H
  H34      1.0000 0.42390  0.47140  0.41780  Biso   1.000  H
  H35      1.0000 0.92390  0.02860  0.91780  Biso   1.000  H
  H36      1.0000 0.57610  0.52860  0.58220  Biso   1.000  H
  C69      1.0000 0.79600  0.97110  0.03050  Biso   1.000  C
  C70      1.0000 0.70400  0.47110  0.46950  Biso   1.000  C
  C71      1.0000 0.20400  0.02890  0.96950  Biso   1.000  C
  C72      1.0000 0.29600  0.52890  0.53050  Biso   1.000  C
  H37      1.0000 0.79990  0.96420  0.99000  Biso   1.000  H
  H38      1.0000 0.70010  0.46420  0.51000  Biso   1.000  H
  H39      1.0000 0.20010  0.03580  0.01000  Biso   1.000  H
  H40      1.0000 0.29990  0.53580  0.49000  Biso   1.000  H
  C73      1.0000 0.34160  0.32970  0.07820  Biso   1.000  C
  C74      1.0000 0.15840  0.82970  0.42180  Biso   1.000  C
  C75      1.0000 0.65840  0.67030  0.92180  Biso   1.000  C
  C76      1.0000 0.84160  0.17030  0.57820  Biso   1.000  C
  H41      1.0000 0.33030  0.32350  0.11650  Biso   1.000  H
  H42      1.0000 0.16970  0.82350  0.38350  Biso   1.000  H
  H43      1.0000 0.66970  0.67650  0.88350  Biso   1.000  H
  H44      1.0000 0.83030  0.17650  0.61650  Biso   1.000  H
  C77      1.0000 0.37510  0.91050  0.25620  Biso   1.000  C
  C78      1.0000 0.12490  0.41050  0.24380  Biso   1.000  C
  C79      1.0000 0.62490  0.08950  0.74380  Biso   1.000  C
  C80      1.0000 0.87510  0.58950  0.75620  Biso   1.000  C
  C81      1.0000 0.52140  0.80640  0.30500  Biso   1.000  C
  C82      1.0000 0.97860  0.30640  0.19500  Biso   1.000  C
  C83      1.0000 0.47860  0.19360  0.69500  Biso   1.000  C
  C84      1.0000 0.02140  0.69360  0.80500  Biso   1.000  C
  H45      1.0000 0.54320  0.69180  0.31400  Biso   1.000  H
  H46      1.0000 0.95680  0.19180  0.18600  Biso   1.000  H
  H47      1.0000 0.45680  0.30820  0.68600  Biso   1.000  H
  H48      1.0000 0.04320  0.80820  0.81400  Biso   1.000  H
  H49      1.0000 0.51120  0.85210  0.34230  Biso   1.000  H
  H50      1.0000 0.98880  0.35210  0.15770  Biso   1.000  H
  H51      1.0000 0.48880  0.14790  0.65770  Biso   1.000  H
  H52      1.0000 0.01120  0.64790  0.84230  Biso   1.000  H
  C85      1.0000 0.59130  0.90910  0.28870  Biso   1.000  C
  C86      1.0000 0.90870  0.40910  0.21130  Biso   1.000  C
  C87      1.0000 0.40870  0.09090  0.71130  Biso   1.000  C
  C88      1.0000 0.09130  0.59090  0.78870  Biso   1.000  C
  H53      1.0000 0.60230  0.86290  0.25230  Biso   1.000  H
  H54      1.0000 0.89770  0.36290  0.24770  Biso   1.000  H
  H55      1.0000 0.39770  0.13710  0.74770  Biso   1.000  H
  H56      1.0000 0.10230  0.63710  0.75230  Biso   1.000  H
  H57      1.0000 0.64620  0.90770  0.32300  Biso   1.000  H
  H58      1.0000 0.85380  0.40770  0.17700  Biso   1.000  H
  H59      1.0000 0.35380  0.09230  0.67700  Biso   1.000  H
  H60      1.0000 0.14620  0.59230  0.82300  Biso   1.000  H
  H61      1.0000 0.57020  0.02300  0.28040  Biso   1.000  H
  H62      1.0000 0.92980  0.52300  0.21960  Biso   1.000  H
  H63      1.0000 0.42980  0.97700  0.71960  Biso   1.000  H
  H64      1.0000 0.07020  0.47700  0.78040  Biso   1.000  H
  C89      1.0000 0.41350  0.49290  0.23290  Biso   1.000  C
  C90      1.0000 0.08650  0.99290  0.26710  Biso   1.000  C
  C91      1.0000 0.58650  0.50710  0.76710  Biso   1.000  C
  C92      1.0000 0.91350  0.00710  0.73290  Biso   1.000  C
  H65      1.0000 0.41200  0.41110  0.20120  Biso   1.000  H
  H66      1.0000 0.08800  0.91110  0.29880  Biso   1.000  H
  H67      1.0000 0.58800  0.58890  0.79880  Biso   1.000  H
  H68      1.0000 0.91200  0.08890  0.70120  Biso   1.000  H
  H69      1.0000 0.35600  0.49520  0.24060  Biso   1.000  H
  H70      1.0000 0.14400  0.99520  0.25940  Biso   1.000  H
  H71      1.0000 0.64400  0.50480  0.75940  Biso   1.000  H
  H72      1.0000 0.85600  0.00480  0.74060  Biso   1.000  H
  H73      1.0000 0.45980  0.46310  0.27070  Biso   1.000  H
  H74      1.0000 0.04020  0.96310  0.22930  Biso   1.000  H
  H75      1.0000 0.54020  0.53690  0.72930  Biso   1.000  H
  H76      1.0000 0.95980  0.03690  0.77070  Biso   1.000  H
  C93      1.0000 0.43310  0.66160  0.21190  Biso   1.000  C
  C94      1.0000 0.06690  0.16160  0.28810  Biso   1.000  C
  C95      1.0000 0.56690  0.33840  0.78810  Biso   1.000  C
  C96      1.0000 0.93310  0.83840  0.71190  Biso   1.000  C
  H77      1.0000 0.38680  0.68710  0.17290  Biso   1.000  H
  H78      1.0000 0.11320  0.18710  0.32710  Biso   1.000  H
  H79      1.0000 0.61320  0.31290  0.82710  Biso   1.000  H
  H80      1.0000 0.88680  0.81290  0.67290  Biso   1.000  H
  H81      1.0000 0.49020  0.65510  0.20280  Biso   1.000  H
  H82      1.0000 0.00980  0.15510  0.29720  Biso   1.000  H
  H83      1.0000 0.50980  0.34490  0.79720  Biso   1.000  H
  H84      1.0000 0.99020  0.84490  0.70280  Biso   1.000  H
  O29      1.0000 0.24800  0.50640  0.92560  Biso   1.000  O
  O30      1.0000 0.25200  0.00640  0.57440  Biso   1.000  O
  O31      1.0000 0.75200  0.49360  0.07440  Biso   1.000  O
  O32      1.0000 0.74800  0.99360  0.42560  Biso   1.000  O
  H85      1.0000 0.20570  0.54870  0.93510  Biso   1.000  H
  H86      1.0000 0.29430  0.04870  0.56490  Biso   1.000  H
  H87      1.0000 0.79430  0.45130  0.06490  Biso   1.000  H
  H88      1.0000 0.70570  0.95130  0.43510  Biso   1.000  H
  C97      1.0000 0.44450  0.73900  0.19620  Biso   1.000  C
  C98      1.0000 0.05550  0.23900  0.30380  Biso   1.000  C
  C99      1.0000 0.55550  0.26100  0.80380  Biso   1.000  C
  C100     1.0000 0.94450  0.76100  0.69620  Biso   1.000  C
  C101     1.0000 0.44530  0.55200  0.20280  Biso   1.000  C
  C102     1.0000 0.05470  0.05200  0.29720  Biso   1.000  C
  C103     1.0000 0.55470  0.44800  0.79720  Biso   1.000  C
  C104     1.0000 0.94530  0.94800  0.70280  Biso   1.000  C
  H89      1.0000 0.89090  0.84050  0.17000  Biso   1.000  H
  H90      1.0000 0.60910  0.34050  0.33000  Biso   1.000  H
  H91      1.0000 0.10910  0.15950  0.83000  Biso   1.000  H
  H92      1.0000 0.39090  0.65950  0.67000  Biso   1.000  H
  H93      1.0000 0.26180  0.48290  0.93990  Biso   1.000  H
  H94      1.0000 0.23820  0.98290  0.56010  Biso   1.000  H
  H95      1.0000 0.73820  0.51710  0.06010  Biso   1.000  H
  H96      1.0000 0.76180  0.01710  0.43990  Biso   1.000  H
  H97      1.0000 0.28580  0.36890  0.13050  Biso   1.000  H
  H98      1.0000 0.21420  0.86890  0.36950  Biso   1.000  H
  H99      1.0000 0.71420  0.63110  0.86950  Biso   1.000  H
  H100     1.0000 0.78580  0.13110  0.63050  Biso   1.000  H
  H101     1.0000 0.84130  0.92450  0.97320  Biso   1.000  H
  H102     1.0000 0.65870  0.42450  0.52680  Biso   1.000  H
  H103     1.0000 0.15870  0.07550  0.02680  Biso   1.000  H
  H104     1.0000 0.34130  0.57550  0.47320  Biso   1.000  H
  H105     1.0000 0.49940  0.77730  0.18870  Biso   1.000  H
  H106     1.0000 0.00060  0.27730  0.31130  Biso   1.000  H
  H107     1.0000 0.50060  0.22270  0.81130  Biso   1.000  H
  H108     1.0000 0.99940  0.72270  0.68870  Biso   1.000  H
  H109     1.0000 0.39310  0.77450  0.16190  Biso   1.000  H
  H110     1.0000 0.10690  0.27450  0.33810  Biso   1.000  H
  H111     1.0000 0.60690  0.22550  0.83810  Biso   1.000  H
  H112     1.0000 0.89310  0.72550  0.66190  Biso   1.000  H
  H113     1.0000 0.44880  0.50090  0.16490  Biso   1.000  H
  H114     1.0000 0.05120  0.00090  0.33510  Biso   1.000  H
  H115     1.0000 0.55120  0.49910  0.83510  Biso   1.000  H
  H116     1.0000 0.94880  0.99910  0.66490  Biso   1.000  H
  H117     1.0000 0.39090  0.51600  0.21080  Biso   1.000  H
  H118     1.0000 0.10910  0.01600  0.28920  Biso   1.000  H
  H119     1.0000 0.60910  0.48400  0.78920  Biso   1.000  H
  H120     1.0000 0.89090  0.98400  0.71080  Biso   1.000  H
  H121     1.0000 0.49660  0.51860  0.23690  Biso   1.000  H
  H122     1.0000 0.00340  0.01860  0.26310  Biso   1.000  H
  H123     1.0000 0.50340  0.48140  0.76310  Biso   1.000  H
  H124     1.0000 0.99660  0.98140  0.73690  Biso   1.000  H
  O33      1.0000 0.33200  0.31900  0.13030  Biso   1.000  O
  O34      1.0000 0.16800  0.81900  0.36970  Biso   1.000  O
  O35      1.0000 0.66800  0.68100  0.86970  Biso   1.000  O
  O36      1.0000 0.83200  0.18100  0.63030  Biso   1.000  O
  O37      1.0000 0.79740  0.97740  0.97640  Biso   1.000  O
  O38      1.0000 0.70260  0.47740  0.52360  Biso   1.000  O
  O39      1.0000 0.20260  0.02260  0.02360  Biso   1.000  O
  O40      1.0000 0.29740  0.52260  0.47640  Biso   1.000  O
