data_image0
_cell_length_a       12.9021
_cell_length_b       12.9021
_cell_length_c       28.909
_cell_angle_alpha    90
_cell_angle_beta     90
_cell_angle_gamma    90

_symmetry_space_group_name_H-M    "P 1"
_symmetry_int_tables_number       1

loop_
  _symmetry_equiv_pos_as_xyz
  'x, y, z'

loop_
  _atom_site_label
  _atom_site_occupancy
  _atom_site_fract_x
  _atom_site_fract_y
  _atom_site_fract_z
  _atom_site_thermal_displace_type
  _atom_site_B_iso_or_equiv
  _atom_site_type_symbol
  Cu1      1.0000 0.86857  0.99537  0.96035  Biso   1.000  Cu
  Cu2      1.0000 0.13143  0.00463  0.46035  Biso   1.000  Cu
  Cu3      1.0000 0.50463  0.36857  0.71035  Biso   1.000  Cu
  Cu4      1.0000 0.49537  0.63143  0.21035  Biso   1.000  Cu
  Cu5      1.0000 0.63143  0.49537  0.78965  Biso   1.000  Cu
  Cu6      1.0000 0.36857  0.50463  0.28965  Biso   1.000  Cu
  Cu7      1.0000 0.99537  0.86857  0.03965  Biso   1.000  Cu
  Cu8      1.0000 0.00463  0.13143  0.53965  Biso   1.000  Cu
  O1       1.0000 0.87660  0.87660  0.00000  Biso   1.000  O
  O2       1.0000 0.12340  0.12340  0.50000  Biso   1.000  O
  O3       1.0000 0.62340  0.37660  0.75000  Biso   1.000  O
  O4       1.0000 0.37660  0.62340  0.25000  Biso   1.000  O
  S1       1.0000 0.92440  0.23670  0.06609  Biso   1.000  S
  S2       1.0000 0.07560  0.76330  0.56609  Biso   1.000  S
  S3       1.0000 0.26330  0.42440  0.81609  Biso   1.000  S
  S4       1.0000 0.73670  0.57560  0.31609  Biso   1.000  S
  S5       1.0000 0.57560  0.73670  0.68391  Biso   1.000  S
  S6       1.0000 0.42440  0.26330  0.18391  Biso   1.000  S
  S7       1.0000 0.23670  0.92440  0.93391  Biso   1.000  S
  S8       1.0000 0.76330  0.07560  0.43391  Biso   1.000  S
  N1       1.0000 0.90580  0.08370  0.01200  Biso   1.000  N
  N2       1.0000 0.09420  0.91630  0.51200  Biso   1.000  N
  N3       1.0000 0.41630  0.40580  0.76200  Biso   1.000  N
  N4       1.0000 0.58370  0.59420  0.26200  Biso   1.000  N
  N5       1.0000 0.59420  0.58370  0.73800  Biso   1.000  N
  N6       1.0000 0.40580  0.41630  0.23800  Biso   1.000  N
  N7       1.0000 0.08370  0.90580  0.98800  Biso   1.000  N
  N8       1.0000 0.91630  0.09420  0.48800  Biso   1.000  N
  O5       1.0000 0.85010  0.11680  0.92407  Biso   1.000  O
  O6       1.0000 0.14990  0.88320  0.42407  Biso   1.000  O
  O7       1.0000 0.38320  0.35010  0.67407  Biso   1.000  O
  O8       1.0000 0.61680  0.64990  0.17407  Biso   1.000  O
  O9       1.0000 0.64990  0.61680  0.82593  Biso   1.000  O
  O10      1.0000 0.35010  0.38320  0.32593  Biso   1.000  O
  O11      1.0000 0.11680  0.85010  0.07593  Biso   1.000  O
  O12      1.0000 0.88320  0.14990  0.57593  Biso   1.000  O
  C1       1.0000 0.83140  0.21010  0.93890  Biso   1.000  C
  C2       1.0000 0.16860  0.78990  0.43890  Biso   1.000  C
  C3       1.0000 0.28990  0.33140  0.68890  Biso   1.000  C
  C4       1.0000 0.71010  0.66860  0.18890  Biso   1.000  C
  C5       1.0000 0.66860  0.71010  0.81110  Biso   1.000  C
  C6       1.0000 0.33140  0.28990  0.31110  Biso   1.000  C
  C7       1.0000 0.21010  0.83140  0.06110  Biso   1.000  C
  C8       1.0000 0.78990  0.16860  0.56110  Biso   1.000  C
  C9       1.0000 0.78850  0.28240  0.90430  Biso   1.000  C
  C10      1.0000 0.21150  0.71760  0.40430  Biso   1.000  C
  C11      1.0000 0.21760  0.28850  0.65430  Biso   1.000  C
  C12      1.0000 0.78240  0.71150  0.15430  Biso   1.000  C
  C13      1.0000 0.71150  0.78240  0.84570  Biso   1.000  C
  C14      1.0000 0.28850  0.21760  0.34570  Biso   1.000  C
  C15      1.0000 0.28240  0.78850  0.09570  Biso   1.000  C
  C16      1.0000 0.71760  0.21150  0.59570  Biso   1.000  C
  C17      1.0000 0.88830  0.18240  0.01390  Biso   1.000  C
  C18      1.0000 0.11170  0.81760  0.51390  Biso   1.000  C
  C19      1.0000 0.31760  0.38830  0.76390  Biso   1.000  C
  C20      1.0000 0.68240  0.61170  0.26390  Biso   1.000  C
  C21      1.0000 0.61170  0.68240  0.73610  Biso   1.000  C
  C22      1.0000 0.38830  0.31760  0.23610  Biso   1.000  C
  C23      1.0000 0.18240  0.88830  0.98610  Biso   1.000  C
  C24      1.0000 0.81760  0.11170  0.48610  Biso   1.000  C
  N9       1.0000 0.84490  0.24550  0.98120  Biso   1.000  N
  N10      1.0000 0.15510  0.75450  0.48120  Biso   1.000  N
  N11      1.0000 0.25450  0.34490  0.73120  Biso   1.000  N
  N12      1.0000 0.74550  0.65510  0.23120  Biso   1.000  N
  N13      1.0000 0.65510  0.74550  0.76880  Biso   1.000  N
  N14      1.0000 0.34490  0.25450  0.26880  Biso   1.000  N
  N15      1.0000 0.24550  0.84490  0.01880  Biso   1.000  N
  N16      1.0000 0.75450  0.15510  0.51880  Biso   1.000  N
  C25      1.0000 0.79300  0.25960  0.85780  Biso   1.000  C
  C26      1.0000 0.20700  0.74040  0.35780  Biso   1.000  C
  C27      1.0000 0.24040  0.29300  0.60780  Biso   1.000  C
  C28      1.0000 0.75960  0.70700  0.10780  Biso   1.000  C
  C29      1.0000 0.70700  0.75960  0.89220  Biso   1.000  C
  C30      1.0000 0.29300  0.24040  0.39220  Biso   1.000  C
  C31      1.0000 0.25960  0.79300  0.14220  Biso   1.000  C
  C32      1.0000 0.74040  0.20700  0.64220  Biso   1.000  C
  H1       1.0000 0.82690  0.19990  0.84810  Biso   1.000  H
  H2       1.0000 0.17310  0.80010  0.34810  Biso   1.000  H
  H3       1.0000 0.30010  0.32690  0.59810  Biso   1.000  H
  H4       1.0000 0.69990  0.67310  0.09810  Biso   1.000  H
  H5       1.0000 0.67310  0.69990  0.90190  Biso   1.000  H
  H6       1.0000 0.32690  0.30010  0.40190  Biso   1.000  H
  H7       1.0000 0.19990  0.82690  0.15190  Biso   1.000  H
  H8       1.0000 0.80010  0.17310  0.65190  Biso   1.000  H
  N17      1.0000 0.69860  0.41100  0.83819  Biso   1.000  N
  N18      1.0000 0.30140  0.58900  0.33819  Biso   1.000  N
  N19      1.0000 0.08900  0.19860  0.58819  Biso   1.000  N
  N20      1.0000 0.91100  0.80140  0.08819  Biso   1.000  N
  N21      1.0000 0.80140  0.91100  0.91181  Biso   1.000  N
  N22      1.0000 0.19860  0.08900  0.41181  Biso   1.000  N
  N23      1.0000 0.41100  0.69860  0.16181  Biso   1.000  N
  N24      1.0000 0.58900  0.30140  0.66181  Biso   1.000  N
  C33      1.0000 0.74380  0.37400  0.91690  Biso   1.000  C
  C34      1.0000 0.25620  0.62600  0.41690  Biso   1.000  C
  C35      1.0000 0.12600  0.24380  0.66690  Biso   1.000  C
  C36      1.0000 0.87400  0.75620  0.16690  Biso   1.000  C
  C37      1.0000 0.75620  0.87400  0.83310  Biso   1.000  C
  C38      1.0000 0.24380  0.12600  0.33310  Biso   1.000  C
  C39      1.0000 0.37400  0.74380  0.08310  Biso   1.000  C
  C40      1.0000 0.62600  0.25620  0.58310  Biso   1.000  C
  H9       1.0000 0.74220  0.39480  0.94770  Biso   1.000  H
  H10      1.0000 0.25780  0.60520  0.44770  Biso   1.000  H
  H11      1.0000 0.10520  0.24220  0.69770  Biso   1.000  H
  H12      1.0000 0.89480  0.75780  0.19770  Biso   1.000  H
  H13      1.0000 0.75780  0.89480  0.80230  Biso   1.000  H
  H14      1.0000 0.24220  0.10520  0.30230  Biso   1.000  H
  H15      1.0000 0.39480  0.74220  0.05230  Biso   1.000  H
  H16      1.0000 0.60520  0.25780  0.55230  Biso   1.000  H
  C41      1.0000 0.70030  0.43570  0.88210  Biso   1.000  C
  C42      1.0000 0.29970  0.56430  0.38210  Biso   1.000  C
  C43      1.0000 0.06430  0.20030  0.63210  Biso   1.000  C
  C44      1.0000 0.93570  0.79970  0.13210  Biso   1.000  C
  C45      1.0000 0.79970  0.93570  0.86790  Biso   1.000  C
  C46      1.0000 0.20030  0.06430  0.36790  Biso   1.000  C
  C47      1.0000 0.43570  0.70030  0.11790  Biso   1.000  C
  C48      1.0000 0.56430  0.29970  0.61790  Biso   1.000  C
  H17      1.0000 0.67070  0.49850  0.89070  Biso   1.000  H
  H18      1.0000 0.32930  0.50150  0.39070  Biso   1.000  H
  H19      1.0000 0.00150  0.17070  0.64070  Biso   1.000  H
  H20      1.0000 0.99850  0.82930  0.14070  Biso   1.000  H
  H21      1.0000 0.82930  0.99850  0.85930  Biso   1.000  H
  H22      1.0000 0.17070  0.00150  0.35930  Biso   1.000  H
  H23      1.0000 0.49850  0.67070  0.10930  Biso   1.000  H
  H24      1.0000 0.50150  0.32930  0.60930  Biso   1.000  H
  C49      1.0000 0.74970  0.32150  0.82640  Biso   1.000  C
  C50      1.0000 0.25030  0.67850  0.32640  Biso   1.000  C
  C51      1.0000 0.17850  0.24970  0.57640  Biso   1.000  C
  C52      1.0000 0.82150  0.75030  0.07640  Biso   1.000  C
  C53      1.0000 0.75030  0.82150  0.92360  Biso   1.000  C
  C54      1.0000 0.24970  0.17850  0.42360  Biso   1.000  C
  C55      1.0000 0.32150  0.74970  0.17360  Biso   1.000  C
  C56      1.0000 0.67850  0.25030  0.67360  Biso   1.000  C
  H25      1.0000 0.75420  0.30340  0.79540  Biso   1.000  H
  H26      1.0000 0.24580  0.69660  0.29540  Biso   1.000  H
  H27      1.0000 0.19660  0.25420  0.54540  Biso   1.000  H
  H28      1.0000 0.80340  0.74580  0.04540  Biso   1.000  H
  H29      1.0000 0.74580  0.80340  0.95460  Biso   1.000  H
  H30      1.0000 0.25420  0.19660  0.45460  Biso   1.000  H
  H31      1.0000 0.30340  0.75420  0.20460  Biso   1.000  H
  H32      1.0000 0.69660  0.24580  0.70460  Biso   1.000  H
  C57      1.0000 0.96350  0.11440  0.08270  Biso   1.000  C
  C58      1.0000 0.03650  0.88560  0.58270  Biso   1.000  C
  C59      1.0000 0.38560  0.46350  0.83270  Biso   1.000  C
  C60      1.0000 0.61440  0.53650  0.33270  Biso   1.000  C
  C61      1.0000 0.53650  0.61440  0.66730  Biso   1.000  C
  C62      1.0000 0.46350  0.38560  0.16730  Biso   1.000  C
  C63      1.0000 0.11440  0.96350  0.91730  Biso   1.000  C
  C64      1.0000 0.88560  0.03650  0.41730  Biso   1.000  C
  N25      1.0000 0.04460  0.95140  0.94760  Biso   1.000  N
  N26      1.0000 0.95540  0.04860  0.44760  Biso   1.000  N
  N27      1.0000 0.54860  0.54460  0.69760  Biso   1.000  N
  N28      1.0000 0.45140  0.45540  0.19760  Biso   1.000  N
  N29      1.0000 0.45540  0.45140  0.80240  Biso   1.000  N
  N30      1.0000 0.54460  0.54860  0.30240  Biso   1.000  N
  N31      1.0000 0.95140  0.04460  0.05240  Biso   1.000  N
  N32      1.0000 0.04860  0.95540  0.55240  Biso   1.000  N
  C65      1.0000 0.00760  0.09320  0.13040  Biso   1.000  C
  C66      1.0000 0.99240  0.90680  0.63040  Biso   1.000  C
  C67      1.0000 0.40680  0.50760  0.88040  Biso   1.000  C
  C68      1.0000 0.59320  0.49240  0.38040  Biso   1.000  C
  C69      1.0000 0.49240  0.59320  0.61960  Biso   1.000  C
  C70      1.0000 0.50760  0.40680  0.11960  Biso   1.000  C
  C71      1.0000 0.09320  0.00760  0.86960  Biso   1.000  C
  C72      1.0000 0.90680  0.99240  0.36960  Biso   1.000  C
  H33      1.0000 0.02640  0.02140  0.13280  Biso   1.000  H
  H34      1.0000 0.97360  0.97860  0.63280  Biso   1.000  H
  H35      1.0000 0.47860  0.52640  0.88280  Biso   1.000  H
  H36      1.0000 0.52140  0.47360  0.38280  Biso   1.000  H
  H37      1.0000 0.47360  0.52140  0.61720  Biso   1.000  H
  H38      1.0000 0.52640  0.47860  0.11720  Biso   1.000  H
  H39      1.0000 0.02140  0.02640  0.86720  Biso   1.000  H
  H40      1.0000 0.97860  0.97360  0.36720  Biso   1.000  H
  H41      1.0000 0.95650  0.10940  0.15340  Biso   1.000  H
  H42      1.0000 0.04350  0.89060  0.65340  Biso   1.000  H
  H43      1.0000 0.39060  0.45650  0.90340  Biso   1.000  H
  H44      1.0000 0.60940  0.54350  0.40340  Biso   1.000  H
  H45      1.0000 0.54350  0.60940  0.59660  Biso   1.000  H
  H46      1.0000 0.45650  0.39060  0.09660  Biso   1.000  H
  H47      1.0000 0.10940  0.95650  0.84660  Biso   1.000  H
  H48      1.0000 0.89060  0.04350  0.34660  Biso   1.000  H
  H49      1.0000 0.06800  0.13550  0.13520  Biso   1.000  H
  H50      1.0000 0.93200  0.86450  0.63520  Biso   1.000  H
  H51      1.0000 0.36450  0.56800  0.88520  Biso   1.000  H
  H52      1.0000 0.63550  0.43200  0.38520  Biso   1.000  H
  H53      1.0000 0.43200  0.63550  0.61480  Biso   1.000  H
  H54      1.0000 0.56800  0.36450  0.11480  Biso   1.000  H
  H55      1.0000 0.13550  0.06800  0.86480  Biso   1.000  H
  H56      1.0000 0.86450  0.93200  0.36480  Biso   1.000  H
  F1       1.0000 0.94480  0.07200  0.78600  Biso   1.000  F
  F2       1.0000 0.05520  0.92800  0.28600  Biso   1.000  F
  F3       1.0000 0.42800  0.44480  0.53600  Biso   1.000  F
  F4       1.0000 0.57200  0.55520  0.03600  Biso   1.000  F
  F5       1.0000 0.55520  0.57200  0.96400  Biso   1.000  F
  F6       1.0000 0.44480  0.42800  0.46400  Biso   1.000  F
  F7       1.0000 0.07200  0.94480  0.21400  Biso   1.000  F
  F8       1.0000 0.92800  0.05520  0.71400  Biso   1.000  F
  F9       1.0000 0.82550  0.09880  0.76920  Biso   1.000  F
  F10      1.0000 0.17450  0.90120  0.26920  Biso   1.000  F
  F11      1.0000 0.40120  0.32550  0.51920  Biso   1.000  F
  F12      1.0000 0.59880  0.67450  0.01920  Biso   1.000  F
  F13      1.0000 0.67450  0.59880  0.98080  Biso   1.000  F
  F14      1.0000 0.32550  0.40120  0.48080  Biso   1.000  F
  F15      1.0000 0.09880  0.82550  0.23080  Biso   1.000  F
  F16      1.0000 0.90120  0.17450  0.73080  Biso   1.000  F
  B1       1.0000 0.90800  0.09200  0.75000  Biso   1.000  B
  B2       1.0000 0.09200  0.90800  0.25000  Biso   1.000  B
  B3       1.0000 0.40800  0.40800  0.50000  Biso   1.000  B
  B4       1.0000 0.59200  0.59200  0.00000  Biso   1.000  B
