data_image0
_cell_length_a       10.439
_cell_length_b       13.398
_cell_length_c       13.446
_cell_angle_alpha    110.884
_cell_angle_beta     99.475
_cell_angle_gamma    97.95

_symmetry_space_group_name_H-M    "P 1"
_symmetry_int_tables_number       1

loop_
  _symmetry_equiv_pos_as_xyz
  'x, y, z'

loop_
  _atom_site_label
  _atom_site_occupancy
  _atom_site_fract_x
  _atom_site_fract_y
  _atom_site_fract_z
  _atom_site_thermal_displace_type
  _atom_site_B_iso_or_equiv
  _atom_site_type_symbol
  Cu1      1.0000 0.62186  0.46042  0.28941  Biso   1.000  Cu
  Cu2      1.0000 0.37814  0.53958  0.71059  Biso   1.000  Cu
  Cu3      1.0000 0.38569  0.87994  0.94039  Biso   1.000  Cu
  Cu4      1.0000 0.61431  0.12006  0.05961  Biso   1.000  Cu
  Cl1      1.0000 0.55728  0.93667  0.87535  Biso   1.000  Cl
  Cl2      1.0000 0.44272  0.06333  0.12465  Biso   1.000  Cl
  S1       1.0000 0.81030  0.65285  0.23654  Biso   1.000  S
  S2       1.0000 0.18970  0.34715  0.76346  Biso   1.000  S
  O1       1.0000 0.79620  0.55530  0.26170  Biso   1.000  O
  O2       1.0000 0.20380  0.44470  0.73830  Biso   1.000  O
  O3       1.0000 0.94710  0.69360  0.24190  Biso   1.000  O
  O4       1.0000 0.05290  0.30640  0.75810  Biso   1.000  O
  O5       1.0000 0.74710  0.73460  0.30170  Biso   1.000  O
  O6       1.0000 0.25290  0.26540  0.69830  Biso   1.000  O
  O7       1.0000 0.52500  0.49550  0.77360  Biso   1.000  O
  O8       1.0000 0.47500  0.50450  0.22640  Biso   1.000  O
  O9       1.0000 0.40350  0.67370  0.83810  Biso   1.000  O
  O10      1.0000 0.59650  0.32630  0.16190  Biso   1.000  O
  O11      1.0000 0.48890  0.79690  0.00420  Biso   1.000  O
  O12      1.0000 0.51110  0.20310  0.99580  Biso   1.000  O
  O13      1.0000 0.27940  0.01520  0.35860  Biso   1.000  O
  O14      1.0000 0.72060  0.98480  0.64140  Biso   1.000  O
  O15      1.0000 0.85660  0.83260  0.53240  Biso   1.000  O
  O16      1.0000 0.14340  0.16740  0.46760  Biso   1.000  O
  N1       1.0000 0.75720  0.40880  0.37540  Biso   1.000  N
  N2       1.0000 0.24280  0.59120  0.62460  Biso   1.000  N
  N3       1.0000 0.62140  0.56230  0.44290  Biso   1.000  N
  N4       1.0000 0.37860  0.43770  0.55710  Biso   1.000  N
  N5       1.0000 0.22020  0.82170  0.97940  Biso   1.000  N
  N6       1.0000 0.77980  0.17830  0.02060  Biso   1.000  N
  N7       1.0000 0.25370  0.93860  0.86020  Biso   1.000  N
  N8       1.0000 0.74630  0.06140  0.13980  Biso   1.000  N
  N9       1.0000 0.37830  0.87960  0.36010  Biso   1.000  N
  N10      1.0000 0.62170  0.12040  0.63990  Biso   1.000  N
  C1       1.0000 0.82710  0.33290  0.33790  Biso   1.000  C
  C2       1.0000 0.17290  0.66710  0.66210  Biso   1.000  C
  H1       1.0000 0.81500  0.29690  0.26270  Biso   1.000  H
  H2       1.0000 0.18500  0.70310  0.73730  Biso   1.000  H
  C3       1.0000 0.91720  0.30570  0.40690  Biso   1.000  C
  C4       1.0000 0.08280  0.69430  0.59310  Biso   1.000  C
  H3       1.0000 0.96430  0.25240  0.37780  Biso   1.000  H
  H4       1.0000 0.03570  0.74760  0.62220  Biso   1.000  H
  C5       1.0000 0.93660  0.35740  0.51760  Biso   1.000  C
  C6       1.0000 0.06340  0.64260  0.48240  Biso   1.000  C
  H5       1.0000 0.99570  0.33860  0.56430  Biso   1.000  H
  H6       1.0000 0.00430  0.66140  0.43570  Biso   1.000  H
  C7       1.0000 0.86640  0.43940  0.56060  Biso   1.000  C
  C8       1.0000 0.13360  0.56060  0.43940  Biso   1.000  C
  C9       1.0000 0.87770  0.49880  0.67480  Biso   1.000  C
  C10      1.0000 0.12230  0.50120  0.32520  Biso   1.000  C
  H7       1.0000 0.93580  0.48470  0.72590  Biso   1.000  H
  H8       1.0000 0.06420  0.51530  0.27410  Biso   1.000  H
  C11      1.0000 0.80530  0.57520  0.70950  Biso   1.000  C
  C12      1.0000 0.19470  0.42480  0.29050  Biso   1.000  C
  H9       1.0000 0.81290  0.61100  0.78420  Biso   1.000  H
  H10      1.0000 0.18710  0.38900  0.21580  Biso   1.000  H
  C13      1.0000 0.71650  0.60250  0.63370  Biso   1.000  C
  C14      1.0000 0.28350  0.39750  0.36630  Biso   1.000  C
  C15      1.0000 0.63740  0.68100  0.66260  Biso   1.000  C
  C16      1.0000 0.36260  0.31900  0.33740  Biso   1.000  C
  H11      1.0000 0.64060  0.72070  0.73590  Biso   1.000  H
  H12      1.0000 0.35940  0.27930  0.26410  Biso   1.000  H
  C17      1.0000 0.55690  0.69850  0.58360  Biso   1.000  C
  C18      1.0000 0.44310  0.30150  0.41640  Biso   1.000  C
  H13      1.0000 0.50670  0.75160  0.60260  Biso   1.000  H
  H14      1.0000 0.49330  0.24840  0.39740  Biso   1.000  H
  C19      1.0000 0.54910  0.63690  0.47360  Biso   1.000  C
  C20      1.0000 0.45090  0.36310  0.52640  Biso   1.000  C
  H15      1.0000 0.49150  0.64850  0.42020  Biso   1.000  H
  H16      1.0000 0.50850  0.35150  0.57980  Biso   1.000  H
  C21      1.0000 0.70400  0.54550  0.52170  Biso   1.000  C
  C22      1.0000 0.29600  0.45450  0.47830  Biso   1.000  C
  C23      1.0000 0.77780  0.46240  0.48470  Biso   1.000  C
  C24      1.0000 0.22220  0.53760  0.51530  Biso   1.000  C
  C25      1.0000 0.72390  0.60960  0.09910  Biso   1.000  C
  C26      1.0000 0.27610  0.39040  0.90090  Biso   1.000  C
  C27      1.0000 0.74620  0.51720  0.01950  Biso   1.000  C
  C28      1.0000 0.25380  0.48280  0.98050  Biso   1.000  C
  H17      1.0000 0.80680  0.47910  0.03950  Biso   1.000  H
  H18      1.0000 0.19320  0.52090  0.96050  Biso   1.000  H
  C29      1.0000 0.67990  0.48200  0.91210  Biso   1.000  C
  C30      1.0000 0.32010  0.51800  0.08790  Biso   1.000  C
  H19      1.0000 0.69700  0.42040  0.86080  Biso   1.000  H
  H20      1.0000 0.30300  0.57960  0.13920  Biso   1.000  H
  C31      1.0000 0.58570  0.53690  0.87680  Biso   1.000  C
  C32      1.0000 0.41430  0.46310  0.12320  Biso   1.000  C
  C33      1.0000 0.56840  0.63360  0.95790  Biso   1.000  C
  C34      1.0000 0.43160  0.36640  0.04210  Biso   1.000  C
  C35      1.0000 0.63660  0.66690  0.06710  Biso   1.000  C
  C36      1.0000 0.36340  0.33310  0.93290  Biso   1.000  C
  H21      1.0000 0.62280  0.72940  0.11940  Biso   1.000  H
  H22      1.0000 0.37720  0.27060  0.88060  Biso   1.000  H
  C37      1.0000 0.48180  0.70340  0.93130  Biso   1.000  C
  C38      1.0000 0.51820  0.29660  0.06870  Biso   1.000  C
  C39      1.0000 0.27330  0.99940  0.80340  Biso   1.000  C
  C40      1.0000 0.72670  0.00060  0.19660  Biso   1.000  C
  H23      1.0000 0.35880  0.01840  0.79500  Biso   1.000  H
  H24      1.0000 0.64120  0.98160  0.20500  Biso   1.000  H
  C41      1.0000 0.17120  0.03650  0.75530  Biso   1.000  C
  C42      1.0000 0.82880  0.96350  0.24470  Biso   1.000  C
  H25      1.0000 0.18930  0.07970  0.71620  Biso   1.000  H
  H26      1.0000 0.81070  0.92030  0.28380  Biso   1.000  H
  C43      1.0000 0.04310  0.00870  0.76600  Biso   1.000  C
  C44      1.0000 0.95690  0.99130  0.23400  Biso   1.000  C
  H27      1.0000 0.97400  0.03160  0.73310  Biso   1.000  H
  H28      1.0000 0.02600  0.96840  0.26690  Biso   1.000  H
  C45      1.0000 0.01920  0.94590  0.82660  Biso   1.000  C
  C46      1.0000 0.98080  0.05410  0.17340  Biso   1.000  C
  C47      1.0000 0.89230  0.91630  0.84830  Biso   1.000  C
  C48      1.0000 0.10770  0.08370  0.15170  Biso   1.000  C
  H29      1.0000 0.81890  0.93670  0.81780  Biso   1.000  H
  H30      1.0000 0.18110  0.06330  0.18220  Biso   1.000  H
  C49      1.0000 0.87770  0.85930  0.91200  Biso   1.000  C
  C50      1.0000 0.12230  0.14070  0.08800  Biso   1.000  C
  H31      1.0000 0.79480  0.84390  0.92670  Biso   1.000  H
  H32      1.0000 0.20520  0.15610  0.07330  Biso   1.000  H
  C51      1.0000 0.98520  0.82210  0.95760  Biso   1.000  C
  C52      1.0000 0.01480  0.17790  0.04240  Biso   1.000  C
  C53      1.0000 0.97780  0.76240  0.02450  Biso   1.000  C
  C54      1.0000 0.02220  0.23760  0.97550  Biso   1.000  C
  H33      1.0000 0.89730  0.74190  0.04030  Biso   1.000  H
  H34      1.0000 0.10270  0.25810  0.95970  Biso   1.000  H
  C55      1.0000 0.08860  0.73480  0.06590  Biso   1.000  C
  C56      1.0000 0.91140  0.26520  0.93410  Biso   1.000  C
  H35      1.0000 0.08350  0.69480  0.10970  Biso   1.000  H
  H36      1.0000 0.91650  0.30520  0.89030  Biso   1.000  H
  C57      1.0000 0.20990  0.76580  0.04350  Biso   1.000  C
  C58      1.0000 0.79010  0.23420  0.95650  Biso   1.000  C
  H37      1.0000 0.28510  0.74720  0.07370  Biso   1.000  H
  H38      1.0000 0.71490  0.25280  0.92630  Biso   1.000  H
  C59      1.0000 0.11070  0.84940  0.93790  Biso   1.000  C
  C60      1.0000 0.88930  0.15060  0.06210  Biso   1.000  C
  C61      1.0000 0.12820  0.91230  0.87220  Biso   1.000  C
  C62      1.0000 0.87180  0.08770  0.12780  Biso   1.000  C
  C63      1.0000 0.36230  0.96660  0.34270  Biso   1.000  C
  C64      1.0000 0.63770  0.03340  0.65730  Biso   1.000  C
  H39      1.0000 0.42660  0.99380  0.31320  Biso   1.000  H
  H40      1.0000 0.57340  0.00620  0.68680  Biso   1.000  H
  C65      1.0000 0.29040  0.82300  0.39800  Biso   1.000  C
  C66      1.0000 0.70960  0.17700  0.60200  Biso   1.000  C
  H41      1.0000 0.22690  0.76690  0.33700  Biso   1.000  H
  H42      1.0000 0.77310  0.23310  0.66300  Biso   1.000  H
  H43      1.0000 0.24490  0.87250  0.44250  Biso   1.000  H
  H44      1.0000 0.75510  0.12750  0.55750  Biso   1.000  H
  H45      1.0000 0.33860  0.79020  0.44080  Biso   1.000  H
  H46      1.0000 0.66140  0.20980  0.55920  Biso   1.000  H
  C67      1.0000 0.49940  0.84110  0.33620  Biso   1.000  C
  C68      1.0000 0.50060  0.15890  0.66380  Biso   1.000  C
  H47      1.0000 0.56480  0.90080  0.33960  Biso   1.000  H
  H48      1.0000 0.43520  0.09920  0.66040  Biso   1.000  H
  H49      1.0000 0.47860  0.78430  0.26420  Biso   1.000  H
  H50      1.0000 0.52140  0.21570  0.73580  Biso   1.000  H
  H51      1.0000 0.53380  0.81290  0.38910  Biso   1.000  H
  H52      1.0000 0.46620  0.18710  0.61090  Biso   1.000  H
  H53      1.0000 0.88300  0.87600  0.47400  Biso   1.000  H
  H54      1.0000 0.11700  0.12400  0.52600  Biso   1.000  H
  H55      1.0000 0.85900  0.90500  0.59800  Biso   1.000  H
  H56      1.0000 0.14100  0.09500  0.40200  Biso   1.000  H
