data_image0
_cell_length_a       9.7238
_cell_length_b       11.0084
_cell_length_c       12.6035
_cell_angle_alpha    68.388
_cell_angle_beta     76.147
_cell_angle_gamma    65.091

_symmetry_space_group_name_H-M    "P 1"
_symmetry_int_tables_number       1

loop_
  _symmetry_equiv_pos_as_xyz
  'x, y, z'

loop_
  _atom_site_label
  _atom_site_occupancy
  _atom_site_fract_x
  _atom_site_fract_y
  _atom_site_fract_z
  _atom_site_thermal_displace_type
  _atom_site_B_iso_or_equiv
  _atom_site_type_symbol
  Cu1      1.0000 0.47798  0.32231  0.86980  Biso   1.000  Cu
  Cu2      1.0000 0.52202  0.67769  0.13020  Biso   1.000  Cu
  Na1      1.0000 0.29964  0.65348  0.70813  Biso   1.000  Na
  Na2      1.0000 0.70036  0.34652  0.29187  Biso   1.000  Na
  O1       1.0000 0.50500  0.49662  0.82123  Biso   1.000  O
  O2       1.0000 0.49500  0.50338  0.17877  Biso   1.000  O
  O3       1.0000 0.30640  0.42053  0.78375  Biso   1.000  O
  O4       1.0000 0.69360  0.57947  0.21625  Biso   1.000  O
  O5       1.0000 0.43420  0.15280  0.93721  Biso   1.000  O
  O6       1.0000 0.56580  0.84720  0.06279  Biso   1.000  O
  O7       1.0000 0.64440  0.22450  0.96691  Biso   1.000  O
  O8       1.0000 0.35560  0.77550  0.03309  Biso   1.000  O
  O9       1.0000 0.09290  0.59100  0.65077  Biso   1.000  O
  O10      1.0000 0.90710  0.40900  0.34923  Biso   1.000  O
  O11      1.0000 0.48380  0.75790  0.74666  Biso   1.000  O
  O12      1.0000 0.51620  0.24210  0.25334  Biso   1.000  O
  O13      1.0000 0.43100  0.68600  0.52385  Biso   1.000  O
  O14      1.0000 0.56900  0.31400  0.47615  Biso   1.000  O
  H1       1.0000 0.40400  0.72000  0.45640  Biso   1.000  H
  H2       1.0000 0.59600  0.28000  0.54360  Biso   1.000  H
  C1       1.0000 0.21030  0.36940  0.77850  Biso   1.000  C
  C2       1.0000 0.78970  0.63060  0.22150  Biso   1.000  C
  C3       1.0000 0.60030  0.52440  0.85750  Biso   1.000  C
  C4       1.0000 0.39970  0.47560  0.14250  Biso   1.000  C
  C5       1.0000 0.09010  0.45930  0.70670  Biso   1.000  C
  C6       1.0000 0.90990  0.54070  0.29330  Biso   1.000  C
  C7       1.0000 0.59540  0.66440  0.81830  Biso   1.000  C
  C8       1.0000 0.40460  0.33560  0.18170  Biso   1.000  C
  C9       1.0000 0.10440  0.18640  0.82710  Biso   1.000  C
  C10      1.0000 0.89560  0.81360  0.17290  Biso   1.000  C
  H3       1.0000 0.10800  0.09560  0.86770  Biso   1.000  H
  H4       1.0000 0.89200  0.90440  0.13230  Biso   1.000  H
  C11      1.0000 0.21530  0.23110  0.83970  Biso   1.000  C
  C12      1.0000 0.78470  0.76890  0.16030  Biso   1.000  C
  C13      1.0000 0.99390  0.27400  0.75690  Biso   1.000  C
  C14      1.0000 0.00610  0.72600  0.24310  Biso   1.000  C
  H5       1.0000 0.92290  0.24300  0.74850  Biso   1.000  H
  H6       1.0000 0.07710  0.75700  0.25150  Biso   1.000  H
  C15      1.0000 0.70830  0.42290  0.93590  Biso   1.000  C
  C16      1.0000 0.29170  0.57710  0.06410  Biso   1.000  C
  N1       1.0000 0.81430  0.97170  0.80930  Biso   1.000  N
  N2       1.0000 0.18570  0.02830  0.19070  Biso   1.000  N
  C17      1.0000 0.32850  0.13360  0.91570  Biso   1.000  C
  C18      1.0000 0.67150  0.86640  0.08430  Biso   1.000  C
  H7       1.0000 0.32220  0.04560  0.95340  Biso   1.000  H
  H8       1.0000 0.67780  0.95440  0.04660  Biso   1.000  H
  C19      1.0000 0.98640  0.41110  0.69700  Biso   1.000  C
  C20      1.0000 0.01360  0.58890  0.30300  Biso   1.000  C
  H9       1.0000 0.90920  0.47100  0.64950  Biso   1.000  H
  H10      1.0000 0.09080  0.52900  0.35050  Biso   1.000  H
  C21      1.0000 0.69410  0.69960  0.85240  Biso   1.000  C
  C22      1.0000 0.30590  0.30040  0.14760  Biso   1.000  C
  H11      1.0000 0.68940  0.79200  0.82540  Biso   1.000  H
  H12      1.0000 0.31060  0.20800  0.17460  Biso   1.000  H
  C23      1.0000 0.80830  0.46350  0.96850  Biso   1.000  C
  C24      1.0000 0.19170  0.53650  0.03150  Biso   1.000  C
  H13      1.0000 0.87960  0.39670  0.01910  Biso   1.000  H
  H14      1.0000 0.12040  0.60330  0.98090  Biso   1.000  H
  N3       1.0000 0.65260  0.20520  0.71390  Biso   1.000  N
  N4       1.0000 0.34740  0.79480  0.28610  Biso   1.000  N
  C25      1.0000 0.73370  0.09450  0.75220  Biso   1.000  C
  C26      1.0000 0.26630  0.90550  0.24780  Biso   1.000  C
  C27      1.0000 0.97870  0.68800  0.57460  Biso   1.000  C
  C28      1.0000 0.02130  0.31200  0.42540  Biso   1.000  C
  H15      1.0000 0.87890  0.71070  0.61750  Biso   1.000  H
  H16      1.0000 0.12110  0.28930  0.38250  Biso   1.000  H
  H17      1.0000 0.97830  0.64650  0.51890  Biso   1.000  H
  H18      1.0000 0.02170  0.35350  0.48110  Biso   1.000  H
  C29      1.0000 0.47420  0.90140  0.70390  Biso   1.000  C
  C30      1.0000 0.52580  0.09860  0.29610  Biso   1.000  C
  H19      1.0000 0.57020  0.90670  0.66190  Biso   1.000  H
  H20      1.0000 0.42980  0.09330  0.33810  Biso   1.000  H
  H21      1.0000 0.45230  0.93920  0.76710  Biso   1.000  H
  H22      1.0000 0.54770  0.06080  0.23290  Biso   1.000  H
  C31      1.0000 0.35060  0.98310  0.62730  Biso   1.000  C
  C32      1.0000 0.64940  0.01690  0.37270  Biso   1.000  C
  H23      1.0000 0.37370  0.94540  0.56480  Biso   1.000  H
  H24      1.0000 0.62630  0.05460  0.43520  Biso   1.000  H
  H25      1.0000 0.34180  0.07960  0.59780  Biso   1.000  H
  H26      1.0000 0.65820  0.92040  0.40220  Biso   1.000  H
  H27      1.0000 0.25620  0.97740  0.66970  Biso   1.000  H
  H28      1.0000 0.74380  0.02260  0.33030  Biso   1.000  H
  C33      1.0000 0.59310  0.61760  0.51660  Biso   1.000  C
  C34      1.0000 0.40690  0.38240  0.48340  Biso   1.000  C
  H29      1.0000 0.62950  0.59760  0.44470  Biso   1.000  H
  H30      1.0000 0.37050  0.40240  0.55530  Biso   1.000  H
  H31      1.0000 0.62090  0.53130  0.57840  Biso   1.000  H
  H32      1.0000 0.37910  0.46870  0.42160  Biso   1.000  H
  H33      1.0000 0.63790  0.67780  0.52170  Biso   1.000  H
  H34      1.0000 0.36210  0.32220  0.47830  Biso   1.000  H
  C35      1.0000 0.72070  0.28180  0.98280  Biso   1.000  C
  C36      1.0000 0.27930  0.71820  0.01720  Biso   1.000  C
  H35      1.0000 0.79610  0.22360  0.03220  Biso   1.000  H
  H36      1.0000 0.20390  0.77640  0.96780  Biso   1.000  H
  C37      1.0000 0.80170  0.59680  0.92770  Biso   1.000  C
  C38      1.0000 0.19830  0.40320  0.07230  Biso   1.000  C
  H37      1.0000 0.86920  0.62110  0.94950  Biso   1.000  H
  H38      1.0000 0.13080  0.37890  0.05050  Biso   1.000  H
  C39      1.0000 0.01380  0.81730  0.51520  Biso   1.000  C
  C40      1.0000 0.98620  0.18270  0.48480  Biso   1.000  C
  H39      1.0000 0.94300  0.88060  0.45940  Biso   1.000  H
  H40      1.0000 0.05700  0.11940  0.54060  Biso   1.000  H
  H41      1.0000 0.11560  0.79290  0.47760  Biso   1.000  H
  H42      1.0000 0.88440  0.20710  0.52240  Biso   1.000  H
  H43      1.0000 0.00570  0.86190  0.57030  Biso   1.000  H
  H44      1.0000 0.99430  0.13810  0.42970  Biso   1.000  H
  N5       1.0000 0.07760  0.82940  0.77780  Biso   1.000  N
  N6       1.0000 0.92240  0.17060  0.22220  Biso   1.000  N
  C41      1.0000 0.95580  0.90290  0.78740  Biso   1.000  C
  C42      1.0000 0.04420  0.09710  0.21260  Biso   1.000  C
