data_image0
_cell_length_a       20.543
_cell_length_b       7.246
_cell_length_c       10.4853
_cell_angle_alpha    90
_cell_angle_beta     111.318
_cell_angle_gamma    90

_symmetry_space_group_name_H-M    "P 1"
_symmetry_int_tables_number       1

loop_
  _symmetry_equiv_pos_as_xyz
  'x, y, z'

loop_
  _atom_site_label
  _atom_site_occupancy
  _atom_site_fract_x
  _atom_site_fract_y
  _atom_site_fract_z
  _atom_site_thermal_displace_type
  _atom_site_B_iso_or_equiv
  _atom_site_type_symbol
  Cu1      1.0000 0.62444  0.26228  0.58212  Biso   1.000  Cu
  Cu2      1.0000 0.37556  0.26228  0.41788  Biso   1.000  Cu
  Cu3      1.0000 0.12444  0.76228  0.58212  Biso   1.000  Cu
  Cu4      1.0000 0.87556  0.76228  0.41788  Biso   1.000  Cu
  V1       1.0000 0.49348  0.03219  0.30719  Biso   1.000  V
  V2       1.0000 0.50652  0.03219  0.69281  Biso   1.000  V
  V3       1.0000 0.99348  0.53219  0.30719  Biso   1.000  V
  V4       1.0000 0.00652  0.53219  0.69281  Biso   1.000  V
  V5       1.0000 0.50000  0.65520  0.50000  Biso   1.000  V
  V6       1.0000 0.00000  0.15520  0.50000  Biso   1.000  V
  V7       1.0000 0.50000  0.18600  0.00000  Biso   1.000  V
  V8       1.0000 0.00000  0.68600  0.00000  Biso   1.000  V
  O1       1.0000 0.57800  0.13200  0.69060  Biso   1.000  O
  O2       1.0000 0.42200  0.13200  0.30940  Biso   1.000  O
  O3       1.0000 0.07800  0.63200  0.69060  Biso   1.000  O
  O4       1.0000 0.92200  0.63200  0.30940  Biso   1.000  O
  O5       1.0000 0.49310  0.79930  0.35460  Biso   1.000  O
  O6       1.0000 0.50690  0.79930  0.64540  Biso   1.000  O
  O7       1.0000 0.99310  0.29930  0.35460  Biso   1.000  O
  O8       1.0000 0.00690  0.29930  0.64540  Biso   1.000  O
  O9       1.0000 0.56900  0.52290  0.53560  Biso   1.000  O
  O10      1.0000 0.43100  0.52290  0.46440  Biso   1.000  O
  O11      1.0000 0.06900  0.02290  0.53560  Biso   1.000  O
  O12      1.0000 0.93100  0.02290  0.46440  Biso   1.000  O
  O13      1.0000 0.49650  0.04320  0.14080  Biso   1.000  O
  O14      1.0000 0.50350  0.04320  0.85920  Biso   1.000  O
  O15      1.0000 0.99650  0.54320  0.14080  Biso   1.000  O
  O16      1.0000 0.00350  0.54320  0.85920  Biso   1.000  O
  O17      1.0000 0.43200  0.31730  0.94580  Biso   1.000  O
  O18      1.0000 0.56800  0.31730  0.05420  Biso   1.000  O
  O19      1.0000 0.93200  0.81730  0.94580  Biso   1.000  O
  O20      1.0000 0.06800  0.81730  0.05420  Biso   1.000  O
  O21      1.0000 0.56220  0.13420  0.41960  Biso   1.000  O
  O22      1.0000 0.43780  0.13420  0.58040  Biso   1.000  O
  O23      1.0000 0.06220  0.63420  0.41960  Biso   1.000  O
  O24      1.0000 0.93780  0.63420  0.58040  Biso   1.000  O
  N1       1.0000 0.68800  0.37190  0.75480  Biso   1.000  N
  N2       1.0000 0.31200  0.37190  0.24520  Biso   1.000  N
  N3       1.0000 0.18800  0.87190  0.75480  Biso   1.000  N
  N4       1.0000 0.81200  0.87190  0.24520  Biso   1.000  N
  N5       1.0000 0.79000  0.30120  0.71260  Biso   1.000  N
  N6       1.0000 0.21000  0.30120  0.28740  Biso   1.000  N
  N7       1.0000 0.29000  0.80120  0.71260  Biso   1.000  N
  N8       1.0000 0.71000  0.80120  0.28740  Biso   1.000  N
  H1       1.0000 0.83090  0.25530  0.75340  Biso   1.000  H
  H2       1.0000 0.16910  0.25530  0.24660  Biso   1.000  H
  H3       1.0000 0.33090  0.75530  0.75340  Biso   1.000  H
  H4       1.0000 0.66910  0.75530  0.24660  Biso   1.000  H
  N9       1.0000 0.69680  0.29920  0.50000  Biso   1.000  N
  N10      1.0000 0.30320  0.29920  0.50000  Biso   1.000  N
  N11      1.0000 0.19680  0.79920  0.50000  Biso   1.000  N
  N12      1.0000 0.80320  0.79920  0.50000  Biso   1.000  N
  C1       1.0000 0.76550  0.29560  0.57080  Biso   1.000  C
  C2       1.0000 0.23450  0.29560  0.42920  Biso   1.000  C
  C3       1.0000 0.26550  0.79560  0.57080  Biso   1.000  C
  C4       1.0000 0.73450  0.79560  0.42920  Biso   1.000  C
  C5       1.0000 0.81440  0.29150  0.50870  Biso   1.000  C
  C6       1.0000 0.18560  0.29150  0.49130  Biso   1.000  C
  C7       1.0000 0.31440  0.79150  0.50870  Biso   1.000  C
  C8       1.0000 0.68560  0.79150  0.49130  Biso   1.000  C
  H5       1.0000 0.86190  0.28510  0.56100  Biso   1.000  H
  H6       1.0000 0.13810  0.28510  0.43900  Biso   1.000  H
  H7       1.0000 0.36190  0.78510  0.56100  Biso   1.000  H
  H8       1.0000 0.63810  0.78510  0.43900  Biso   1.000  H
  C9       1.0000 0.79160  0.29720  0.36840  Biso   1.000  C
  C10      1.0000 0.20840  0.29720  0.63160  Biso   1.000  C
  C11      1.0000 0.29160  0.79720  0.36840  Biso   1.000  C
  C12      1.0000 0.70840  0.79720  0.63160  Biso   1.000  C
  H9       1.0000 0.82350  0.29340  0.32420  Biso   1.000  H
  H10      1.0000 0.17650  0.29340  0.67580  Biso   1.000  H
  H11      1.0000 0.32350  0.79340  0.32420  Biso   1.000  H
  H12      1.0000 0.67650  0.79340  0.67580  Biso   1.000  H
  C13      1.0000 0.72070  0.30850  0.29340  Biso   1.000  C
  C14      1.0000 0.27930  0.30850  0.70660  Biso   1.000  C
  C15      1.0000 0.22070  0.80850  0.29340  Biso   1.000  C
  C16      1.0000 0.77930  0.80850  0.70660  Biso   1.000  C
  H13      1.0000 0.70420  0.31690  0.19840  Biso   1.000  H
  H14      1.0000 0.29580  0.31690  0.80160  Biso   1.000  H
  H15      1.0000 0.20420  0.81690  0.19840  Biso   1.000  H
  H16      1.0000 0.79580  0.81690  0.80160  Biso   1.000  H
  C17      1.0000 0.67560  0.30710  0.36160  Biso   1.000  C
  C18      1.0000 0.32440  0.30710  0.63840  Biso   1.000  C
  C19      1.0000 0.17560  0.80710  0.36160  Biso   1.000  C
  C20      1.0000 0.82440  0.80710  0.63840  Biso   1.000  C
  H17      1.0000 0.62800  0.31180  0.31080  Biso   1.000  H
  H18      1.0000 0.37200  0.31180  0.68920  Biso   1.000  H
  H19      1.0000 0.12800  0.81180  0.31080  Biso   1.000  H
  H20      1.0000 0.87200  0.81180  0.68920  Biso   1.000  H
  C21      1.0000 0.75780  0.37010  0.79700  Biso   1.000  C
  C22      1.0000 0.24220  0.37010  0.20300  Biso   1.000  C
  C23      1.0000 0.25780  0.87010  0.79700  Biso   1.000  C
  C24      1.0000 0.74220  0.87010  0.20300  Biso   1.000  C
  C25      1.0000 0.79970  0.43810  0.92670  Biso   1.000  C
  C26      1.0000 0.20030  0.43810  0.07330  Biso   1.000  C
  C27      1.0000 0.29970  0.93810  0.92670  Biso   1.000  C
  C28      1.0000 0.70030  0.93810  0.07330  Biso   1.000  C
  H21      1.0000 0.84810  0.43710  0.95390  Biso   1.000  H
  H22      1.0000 0.15190  0.43710  0.04610  Biso   1.000  H
  H23      1.0000 0.34810  0.93710  0.95390  Biso   1.000  H
  H24      1.0000 0.65190  0.93710  0.04610  Biso   1.000  H
  C29      1.0000 0.76920  0.50470  0.01150  Biso   1.000  C
  C30      1.0000 0.23080  0.50470  0.98850  Biso   1.000  C
  C31      1.0000 0.26920  0.00470  0.01150  Biso   1.000  C
  C32      1.0000 0.73080  0.00470  0.98850  Biso   1.000  C
  H25      1.0000 0.79640  0.54550  0.09880  Biso   1.000  H
  H26      1.0000 0.20360  0.54550  0.90120  Biso   1.000  H
  H27      1.0000 0.29640  0.04550  0.09880  Biso   1.000  H
  H28      1.0000 0.70360  0.04550  0.90120  Biso   1.000  H
  C33      1.0000 0.69660  0.51160  0.96670  Biso   1.000  C
  C34      1.0000 0.30340  0.51160  0.03330  Biso   1.000  C
  C35      1.0000 0.19660  0.01160  0.96670  Biso   1.000  C
  C36      1.0000 0.80340  0.01160  0.03330  Biso   1.000  C
  H29      1.0000 0.67440  0.56200  0.02160  Biso   1.000  H
  H30      1.0000 0.32560  0.56200  0.97840  Biso   1.000  H
  H31      1.0000 0.17440  0.06200  0.02160  Biso   1.000  H
  H32      1.0000 0.82560  0.06200  0.97840  Biso   1.000  H
  C37      1.0000 0.65940  0.44330  0.84180  Biso   1.000  C
  C38      1.0000 0.34060  0.44330  0.15820  Biso   1.000  C
  C39      1.0000 0.15940  0.94330  0.84180  Biso   1.000  C
  C40      1.0000 0.84060  0.94330  0.15820  Biso   1.000  C
  H33      1.0000 0.61090  0.44540  0.81350  Biso   1.000  H
  H34      1.0000 0.38910  0.44540  0.18650  Biso   1.000  H
  H35      1.0000 0.11090  0.94540  0.81350  Biso   1.000  H
  H36      1.0000 0.88910  0.94540  0.18650  Biso   1.000  H
  O25      1.0000 0.42680  0.68660  0.86320  Biso   1.000  O
  O26      1.0000 0.57320  0.68660  0.13680  Biso   1.000  O
  O27      1.0000 0.92680  0.18660  0.86320  Biso   1.000  O
  O28      1.0000 0.07320  0.18660  0.13680  Biso   1.000  O
  H37      1.0000 0.43000  0.61000  0.90400  Biso   1.000  H
  H38      1.0000 0.57000  0.61000  0.09600  Biso   1.000  H
  H39      1.0000 0.93000  0.11000  0.90400  Biso   1.000  H
  H40      1.0000 0.07000  0.11000  0.09600  Biso   1.000  H
  H41      1.0000 0.45200  0.76100  0.86100  Biso   1.000  H
  H42      1.0000 0.54800  0.76100  0.13900  Biso   1.000  H
  H43      1.0000 0.95200  0.26100  0.86100  Biso   1.000  H
  H44      1.0000 0.04800  0.26100  0.13900  Biso   1.000  H
