data_image0
_cell_length_a       13.1865
_cell_length_b       13.2457
_cell_length_c       18.9036
_cell_angle_alpha    96.814
_cell_angle_beta     103.403
_cell_angle_gamma    93.479

_symmetry_space_group_name_H-M    "P 1"
_symmetry_int_tables_number       1

loop_
  _symmetry_equiv_pos_as_xyz
  'x, y, z'

loop_
  _atom_site_label
  _atom_site_occupancy
  _atom_site_fract_x
  _atom_site_fract_y
  _atom_site_fract_z
  _atom_site_thermal_displace_type
  _atom_site_B_iso_or_equiv
  _atom_site_type_symbol
  Cu1      1.0000 0.65235  0.63438  0.17093  Biso   1.000  Cu
  Cu2      1.0000 0.34765  0.36562  0.82907  Biso   1.000  Cu
  Cu3      1.0000 0.76528  0.57098  0.30763  Biso   1.000  Cu
  Cu4      1.0000 0.23472  0.42902  0.69237  Biso   1.000  Cu
  Cu5      1.0000 0.73076  0.87141  0.13138  Biso   1.000  Cu
  Cu6      1.0000 0.26924  0.12859  0.86862  Biso   1.000  Cu
  Cu7      1.0000 0.83524  0.85091  0.27733  Biso   1.000  Cu
  Cu8      1.0000 0.16476  0.14909  0.72267  Biso   1.000  Cu
  O1       1.0000 0.78801  0.59271  0.21353  Biso   1.000  O
  O2       1.0000 0.21199  0.40729  0.78647  Biso   1.000  O
  H1       1.0000 0.84180  0.62330  0.20520  Biso   1.000  H
  H2       1.0000 0.15820  0.37670  0.79480  Biso   1.000  H
  O3       1.0000 0.62509  0.59905  0.26130  Biso   1.000  O
  O4       1.0000 0.37491  0.40095  0.73870  Biso   1.000  O
  H3       1.0000 0.57000  0.56070  0.25890  Biso   1.000  H
  H4       1.0000 0.43000  0.43930  0.74110  Biso   1.000  H
  O5       1.0000 0.87195  0.85615  0.18397  Biso   1.000  O
  O6       1.0000 0.12805  0.14385  0.81603  Biso   1.000  O
  H5       1.0000 0.89940  0.80090  0.17570  Biso   1.000  H
  H6       1.0000 0.10060  0.19910  0.82430  Biso   1.000  H
  O7       1.0000 0.69459  0.80793  0.21313  Biso   1.000  O
  O8       1.0000 0.30541  0.19207  0.78687  Biso   1.000  O
  H7       1.0000 0.64360  0.83270  0.22730  Biso   1.000  H
  H8       1.0000 0.35640  0.16730  0.77270  Biso   1.000  H
  O9       1.0000 0.82110  0.02021  0.29237  Biso   1.000  O
  O10      1.0000 0.17890  0.97979  0.70763  Biso   1.000  O
  O11      1.0000 0.74421  0.03256  0.17577  Biso   1.000  O
  O12      1.0000 0.25579  0.96744  0.82423  Biso   1.000  O
  O13      1.0000 0.59880  0.07800  0.30450  Biso   1.000  O
  O14      1.0000 0.40120  0.92200  0.69550  Biso   1.000  O
  O15      1.0000 0.64880  0.18370  0.40760  Biso   1.000  O
  O16      1.0000 0.35120  0.81630  0.59240  Biso   1.000  O
  O17      1.0000 0.06390  0.68100  0.08752  Biso   1.000  O
  O18      1.0000 0.93610  0.31900  0.91248  Biso   1.000  O
  O19      1.0000 0.96646  0.68014  0.16971  Biso   1.000  O
  O20      1.0000 0.03354  0.31986  0.83029  Biso   1.000  O
  O21      1.0000 0.20450  0.69990  0.24585  Biso   1.000  O
  O22      1.0000 0.79550  0.30010  0.75415  Biso   1.000  O
  O23      1.0000 0.30800  0.58830  0.29445  Biso   1.000  O
  O24      1.0000 0.69200  0.41170  0.70555  Biso   1.000  O
  O25      1.0000 0.51380  0.88670  0.26974  Biso   1.000  O
  O26      1.0000 0.48620  0.11330  0.73026  Biso   1.000  O
  H9       1.0000 0.54110  0.94370  0.29440  Biso   1.000  H
  H10      1.0000 0.45890  0.05630  0.70560  Biso   1.000  H
  H11      1.0000 0.46590  0.86980  0.29060  Biso   1.000  H
  H12      1.0000 0.53410  0.13020  0.70940  Biso   1.000  H
  O27      1.0000 0.99760  0.01580  0.16023  Biso   1.000  O
  O28      1.0000 0.00240  0.98420  0.83977  Biso   1.000  O
  H13      1.0000 0.95910  0.97230  0.17420  Biso   1.000  H
  H14      1.0000 0.04090  0.02770  0.82580  Biso   1.000  H
  H15      1.0000 0.03360  0.04770  0.20080  Biso   1.000  H
  H16      1.0000 0.96640  0.95230  0.79920  Biso   1.000  H
  O29      1.0000 0.29210  0.88650  0.22136  Biso   1.000  O
  O30      1.0000 0.70790  0.11350  0.77864  Biso   1.000  O
  H17      1.0000 0.32830  0.85910  0.19380  Biso   1.000  H
  H18      1.0000 0.67170  0.14090  0.80620  Biso   1.000  H
  H19      1.0000 0.25780  0.83820  0.23400  Biso   1.000  H
  H20      1.0000 0.74220  0.16180  0.76600  Biso   1.000  H
  O31      1.0000 0.12910  0.88320  0.09660  Biso   1.000  O
  O32      1.0000 0.87090  0.11680  0.90340  Biso   1.000  O
  H21      1.0000 0.10190  0.82190  0.08860  Biso   1.000  H
  H22      1.0000 0.89810  0.17810  0.91140  Biso   1.000  H
  H23      1.0000 0.11550  0.90940  0.13620  Biso   1.000  H
  H24      1.0000 0.88450  0.09060  0.86380  Biso   1.000  H
  O33      1.0000 0.44630  0.75270  0.37350  Biso   1.000  O
  O34      1.0000 0.55370  0.24730  0.62650  Biso   1.000  O
  H25      1.0000 0.40430  0.70340  0.34810  Biso   1.000  H
  H26      1.0000 0.59570  0.29660  0.65190  Biso   1.000  H
  H27      1.0000 0.50950  0.73930  0.37770  Biso   1.000  H
  H28      1.0000 0.49050  0.26070  0.62230  Biso   1.000  H
  O35      1.0000 0.45340  0.45830  0.26834  Biso   1.000  O
  O36      1.0000 0.54660  0.54170  0.73166  Biso   1.000  O
  H29      1.0000 0.40560  0.49040  0.28170  Biso   1.000  H
  H30      1.0000 0.59440  0.50960  0.71830  Biso   1.000  H
  H31      1.0000 0.45350  0.40540  0.28980  Biso   1.000  H
  H32      1.0000 0.54650  0.59460  0.71020  Biso   1.000  H
  O37      1.0000 0.86790  0.14040  0.05644  Biso   1.000  O
  O38      1.0000 0.13210  0.85960  0.94356  Biso   1.000  O
  H33      1.0000 0.89480  0.10260  0.08790  Biso   1.000  H
  H34      1.0000 0.10520  0.89740  0.91210  Biso   1.000  H
  H35      1.0000 0.87150  0.10690  0.01600  Biso   1.000  H
  H36      1.0000 0.12850  0.89310  0.98400  Biso   1.000  H
  O39      1.0000 0.10890  0.16710  0.27054  Biso   1.000  O
  O40      1.0000 0.89110  0.83290  0.72946  Biso   1.000  O
  H37      1.0000 0.11170  0.21350  0.24340  Biso   1.000  H
  H38      1.0000 0.88830  0.78650  0.75660  Biso   1.000  H
  H39      1.0000 0.16060  0.17920  0.30770  Biso   1.000  H
  H40      1.0000 0.83940  0.82080  0.69230  Biso   1.000  H
  O41      1.0000 0.31170  0.09750  0.31170  Biso   1.000  O
  O42      1.0000 0.68830  0.90250  0.68830  Biso   1.000  O
  H41      1.0000 0.29620  0.07340  0.26640  Biso   1.000  H
  H42      1.0000 0.70380  0.92660  0.73360  Biso   1.000  H
  H43      1.0000 0.27700  0.06060  0.33330  Biso   1.000  H
  H44      1.0000 0.72300  0.93940  0.66670  Biso   1.000  H
  O43      1.0000 0.43450  0.29980  0.34970  Biso   1.000  O
  O44      1.0000 0.56550  0.70020  0.65030  Biso   1.000  O
  H45      1.0000 0.39920  0.26770  0.37360  Biso   1.000  H
  H46      1.0000 0.60080  0.73230  0.62640  Biso   1.000  H
  H47      1.0000 0.47940  0.26130  0.33860  Biso   1.000  H
  H48      1.0000 0.52060  0.73870  0.66140  Biso   1.000  H
  O45      1.0000 0.59160  0.32000  0.48500  Biso   1.000  O
  O46      1.0000 0.40840  0.68000  0.51500  Biso   1.000  O
  H49      1.0000 0.55030  0.31800  0.51330  Biso   1.000  H
  H50      1.0000 0.44970  0.68200  0.48670  Biso   1.000  H
  H51      1.0000 0.63150  0.37520  0.49880  Biso   1.000  H
  H52      1.0000 0.36850  0.62480  0.50120  Biso   1.000  H
  O47      1.0000 0.46620  0.05170  0.42740  Biso   1.000  O
  O48      1.0000 0.53380  0.94830  0.57260  Biso   1.000  O
  H53      1.0000 0.46490  0.02550  0.38390  Biso   1.000  H
  H54      1.0000 0.53510  0.97450  0.61610  Biso   1.000  H
  H55      1.0000 0.40370  0.04760  0.43240  Biso   1.000  H
  H56      1.0000 0.59630  0.95240  0.56760  Biso   1.000  H
  N1       1.0000 0.73800  0.57460  0.40860  Biso   1.000  N
  N2       1.0000 0.26200  0.42540  0.59140  Biso   1.000  N
  N3       1.0000 0.91630  0.59748  0.36780  Biso   1.000  N
  N4       1.0000 0.08370  0.40252  0.63220  Biso   1.000  N
  N5       1.0000 0.80390  0.83657  0.37536  Biso   1.000  N
  N6       1.0000 0.19610  0.16343  0.62464  Biso   1.000  N
  N7       1.0000 0.98430  0.86019  0.33841  Biso   1.000  N
  N8       1.0000 0.01570  0.13981  0.66159  Biso   1.000  N
  N9       1.0000 0.50178  0.64493  0.11945  Biso   1.000  N
  N10      1.0000 0.49822  0.35507  0.88055  Biso   1.000  N
  N11      1.0000 0.66859  0.62913  0.06573  Biso   1.000  N
  N12      1.0000 0.33141  0.37087  0.93427  Biso   1.000  N
  N13      1.0000 0.58364  0.87648  0.07113  Biso   1.000  N
  N14      1.0000 0.41636  0.12352  0.92887  Biso   1.000  N
  N15      1.0000 0.76236  0.86732  0.03123  Biso   1.000  N
  N16      1.0000 0.23764  0.13268  0.96877  Biso   1.000  N
  N17      1.0000 0.76260  0.39280  0.28797  Biso   1.000  N
  N18      1.0000 0.23740  0.60720  0.71203  Biso   1.000  N
  N19      1.0000 0.09950  0.34400  0.18870  Biso   1.000  N
  N20      1.0000 0.90050  0.65600  0.81130  Biso   1.000  N
  C1       1.0000 0.64640  0.56540  0.42696  Biso   1.000  C
  C2       1.0000 0.35360  0.43460  0.57304  Biso   1.000  C
  H57      1.0000 0.58500  0.55290  0.39000  Biso   1.000  H
  H58      1.0000 0.41500  0.44710  0.61000  Biso   1.000  H
  C3       1.0000 0.64050  0.57390  0.49980  Biso   1.000  C
  C4       1.0000 0.35950  0.42610  0.50020  Biso   1.000  C
  H59      1.0000 0.57560  0.56700  0.51100  Biso   1.000  H
  H60      1.0000 0.42440  0.43300  0.48900  Biso   1.000  H
  C5       1.0000 0.72850  0.59200  0.55457  Biso   1.000  C
  C6       1.0000 0.27150  0.40800  0.44543  Biso   1.000  C
  H61      1.0000 0.72410  0.59760  0.60330  Biso   1.000  H
  H62      1.0000 0.27590  0.40240  0.39670  Biso   1.000  H
  C7       1.0000 0.82720  0.60260  0.53773  Biso   1.000  C
  C8       1.0000 0.17280  0.39740  0.46227  Biso   1.000  C
  C9       1.0000 0.92420  0.62490  0.59083  Biso   1.000  C
  C10      1.0000 0.07580  0.37510  0.40917  Biso   1.000  C
  H63      1.0000 0.92520  0.63080  0.64050  Biso   1.000  H
  H64      1.0000 0.07480  0.36920  0.35950  Biso   1.000  H
  C11      1.0000 0.01510  0.63750  0.57002  Biso   1.000  C
  C12      1.0000 0.98490  0.36250  0.42998  Biso   1.000  C
  H65      1.0000 0.07750  0.65290  0.60580  Biso   1.000  H
  H66      1.0000 0.92250  0.34710  0.39420  Biso   1.000  H
  C13      1.0000 0.01740  0.62780  0.49408  Biso   1.000  C
  C14      1.0000 0.98260  0.37220  0.50592  Biso   1.000  C
  C15      1.0000 0.10870  0.64100  0.46897  Biso   1.000  C
  C16      1.0000 0.89130  0.35900  0.53103  Biso   1.000  C
  H67      1.0000 0.17330  0.65630  0.50230  Biso   1.000  H
  H68      1.0000 0.82670  0.34370  0.49770  Biso   1.000  H
  C17      1.0000 0.10220  0.63140  0.39558  Biso   1.000  C
  C18      1.0000 0.89780  0.36860  0.60442  Biso   1.000  C
  H69      1.0000 0.16260  0.63850  0.37840  Biso   1.000  H
  H70      1.0000 0.83740  0.36150  0.62160  Biso   1.000  H
  C19      1.0000 0.00380  0.61070  0.34596  Biso   1.000  C
  C20      1.0000 0.99620  0.38930  0.65404  Biso   1.000  C
  H71      1.0000 0.00000  0.60610  0.29590  Biso   1.000  H
  H72      1.0000 0.00000  0.39390  0.70410  Biso   1.000  H
  C21      1.0000 0.92220  0.60550  0.44086  Biso   1.000  C
  C22      1.0000 0.07780  0.39450  0.55914  Biso   1.000  C
  C23      1.0000 0.82650  0.59270  0.46294  Biso   1.000  C
  C24      1.0000 0.17350  0.40730  0.53706  Biso   1.000  C
  C25      1.0000 0.71260  0.82470  0.39204  Biso   1.000  C
  C26      1.0000 0.28740  0.17530  0.60796  Biso   1.000  C
  H73      1.0000 0.65230  0.81180  0.35410  Biso   1.000  H
  H74      1.0000 0.34770  0.18820  0.64590  Biso   1.000  H
  C27      1.0000 0.70270  0.83060  0.46475  Biso   1.000  C
  C28      1.0000 0.29730  0.16940  0.53525  Biso   1.000  C
  H75      1.0000 0.63690  0.82260  0.47450  Biso   1.000  H
  H76      1.0000 0.36310  0.17740  0.52550  Biso   1.000  H
  C29      1.0000 0.79020  0.84810  0.52079  Biso   1.000  C
  C30      1.0000 0.20980  0.15190  0.47921  Biso   1.000  C
  H77      1.0000 0.78440  0.85220  0.56910  Biso   1.000  H
  H78      1.0000 0.21560  0.14780  0.43090  Biso   1.000  H
  C31      1.0000 0.88960  0.86000  0.50564  Biso   1.000  C
  C32      1.0000 0.11040  0.14000  0.49436  Biso   1.000  C
  C33      1.0000 0.98620  0.88010  0.55962  Biso   1.000  C
  C34      1.0000 0.01380  0.11990  0.44038  Biso   1.000  C
  H79      1.0000 0.98560  0.88570  0.60900  Biso   1.000  H
  H80      1.0000 0.01440  0.11430  0.39100  Biso   1.000  H
  C35      1.0000 0.07850  0.89120  0.54098  Biso   1.000  C
  C36      1.0000 0.92150  0.10880  0.45902  Biso   1.000  C
  H81      1.0000 0.14030  0.90390  0.57760  Biso   1.000  H
  H82      1.0000 0.85970  0.09610  0.42240  Biso   1.000  H
  C37      1.0000 0.08250  0.88380  0.46564  Biso   1.000  C
  C38      1.0000 0.91750  0.11620  0.53436  Biso   1.000  C
  C39      1.0000 0.17570  0.89390  0.44160  Biso   1.000  C
  C40      1.0000 0.82430  0.10610  0.55840  Biso   1.000  C
  H83      1.0000 0.24000  0.90600  0.47550  Biso   1.000  H
  H84      1.0000 0.76000  0.09400  0.52450  Biso   1.000  H
  C41      1.0000 0.17090  0.88570  0.36850  Biso   1.000  C
  C42      1.0000 0.82910  0.11430  0.63150  Biso   1.000  C
  H85      1.0000 0.23220  0.89110  0.35230  Biso   1.000  H
  H86      1.0000 0.76780  0.10890  0.64770  Biso   1.000  H
  C43      1.0000 0.07390  0.86940  0.31758  Biso   1.000  C
  C44      1.0000 0.92610  0.13060  0.68242  Biso   1.000  C
  H87      1.0000 0.07190  0.86480  0.26780  Biso   1.000  H
  H88      1.0000 0.92810  0.13520  0.73220  Biso   1.000  H
  C45      1.0000 0.98950  0.86570  0.41113  Biso   1.000  C
  C46      1.0000 0.01050  0.13430  0.58887  Biso   1.000  C
  C47      1.0000 0.89140  0.85340  0.43107  Biso   1.000  C
  C48      1.0000 0.10860  0.14660  0.56893  Biso   1.000  C
  C49      1.0000 0.75390  0.62200  0.03980  Biso   1.000  C
  C50      1.0000 0.24610  0.37800  0.96020  Biso   1.000  C
  H89      1.0000 0.81860  0.62490  0.07310  Biso   1.000  H
  H90      1.0000 0.18140  0.37510  0.92690  Biso   1.000  H
  C51      1.0000 0.75070  0.61050  0.96534  Biso   1.000  C
  C52      1.0000 0.24930  0.38950  0.03466  Biso   1.000  C
  H91      1.0000 0.81230  0.60550  0.94970  Biso   1.000  H
  H92      1.0000 0.18770  0.39450  0.05030  Biso   1.000  H
  C53      1.0000 0.65760  0.60650  0.91533  Biso   1.000  C
  C54      1.0000 0.34240  0.39350  0.08467  Biso   1.000  C
  H93      1.0000 0.65510  0.59930  0.86540  Biso   1.000  H
  H94      1.0000 0.34490  0.40070  0.13460  Biso   1.000  H
  C55      1.0000 0.56460  0.61320  0.93971  Biso   1.000  C
  C56      1.0000 0.43540  0.38680  0.06029  Biso   1.000  C
  C57      1.0000 0.46230  0.61000  0.89275  Biso   1.000  C
  C58      1.0000 0.53770  0.39000  0.10725  Biso   1.000  C
  H95      1.0000 0.45420  0.60230  0.84210  Biso   1.000  H
  H96      1.0000 0.54580  0.39770  0.15790  Biso   1.000  H
  C59      1.0000 0.37750  0.61800  0.92046  Biso   1.000  C
  C60      1.0000 0.62250  0.38200  0.07954  Biso   1.000  C
  H97      1.0000 0.31170  0.61450  0.88850  Biso   1.000  H
  H98      1.0000 0.68830  0.38550  0.11150  Biso   1.000  H
  C61      1.0000 0.38610  0.63180  0.99808  Biso   1.000  C
  C62      1.0000 0.61390  0.36820  0.00192  Biso   1.000  C
  C63      1.0000 0.30200  0.64610  0.03100  Biso   1.000  C
  C64      1.0000 0.69800  0.35390  0.96900  Biso   1.000  C
  H99      1.0000 0.23470  0.64620  0.00180  Biso   1.000  H
  H100     1.0000 0.76530  0.35380  0.99820  Biso   1.000  H
  C65      1.0000 0.31890  0.65980  0.10550  Biso   1.000  C
  C66      1.0000 0.68110  0.34020  0.89450  Biso   1.000  C
  H101     1.0000 0.26350  0.67060  0.12740  Biso   1.000  H
  H102     1.0000 0.73650  0.32940  0.87260  Biso   1.000  H
  C67      1.0000 0.41990  0.65770  0.14863  Biso   1.000  C
  C68      1.0000 0.58010  0.34230  0.85137  Biso   1.000  C
  H103     1.0000 0.43030  0.66530  0.19940  Biso   1.000  H
  H104     1.0000 0.56970  0.33470  0.80060  Biso   1.000  H
  C69      1.0000 0.48480  0.63340  0.04533  Biso   1.000  C
  C70      1.0000 0.51520  0.36660  0.95467  Biso   1.000  C
  C71      1.0000 0.57550  0.62520  0.01644  Biso   1.000  C
  C72      1.0000 0.42450  0.37480  0.98356  Biso   1.000  C
  C73      1.0000 0.85360  0.86180  0.01314  Biso   1.000  C
  C74      1.0000 0.14640  0.13820  0.98686  Biso   1.000  C
  H105     1.0000 0.91390  0.86010  0.04990  Biso   1.000  H
  H106     1.0000 0.08610  0.13990  0.95010  Biso   1.000  H
  C75      1.0000 0.86180  0.85870  0.94064  Biso   1.000  C
  C76      1.0000 0.13820  0.14130  0.05936  Biso   1.000  C
  H107     1.0000 0.92690  0.85570  0.92970  Biso   1.000  H
  H108     1.0000 0.07310  0.14430  0.07030  Biso   1.000  H
  C77      1.0000 0.77430  0.86000  0.88601  Biso   1.000  C
  C78      1.0000 0.22570  0.14000  0.11399  Biso   1.000  C
  H109     1.0000 0.77940  0.85810  0.83760  Biso   1.000  H
  H110     1.0000 0.22060  0.14190  0.16240  Biso   1.000  H
  C79      1.0000 0.67620  0.86400  0.90289  Biso   1.000  C
  C80      1.0000 0.32380  0.13600  0.09711  Biso   1.000  C
  C81      1.0000 0.58030  0.86460  0.85009  Biso   1.000  C
  C82      1.0000 0.41970  0.13540  0.14991  Biso   1.000  C
  H111     1.0000 0.58050  0.86200  0.80080  Biso   1.000  H
  H112     1.0000 0.41950  0.13800  0.19920  Biso   1.000  H
  C83      1.0000 0.48800  0.86880  0.87023  Biso   1.000  C
  C84      1.0000 0.51200  0.13120  0.12977  Biso   1.000  C
  H113     1.0000 0.42610  0.86870  0.83450  Biso   1.000  H
  H114     1.0000 0.57390  0.13130  0.16550  Biso   1.000  H
  C85      1.0000 0.48480  0.87330  0.94542  Biso   1.000  C
  C86      1.0000 0.51520  0.12670  0.05458  Biso   1.000  C
  C87      1.0000 0.39240  0.88030  0.97067  Biso   1.000  C
  C88      1.0000 0.60760  0.11970  0.02933  Biso   1.000  C
  H115     1.0000 0.32810  0.88070  0.93760  Biso   1.000  H
  H116     1.0000 0.67190  0.11930  0.06240  Biso   1.000  H
  C89      1.0000 0.39860  0.88630  0.04349  Biso   1.000  C
  C90      1.0000 0.60140  0.11370  0.95651  Biso   1.000  C
  H117     1.0000 0.33820  0.89170  0.06060  Biso   1.000  H
  H118     1.0000 0.66180  0.10830  0.93940  Biso   1.000  H
  C91      1.0000 0.49520  0.88430  0.09324  Biso   1.000  C
  C92      1.0000 0.50480  0.11570  0.90676  Biso   1.000  C
  H119     1.0000 0.49760  0.88870  0.14310  Biso   1.000  H
  H120     1.0000 0.50240  0.11130  0.85690  Biso   1.000  H
  C93      1.0000 0.57790  0.87230  0.99827  Biso   1.000  C
  C94      1.0000 0.42210  0.12770  0.00173  Biso   1.000  C
  C95      1.0000 0.67530  0.86790  0.97677  Biso   1.000  C
  C96      1.0000 0.32470  0.13210  0.02323  Biso   1.000  C
  C97      1.0000 0.77960  0.06720  0.24208  Biso   1.000  C
  C98      1.0000 0.22040  0.93280  0.75792  Biso   1.000  C
  C99      1.0000 0.77290  0.18090  0.26089  Biso   1.000  C
  C100     1.0000 0.22710  0.81910  0.73911  Biso   1.000  C
  C101     1.0000 0.82840  0.24950  0.22989  Biso   1.000  C
  C102     1.0000 0.17160  0.75050  0.77011  Biso   1.000  C
  H121     1.0000 0.87020  0.22550  0.19930  Biso   1.000  H
  H122     1.0000 0.12980  0.77450  0.80070  Biso   1.000  H
  C103     1.0000 0.82120  0.35270  0.24482  Biso   1.000  C
  C104     1.0000 0.17880  0.64730  0.75518  Biso   1.000  C
  H123     1.0000 0.85910  0.39700  0.22370  Biso   1.000  H
  H124     1.0000 0.14090  0.60300  0.77630  Biso   1.000  H
  C105     1.0000 0.71040  0.32700  0.31851  Biso   1.000  C
  C106     1.0000 0.28960  0.67300  0.68149  Biso   1.000  C
  H125     1.0000 0.66950  0.35350  0.34900  Biso   1.000  H
  H126     1.0000 0.33050  0.64650  0.65100  Biso   1.000  H
  C107     1.0000 0.71340  0.22140  0.30756  Biso   1.000  C
  C108     1.0000 0.28660  0.77860  0.69244  Biso   1.000  C
  C109     1.0000 0.64710  0.15470  0.34280  Biso   1.000  C
  C110     1.0000 0.35290  0.84530  0.65720  Biso   1.000  C
  C111     1.0000 0.03150  0.64480  0.13637  Biso   1.000  C
  C112     1.0000 0.96850  0.35520  0.86363  Biso   1.000  C
  C113     1.0000 0.06310  0.54110  0.15417  Biso   1.000  C
  C114     1.0000 0.93690  0.45890  0.84583  Biso   1.000  C
  C115     1.0000 0.99940  0.45520  0.11510  Biso   1.000  C
  C116     1.0000 0.00060  0.54480  0.88490  Biso   1.000  C
  H127     1.0000 0.94330  0.46270  0.07650  Biso   1.000  H
  H128     1.0000 0.05670  0.53730  0.92350  Biso   1.000  H
  C117     1.0000 0.01850  0.36060  0.13290  Biso   1.000  C
  C118     1.0000 0.98150  0.63940  0.86710  Biso   1.000  C
  H129     1.0000 0.97440  0.30480  0.10600  Biso   1.000  H
  H130     1.0000 0.02560  0.69520  0.89400  Biso   1.000  H
  C119     1.0000 0.16220  0.42600  0.22310  Biso   1.000  C
  C120     1.0000 0.83780  0.57400  0.77690  Biso   1.000  C
  H131     1.0000 0.21960  0.41580  0.25990  Biso   1.000  H
  H132     1.0000 0.78040  0.58420  0.74010  Biso   1.000  H
  C121     1.0000 0.14960  0.52600  0.20902  Biso   1.000  C
  C122     1.0000 0.85040  0.47400  0.79098  Biso   1.000  C
  C123     1.0000 0.22640  0.61180  0.25310  Biso   1.000  C
  C124     1.0000 0.77360  0.38820  0.74690  Biso   1.000  C
  H133     1.0000 0.59940  0.14470  0.49350  Biso   1.000  H
  H134     1.0000 0.40060  0.85530  0.50650  Biso   1.000  H
  H135     1.0000 0.55280  0.12580  0.54900  Biso   1.000  H
  H136     1.0000 0.44720  0.87420  0.45100  Biso   1.000  H
  O49      1.0000 0.54720  0.11310  0.50300  Biso   1.000  O
  O50      1.0000 0.45280  0.88690  0.49700  Biso   1.000  O
