data_image0
_cell_length_a       11.0972
_cell_length_b       11.1454
_cell_length_c       11.5068
_cell_angle_alpha    81.482
_cell_angle_beta     84.078
_cell_angle_gamma    69.733

_symmetry_space_group_name_H-M    "P 1"
_symmetry_int_tables_number       1

loop_
  _symmetry_equiv_pos_as_xyz
  'x, y, z'

loop_
  _atom_site_label
  _atom_site_occupancy
  _atom_site_fract_x
  _atom_site_fract_y
  _atom_site_fract_z
  _atom_site_thermal_displace_type
  _atom_site_B_iso_or_equiv
  _atom_site_type_symbol
  C1       1.0000 0.10982  0.34900  0.83040  Biso   1.000  C
  C2       1.0000 0.89018  0.65100  0.16960  Biso   1.000  C
  C3       1.0000 0.07548  0.48879  0.84796  Biso   1.000  C
  C4       1.0000 0.92452  0.51121  0.15204  Biso   1.000  C
  C5       1.0000 0.16340  0.52270  0.90330  Biso   1.000  C
  C6       1.0000 0.83660  0.47730  0.09670  Biso   1.000  C
  H1       1.0000 0.23410  0.45890  0.93690  Biso   1.000  H
  H2       1.0000 0.76590  0.54110  0.06310  Biso   1.000  H
  C7       1.0000 0.14520  0.65020  0.90790  Biso   1.000  C
  C8       1.0000 0.85480  0.34980  0.09210  Biso   1.000  C
  H3       1.0000 0.20440  0.67080  0.94570  Biso   1.000  H
  H4       1.0000 0.79560  0.32920  0.05430  Biso   1.000  H
  C9       1.0000 0.95880  0.71320  0.81133  Biso   1.000  C
  C10      1.0000 0.04120  0.28680  0.18867  Biso   1.000  C
  H5       1.0000 0.88830  0.77900  0.77960  Biso   1.000  H
  H6       1.0000 0.11170  0.22100  0.22040  Biso   1.000  H
  C11      1.0000 0.96747  0.58724  0.80529  Biso   1.000  C
  C12      1.0000 0.03253  0.41276  0.19471  Biso   1.000  C
  C13      1.0000 0.85330  0.56630  0.76060  Biso   1.000  C
  C14      1.0000 0.14670  0.43370  0.23940  Biso   1.000  C
  C15      1.0000 0.57801  0.25433  0.91134  Biso   1.000  C
  C16      1.0000 0.42199  0.74567  0.08866  Biso   1.000  C
  C17      1.0000 0.53927  0.14824  0.87585  Biso   1.000  C
  C18      1.0000 0.46073  0.85176  0.12415  Biso   1.000  C
  C19      1.0000 0.41097  0.15630  0.89271  Biso   1.000  C
  C20      1.0000 0.58903  0.84370  0.10729  Biso   1.000  C
  H7       1.0000 0.35350  0.22600  0.92740  Biso   1.000  H
  H8       1.0000 0.64650  0.77400  0.07260  Biso   1.000  H
  C21      1.0000 0.44960  0.96950  0.81260  Biso   1.000  C
  C22      1.0000 0.55040  0.03050  0.18740  Biso   1.000  C
  H9       1.0000 0.41970  0.90810  0.79100  Biso   1.000  H
  H10      1.0000 0.58030  0.09190  0.20900  Biso   1.000  H
  C23      1.0000 0.57860  0.95330  0.79250  Biso   1.000  C
  C24      1.0000 0.42140  0.04670  0.20750  Biso   1.000  C
  H11      1.0000 0.63350  0.88280  0.75730  Biso   1.000  H
  H12      1.0000 0.36650  0.11720  0.24270  Biso   1.000  H
  C25      1.0000 0.62604  0.04308  0.82503  Biso   1.000  C
  C26      1.0000 0.37396  0.95692  0.17497  Biso   1.000  C
  C27      1.0000 0.76950  0.01595  0.80828  Biso   1.000  C
  C28      1.0000 0.23050  0.98405  0.19172  Biso   1.000  C
  C29      1.0000 0.91990  0.28360  0.59280  Biso   1.000  C
  C30      1.0000 0.08010  0.71640  0.40720  Biso   1.000  C
  H13      1.0000 0.97130  0.31070  0.63460  Biso   1.000  H
  H14      1.0000 0.02870  0.68930  0.36540  Biso   1.000  H
  C31      1.0000 0.97860  0.20260  0.50640  Biso   1.000  C
  C32      1.0000 0.02140  0.79740  0.49360  Biso   1.000  C
  H15      1.0000 0.06720  0.17710  0.49110  Biso   1.000  H
  H16      1.0000 0.93280  0.82290  0.50890  Biso   1.000  H
  C33      1.0000 0.90530  0.16100  0.44450  Biso   1.000  C
  C34      1.0000 0.09470  0.83900  0.55550  Biso   1.000  C
  H17      1.0000 0.94340  0.10580  0.38780  Biso   1.000  H
  H18      1.0000 0.05660  0.89420  0.61220  Biso   1.000  H
  C35      1.0000 0.77190  0.20260  0.46770  Biso   1.000  C
  C36      1.0000 0.22810  0.79740  0.53230  Biso   1.000  C
  C37      1.0000 0.68360  0.16740  0.40750  Biso   1.000  C
  C38      1.0000 0.31640  0.83260  0.59250  Biso   1.000  C
  H19      1.0000 0.71570  0.11180  0.35030  Biso   1.000  H
  H20      1.0000 0.28430  0.88820  0.64970  Biso   1.000  H
  C39      1.0000 0.55570  0.21320  0.43240  Biso   1.000  C
  C40      1.0000 0.44430  0.78680  0.56760  Biso   1.000  C
  H21      1.0000 0.50160  0.18860  0.39180  Biso   1.000  H
  H22      1.0000 0.49840  0.81140  0.60820  Biso   1.000  H
  C41      1.0000 0.50100  0.29890  0.51990  Biso   1.000  C
  C42      1.0000 0.49900  0.70110  0.48010  Biso   1.000  C
  C43      1.0000 0.36880  0.35660  0.54570  Biso   1.000  C
  C44      1.0000 0.63120  0.64340  0.45430  Biso   1.000  C
  H23      1.0000 0.30930  0.33630  0.50810  Biso   1.000  H
  H24      1.0000 0.69070  0.66370  0.49190  Biso   1.000  H
  C45      1.0000 0.32860  0.44210  0.62570  Biso   1.000  C
  C46      1.0000 0.67140  0.55790  0.37430  Biso   1.000  C
  H25      1.0000 0.24100  0.48220  0.64200  Biso   1.000  H
  H26      1.0000 0.75900  0.51780  0.35800  Biso   1.000  H
  C47      1.0000 0.41840  0.47000  0.68380  Biso   1.000  C
  C48      1.0000 0.58160  0.53000  0.31620  Biso   1.000  C
  H27      1.0000 0.38910  0.52870  0.73870  Biso   1.000  H
  H28      1.0000 0.61090  0.47130  0.26130  Biso   1.000  H
  C49      1.0000 0.72070  0.28350  0.55532  Biso   1.000  C
  C50      1.0000 0.27930  0.71650  0.44468  Biso   1.000  C
  C51      1.0000 0.58520  0.33270  0.58122  Biso   1.000  C
  C52      1.0000 0.41480  0.66730  0.41878  Biso   1.000  C
  Cu1      1.0000 0.17627  0.09274  0.89049  Biso   1.000  Cu
  Cu2      1.0000 0.82373  0.90726  0.10951  Biso   1.000  Cu
  Cu3      1.0000 0.01665  0.92894  0.88526  Biso   1.000  Cu
  Cu4      1.0000 0.98335  0.07106  0.11474  Biso   1.000  Cu
  Cu5      1.0000 0.69121  0.43432  0.74104  Biso   1.000  Cu
  Cu6      1.0000 0.30879  0.56568  0.25896  Biso   1.000  Cu
  Cu7      1.0000 0.50000  0.50000  0.00000  Biso   1.000  Cu
  N1       1.0000 0.04561  0.74649  0.86013  Biso   1.000  N
  N2       1.0000 0.95439  0.25351  0.13987  Biso   1.000  N
  N3       1.0000 0.36523  0.06969  0.86195  Biso   1.000  N
  N4       1.0000 0.63477  0.93031  0.13805  Biso   1.000  N
  N5       1.0000 0.79446  0.32320  0.61763  Biso   1.000  N
  N6       1.0000 0.20554  0.67680  0.38237  Biso   1.000  N
  N7       1.0000 0.54396  0.41554  0.66325  Biso   1.000  N
  N8       1.0000 0.45604  0.58446  0.33675  Biso   1.000  N
  O1       1.0000 0.13121  0.27024  0.92382  Biso   1.000  O
  O2       1.0000 0.86879  0.72976  0.07618  Biso   1.000  O
  O3       1.0000 0.12492  0.32068  0.72934  Biso   1.000  O
  O4       1.0000 0.87508  0.67932  0.27066  Biso   1.000  O
  O5       1.0000 0.84422  0.45517  0.79210  Biso   1.000  O
  O6       1.0000 0.15578  0.54483  0.20790  Biso   1.000  O
  O7       1.0000 0.77428  0.65577  0.70460  Biso   1.000  O
  O8       1.0000 0.22572  0.34423  0.29540  Biso   1.000  O
  O9       1.0000 0.69060  0.25138  0.89173  Biso   1.000  O
  O10      1.0000 0.30940  0.74862  0.10827  Biso   1.000  O
  O11      1.0000 0.48677  0.34224  0.95730  Biso   1.000  O
  O12      1.0000 0.51323  0.65776  0.04270  Biso   1.000  O
  O13      1.0000 0.82948  0.96663  0.90235  Biso   1.000  O
  O14      1.0000 0.17052  0.03337  0.09765  Biso   1.000  O
  O15      1.0000 0.81953  0.03006  0.71014  Biso   1.000  O
  O16      1.0000 0.18047  0.96994  0.28986  Biso   1.000  O
  O17      1.0000 0.99710  0.10407  0.90722  Biso   1.000  O
  O18      1.0000 0.00290  0.89593  0.09278  Biso   1.000  O
  O19      1.0000 0.19772  0.91663  0.86567  Biso   1.000  O
  O20      1.0000 0.80228  0.08337  0.13433  Biso   1.000  O
  O21      1.0000 0.42674  0.45919  0.15067  Biso   1.000  O
  O22      1.0000 0.57326  0.54081  0.84933  Biso   1.000  O
  H29      1.0000 0.94600  0.15600  0.88000  Biso   1.000  H
  H30      1.0000 0.05400  0.84400  0.12000  Biso   1.000  H
  H31      1.0000 0.41400  0.40800  0.15000  Biso   1.000  H
  H32      1.0000 0.58600  0.59200  0.85000  Biso   1.000  H
  H33      1.0000 0.23400  0.87900  0.91000  Biso   1.000  H
  H34      1.0000 0.76600  0.12100  0.09000  Biso   1.000  H
