data_image0
_cell_length_a       10.8315
_cell_length_b       9.7336
_cell_length_c       12.4157
_cell_angle_alpha    90
_cell_angle_beta     112.363
_cell_angle_gamma    90

_symmetry_space_group_name_H-M    "P 1"
_symmetry_int_tables_number       1

loop_
  _symmetry_equiv_pos_as_xyz
  'x, y, z'

loop_
  _atom_site_label
  _atom_site_occupancy
  _atom_site_fract_x
  _atom_site_fract_y
  _atom_site_fract_z
  _atom_site_thermal_displace_type
  _atom_site_B_iso_or_equiv
  _atom_site_type_symbol
  Cu1      1.0000 0.75000  0.26941  0.25000  Biso   1.000  Cu
  Cu2      1.0000 0.25000  0.73059  0.75000  Biso   1.000  Cu
  O1       1.0000 0.65157  0.23632  0.07878  Biso   1.000  O
  O2       1.0000 0.84843  0.23632  0.42122  Biso   1.000  O
  O3       1.0000 0.34843  0.76368  0.92122  Biso   1.000  O
  O4       1.0000 0.15157  0.76368  0.57878  Biso   1.000  O
  N1       1.0000 0.87889  0.41909  0.22880  Biso   1.000  N
  N2       1.0000 0.62111  0.41909  0.27120  Biso   1.000  N
  N3       1.0000 0.12111  0.58091  0.77120  Biso   1.000  N
  N4       1.0000 0.37889  0.58091  0.72880  Biso   1.000  N
  C1       1.0000 0.86320  0.45500  0.12056  Biso   1.000  C
  C2       1.0000 0.63680  0.45500  0.37944  Biso   1.000  C
  C3       1.0000 0.13680  0.54500  0.87944  Biso   1.000  C
  C4       1.0000 0.36320  0.54500  0.62056  Biso   1.000  C
  H1       1.0000 0.80470  0.40420  0.05870  Biso   1.000  H
  H2       1.0000 0.69530  0.40420  0.44130  Biso   1.000  H
  H3       1.0000 0.19530  0.59580  0.94130  Biso   1.000  H
  H4       1.0000 0.30470  0.59580  0.55870  Biso   1.000  H
  O5       1.0000 0.60316  0.06728  0.94749  Biso   1.000  O
  O6       1.0000 0.89684  0.06728  0.55251  Biso   1.000  O
  O7       1.0000 0.39684  0.93272  0.05251  Biso   1.000  O
  O8       1.0000 0.10316  0.93272  0.44749  Biso   1.000  O
  N5       1.0000 0.10845  0.87058  0.22270  Biso   1.000  N
  N6       1.0000 0.39155  0.87058  0.27730  Biso   1.000  N
  N7       1.0000 0.89155  0.12942  0.77730  Biso   1.000  N
  N8       1.0000 0.60845  0.12942  0.72270  Biso   1.000  N
  H5       1.0000 0.08150  0.87020  0.27950  Biso   1.000  H
  H6       1.0000 0.41850  0.87020  0.22050  Biso   1.000  H
  H7       1.0000 0.91850  0.12980  0.72050  Biso   1.000  H
  H8       1.0000 0.58150  0.12980  0.77950  Biso   1.000  H
  C5       1.0000 0.92960  0.56340  0.09667  Biso   1.000  C
  C6       1.0000 0.57040  0.56340  0.40333  Biso   1.000  C
  C7       1.0000 0.07040  0.43660  0.90333  Biso   1.000  C
  C8       1.0000 0.42960  0.43660  0.59667  Biso   1.000  C
  H9       1.0000 0.91620  0.58430  0.02000  Biso   1.000  H
  H10      1.0000 0.58380  0.58430  0.48000  Biso   1.000  H
  H11      1.0000 0.08380  0.41570  0.98000  Biso   1.000  H
  H12      1.0000 0.41620  0.41570  0.52000  Biso   1.000  H
  O9       1.0000 0.11240  0.75144  0.06753  Biso   1.000  O
  O10      1.0000 0.38760  0.75144  0.43247  Biso   1.000  O
  O11      1.0000 0.88760  0.24856  0.93247  Biso   1.000  O
  O12      1.0000 0.61240  0.24856  0.56753  Biso   1.000  O
  N9       1.0000 0.75000  0.07520  0.25000  Biso   1.000  N
  N10      1.0000 0.25000  0.92480  0.75000  Biso   1.000  N
  C9       1.0000 0.01640  0.64170  0.18676  Biso   1.000  C
  C10      1.0000 0.48360  0.64170  0.31324  Biso   1.000  C
  C11      1.0000 0.98360  0.35830  0.81324  Biso   1.000  C
  C12      1.0000 0.51640  0.35830  0.68676  Biso   1.000  C
  C13      1.0000 0.03530  0.60420  0.29958  Biso   1.000  C
  C14      1.0000 0.46470  0.60420  0.20042  Biso   1.000  C
  C15      1.0000 0.96470  0.39580  0.70042  Biso   1.000  C
  C16      1.0000 0.53530  0.39580  0.79958  Biso   1.000  C
  H13      1.0000 0.09350  0.65330  0.36280  Biso   1.000  H
  H14      1.0000 0.40650  0.65330  0.13720  Biso   1.000  H
  H15      1.0000 0.90650  0.34670  0.63720  Biso   1.000  H
  H16      1.0000 0.59350  0.34670  0.86280  Biso   1.000  H
  C17      1.0000 0.96600  0.49250  0.31631  Biso   1.000  C
  C18      1.0000 0.53400  0.49250  0.18369  Biso   1.000  C
  C19      1.0000 0.03400  0.50750  0.68369  Biso   1.000  C
  C20      1.0000 0.46600  0.50750  0.81631  Biso   1.000  C
  H17      1.0000 0.98050  0.46680  0.39230  Biso   1.000  H
  H18      1.0000 0.51950  0.46680  0.10770  Biso   1.000  H
  H19      1.0000 0.01950  0.53320  0.60770  Biso   1.000  H
  H20      1.0000 0.48050  0.53320  0.89230  Biso   1.000  H
  C21      1.0000 0.08500  0.76050  0.15449  Biso   1.000  C
  C22      1.0000 0.41500  0.76050  0.34551  Biso   1.000  C
  C23      1.0000 0.91500  0.23950  0.84551  Biso   1.000  C
  C24      1.0000 0.58500  0.23950  0.65449  Biso   1.000  C
  C25      1.0000 0.17770  0.99190  0.20573  Biso   1.000  C
  C26      1.0000 0.32230  0.99190  0.29427  Biso   1.000  C
  C27      1.0000 0.82230  0.00810  0.79427  Biso   1.000  C
  C28      1.0000 0.67770  0.00810  0.70573  Biso   1.000  C
  H21      1.0000 0.17940  0.98730  0.12750  Biso   1.000  H
  H22      1.0000 0.32060  0.98730  0.37250  Biso   1.000  H
  H23      1.0000 0.82060  0.01270  0.87250  Biso   1.000  H
  H24      1.0000 0.67940  0.01270  0.62750  Biso   1.000  H
  C29      1.0000 0.10360  0.12210  0.21370  Biso   1.000  C
  C30      1.0000 0.39640  0.12210  0.28630  Biso   1.000  C
  C31      1.0000 0.89640  0.87790  0.78630  Biso   1.000  C
  C32      1.0000 0.60360  0.87790  0.71370  Biso   1.000  C
  H25      1.0000 0.01580  0.12260  0.15160  Biso   1.000  H
  H26      1.0000 0.48420  0.12260  0.34840  Biso   1.000  H
  H27      1.0000 0.98420  0.87740  0.84840  Biso   1.000  H
  H28      1.0000 0.51580  0.87740  0.65160  Biso   1.000  H
  H29      1.0000 0.09200  0.12360  0.28740  Biso   1.000  H
  H30      1.0000 0.40800  0.12360  0.21260  Biso   1.000  H
  H31      1.0000 0.90800  0.87640  0.71260  Biso   1.000  H
  H32      1.0000 0.59200  0.87640  0.78740  Biso   1.000  H
  C33      1.0000 0.18050  0.24890  0.20400  Biso   1.000  C
  C34      1.0000 0.31950  0.24890  0.29600  Biso   1.000  C
  C35      1.0000 0.81950  0.75110  0.79600  Biso   1.000  C
  C36      1.0000 0.68050  0.75110  0.70400  Biso   1.000  C
  H33      1.0000 0.18520  0.25130  0.12760  Biso   1.000  H
  H34      1.0000 0.31480  0.25130  0.37240  Biso   1.000  H
  H35      1.0000 0.81480  0.74870  0.87240  Biso   1.000  H
  H36      1.0000 0.68520  0.74870  0.62760  Biso   1.000  H
  H37      1.0000 0.13360  0.33050  0.21240  Biso   1.000  H
  H38      1.0000 0.36640  0.33050  0.28760  Biso   1.000  H
  H39      1.0000 0.86640  0.66950  0.78760  Biso   1.000  H
  H40      1.0000 0.63360  0.66950  0.71240  Biso   1.000  H
  C37      1.0000 0.64631  0.11050  0.04765  Biso   1.000  C
  C38      1.0000 0.85369  0.11050  0.45235  Biso   1.000  C
  C39      1.0000 0.35369  0.88950  0.95235  Biso   1.000  C
  C40      1.0000 0.14631  0.88950  0.54765  Biso   1.000  C
  C41      1.0000 0.69939  0.01030  0.14810  Biso   1.000  C
  C42      1.0000 0.80061  0.01030  0.35190  Biso   1.000  C
  C43      1.0000 0.30061  0.98970  0.85190  Biso   1.000  C
  C44      1.0000 0.19939  0.98970  0.64810  Biso   1.000  C
  C45      1.0000 0.69880  0.86870  0.14533  Biso   1.000  C
  C46      1.0000 0.80120  0.86870  0.35467  Biso   1.000  C
  C47      1.0000 0.30120  0.13130  0.85467  Biso   1.000  C
  C48      1.0000 0.19880  0.13130  0.64533  Biso   1.000  C
  H41      1.0000 0.66480  0.82160  0.07500  Biso   1.000  H
  H42      1.0000 0.83520  0.82160  0.42500  Biso   1.000  H
  H43      1.0000 0.33520  0.17840  0.92500  Biso   1.000  H
  H44      1.0000 0.16480  0.17840  0.57500  Biso   1.000  H
  C49      1.0000 0.75000  0.79870  0.25000  Biso   1.000  C
  C50      1.0000 0.25000  0.20130  0.75000  Biso   1.000  C
  H45      1.0000 0.75000  0.70310  0.25000  Biso   1.000  H
  H46      1.0000 0.25000  0.29690  0.75000  Biso   1.000  H
