data_image0
_cell_length_a       9.8943
_cell_length_b       9.8943
_cell_length_c       14.4687
_cell_angle_alpha    90
_cell_angle_beta     90
_cell_angle_gamma    90

_symmetry_space_group_name_H-M    "P 1"
_symmetry_int_tables_number       1

loop_
  _symmetry_equiv_pos_as_xyz
  'x, y, z'

loop_
  _atom_site_label
  _atom_site_occupancy
  _atom_site_fract_x
  _atom_site_fract_y
  _atom_site_fract_z
  _atom_site_thermal_displace_type
  _atom_site_B_iso_or_equiv
  _atom_site_type_symbol
  Cu1      1.0000 0.26299  0.23677  0.99192  Biso   1.000  Cu
  Cu2      1.0000 0.73701  0.76323  0.99192  Biso   1.000  Cu
  Cu3      1.0000 0.23677  0.73701  0.00808  Biso   1.000  Cu
  Cu4      1.0000 0.76323  0.26299  0.00808  Biso   1.000  Cu
  Cu5      1.0000 0.23701  0.73677  0.50808  Biso   1.000  Cu
  Cu6      1.0000 0.76299  0.26323  0.50808  Biso   1.000  Cu
  Cu7      1.0000 0.26323  0.23701  0.49192  Biso   1.000  Cu
  Cu8      1.0000 0.73677  0.76299  0.49192  Biso   1.000  Cu
  N1       1.0000 0.26000  0.25150  0.12980  Biso   1.000  N
  N2       1.0000 0.74000  0.74850  0.12980  Biso   1.000  N
  N3       1.0000 0.25150  0.74000  0.87020  Biso   1.000  N
  N4       1.0000 0.74850  0.26000  0.87020  Biso   1.000  N
  N5       1.0000 0.24000  0.75150  0.37020  Biso   1.000  N
  N6       1.0000 0.76000  0.24850  0.37020  Biso   1.000  N
  N7       1.0000 0.24850  0.24000  0.62980  Biso   1.000  N
  N8       1.0000 0.75150  0.76000  0.62980  Biso   1.000  N
  O1       1.0000 0.06570  0.24360  0.00530  Biso   1.000  O
  O2       1.0000 0.93430  0.75640  0.00530  Biso   1.000  O
  O3       1.0000 0.24360  0.93430  0.99470  Biso   1.000  O
  O4       1.0000 0.75640  0.06570  0.99470  Biso   1.000  O
  O5       1.0000 0.43430  0.74360  0.49470  Biso   1.000  O
  O6       1.0000 0.56570  0.25640  0.49470  Biso   1.000  O
  O7       1.0000 0.25640  0.43430  0.50530  Biso   1.000  O
  O8       1.0000 0.74360  0.56570  0.50530  Biso   1.000  O
  O9       1.0000 0.90640  0.27990  0.10870  Biso   1.000  O
  O10      1.0000 0.09360  0.72010  0.10870  Biso   1.000  O
  O11      1.0000 0.27990  0.09360  0.89130  Biso   1.000  O
  O12      1.0000 0.72010  0.90640  0.89130  Biso   1.000  O
  O13      1.0000 0.59360  0.77990  0.39130  Biso   1.000  O
  O14      1.0000 0.40640  0.22010  0.39130  Biso   1.000  O
  O15      1.0000 0.22010  0.59360  0.60870  Biso   1.000  O
  O16      1.0000 0.77990  0.40640  0.60870  Biso   1.000  O
  O17      1.0000 0.45980  0.24030  0.01070  Biso   1.000  O
  O18      1.0000 0.54020  0.75970  0.01070  Biso   1.000  O
  O19      1.0000 0.24030  0.54020  0.98930  Biso   1.000  O
  O20      1.0000 0.75970  0.45980  0.98930  Biso   1.000  O
  O21      1.0000 0.04020  0.74030  0.48930  Biso   1.000  O
  O22      1.0000 0.95980  0.25970  0.48930  Biso   1.000  O
  O23      1.0000 0.25970  0.04020  0.51070  Biso   1.000  O
  O24      1.0000 0.74030  0.95980  0.51070  Biso   1.000  O
  O25      1.0000 0.61500  0.28020  0.11440  Biso   1.000  O
  O26      1.0000 0.38500  0.71980  0.11440  Biso   1.000  O
  O27      1.0000 0.28020  0.38500  0.88560  Biso   1.000  O
  O28      1.0000 0.71980  0.61500  0.88560  Biso   1.000  O
  O29      1.0000 0.88500  0.78020  0.38560  Biso   1.000  O
  O30      1.0000 0.11500  0.21980  0.38560  Biso   1.000  O
  O31      1.0000 0.21980  0.88500  0.61440  Biso   1.000  O
  O32      1.0000 0.78020  0.11500  0.61440  Biso   1.000  O
  C1       1.0000 0.02770  0.26670  0.08380  Biso   1.000  C
  C2       1.0000 0.97230  0.73330  0.08380  Biso   1.000  C
  C3       1.0000 0.26670  0.97230  0.91620  Biso   1.000  C
  C4       1.0000 0.73330  0.02770  0.91620  Biso   1.000  C
  C5       1.0000 0.47230  0.76670  0.41620  Biso   1.000  C
  C6       1.0000 0.52770  0.23330  0.41620  Biso   1.000  C
  C7       1.0000 0.23330  0.47230  0.58380  Biso   1.000  C
  C8       1.0000 0.76670  0.52770  0.58380  Biso   1.000  C
  C9       1.0000 0.49440  0.27590  0.08830  Biso   1.000  C
  C10      1.0000 0.50560  0.72410  0.08830  Biso   1.000  C
  C11      1.0000 0.27590  0.50560  0.91170  Biso   1.000  C
  C12      1.0000 0.72410  0.49440  0.91170  Biso   1.000  C
  C13      1.0000 0.00560  0.77590  0.41170  Biso   1.000  C
  C14      1.0000 0.99440  0.22410  0.41170  Biso   1.000  C
  C15      1.0000 0.22410  0.00560  0.58830  Biso   1.000  C
  C16      1.0000 0.77590  0.99440  0.58830  Biso   1.000  C
  C17      1.0000 0.13600  0.32830  0.14840  Biso   1.000  C
  C18      1.0000 0.86400  0.67170  0.14840  Biso   1.000  C
  C19      1.0000 0.32830  0.86400  0.85160  Biso   1.000  C
  C20      1.0000 0.67170  0.13600  0.85160  Biso   1.000  C
  C21      1.0000 0.36400  0.82830  0.35160  Biso   1.000  C
  C22      1.0000 0.63600  0.17170  0.35160  Biso   1.000  C
  C23      1.0000 0.17170  0.36400  0.64840  Biso   1.000  C
  C24      1.0000 0.82830  0.63600  0.64840  Biso   1.000  C
  H1       1.0000 0.14910  0.42340  0.13490  Biso   1.000  H
  H2       1.0000 0.85090  0.57660  0.13490  Biso   1.000  H
  H3       1.0000 0.42340  0.85090  0.86510  Biso   1.000  H
  H4       1.0000 0.57660  0.14910  0.86510  Biso   1.000  H
  H5       1.0000 0.35090  0.92340  0.36510  Biso   1.000  H
  H6       1.0000 0.64910  0.07660  0.36510  Biso   1.000  H
  H7       1.0000 0.07660  0.35090  0.63490  Biso   1.000  H
  H8       1.0000 0.92340  0.64910  0.63490  Biso   1.000  H
  H9       1.0000 0.10930  0.31900  0.21260  Biso   1.000  H
  H10      1.0000 0.89070  0.68100  0.21260  Biso   1.000  H
  H11      1.0000 0.31900  0.89070  0.78740  Biso   1.000  H
  H12      1.0000 0.68100  0.10930  0.78740  Biso   1.000  H
  H13      1.0000 0.39070  0.81900  0.28740  Biso   1.000  H
  H14      1.0000 0.60930  0.18100  0.28740  Biso   1.000  H
  H15      1.0000 0.18100  0.39070  0.71260  Biso   1.000  H
  H16      1.0000 0.81900  0.60930  0.71260  Biso   1.000  H
  C25      1.0000 0.38520  0.32780  0.15630  Biso   1.000  C
  C26      1.0000 0.61480  0.67220  0.15630  Biso   1.000  C
  C27      1.0000 0.32780  0.61480  0.84370  Biso   1.000  C
  C28      1.0000 0.67220  0.38520  0.84370  Biso   1.000  C
  C29      1.0000 0.11480  0.82780  0.34370  Biso   1.000  C
  C30      1.0000 0.88520  0.17220  0.34370  Biso   1.000  C
  C31      1.0000 0.17220  0.11480  0.65630  Biso   1.000  C
  C32      1.0000 0.82780  0.88520  0.65630  Biso   1.000  C
  H17      1.0000 0.41050  0.30870  0.21980  Biso   1.000  H
  H18      1.0000 0.58950  0.69130  0.21980  Biso   1.000  H
  H19      1.0000 0.30870  0.58950  0.78020  Biso   1.000  H
  H20      1.0000 0.69130  0.41050  0.78020  Biso   1.000  H
  H21      1.0000 0.08950  0.80870  0.28020  Biso   1.000  H
  H22      1.0000 0.91050  0.19130  0.28020  Biso   1.000  H
  H23      1.0000 0.19130  0.08950  0.71980  Biso   1.000  H
  H24      1.0000 0.80870  0.91050  0.71980  Biso   1.000  H
  H25      1.0000 0.37180  0.42440  0.14950  Biso   1.000  H
  H26      1.0000 0.62820  0.57560  0.14950  Biso   1.000  H
  H27      1.0000 0.42440  0.62820  0.85050  Biso   1.000  H
  H28      1.0000 0.57560  0.37180  0.85050  Biso   1.000  H
  H29      1.0000 0.12820  0.92440  0.35050  Biso   1.000  H
  H30      1.0000 0.87180  0.07560  0.35050  Biso   1.000  H
  H31      1.0000 0.07560  0.12820  0.64950  Biso   1.000  H
  H32      1.0000 0.92440  0.87180  0.64950  Biso   1.000  H
  C33      1.0000 0.25720  0.11780  0.17530  Biso   1.000  C
  C34      1.0000 0.74280  0.88220  0.17530  Biso   1.000  C
  C35      1.0000 0.11780  0.74280  0.82470  Biso   1.000  C
  C36      1.0000 0.88220  0.25720  0.82470  Biso   1.000  C
  C37      1.0000 0.24280  0.61780  0.32470  Biso   1.000  C
  C38      1.0000 0.75720  0.38220  0.32470  Biso   1.000  C
  C39      1.0000 0.38220  0.24280  0.67530  Biso   1.000  C
  C40      1.0000 0.61780  0.75720  0.67530  Biso   1.000  C
  H33      1.0000 0.25610  0.12960  0.24110  Biso   1.000  H
  H34      1.0000 0.74390  0.87040  0.24110  Biso   1.000  H
  H35      1.0000 0.12960  0.74390  0.75890  Biso   1.000  H
  H36      1.0000 0.87040  0.25610  0.75890  Biso   1.000  H
  H37      1.0000 0.24390  0.62960  0.25890  Biso   1.000  H
  H38      1.0000 0.75610  0.37040  0.25890  Biso   1.000  H
  H39      1.0000 0.37040  0.24390  0.74110  Biso   1.000  H
  H40      1.0000 0.62960  0.75610  0.74110  Biso   1.000  H
  H41      1.0000 0.33600  0.06730  0.15780  Biso   1.000  H
  H42      1.0000 0.66400  0.93270  0.15780  Biso   1.000  H
  H43      1.0000 0.06730  0.66400  0.84220  Biso   1.000  H
  H44      1.0000 0.93270  0.33600  0.84220  Biso   1.000  H
  H45      1.0000 0.16400  0.56730  0.34220  Biso   1.000  H
  H46      1.0000 0.83600  0.43270  0.34220  Biso   1.000  H
  H47      1.0000 0.43270  0.16400  0.65780  Biso   1.000  H
  H48      1.0000 0.56730  0.83600  0.65780  Biso   1.000  H
  H49      1.0000 0.17760  0.06970  0.15640  Biso   1.000  H
  H50      1.0000 0.82240  0.93030  0.15640  Biso   1.000  H
  H51      1.0000 0.06970  0.82240  0.84360  Biso   1.000  H
  H52      1.0000 0.93030  0.17760  0.84360  Biso   1.000  H
  H53      1.0000 0.32240  0.56970  0.34360  Biso   1.000  H
  H54      1.0000 0.67760  0.43030  0.34360  Biso   1.000  H
  H55      1.0000 0.43030  0.32240  0.65640  Biso   1.000  H
  H56      1.0000 0.56970  0.67760  0.65640  Biso   1.000  H
  C41      1.0000 0.12670  0.17000  0.15880  Biso   1.000  C
  C42      1.0000 0.87330  0.83000  0.15880  Biso   1.000  C
  C43      1.0000 0.17000  0.87330  0.84120  Biso   1.000  C
  C44      1.0000 0.83000  0.12670  0.84120  Biso   1.000  C
  C45      1.0000 0.37330  0.67000  0.34120  Biso   1.000  C
  C46      1.0000 0.62670  0.33000  0.34120  Biso   1.000  C
  C47      1.0000 0.33000  0.37330  0.65880  Biso   1.000  C
  C48      1.0000 0.67000  0.62670  0.65880  Biso   1.000  C
  C49      1.0000 0.38030  0.16200  0.14150  Biso   1.000  C
  C50      1.0000 0.61970  0.83800  0.14150  Biso   1.000  C
  C51      1.0000 0.16200  0.61970  0.85850  Biso   1.000  C
  C52      1.0000 0.83800  0.38030  0.85850  Biso   1.000  C
  C53      1.0000 0.11970  0.66200  0.35850  Biso   1.000  C
  C54      1.0000 0.88030  0.33800  0.35850  Biso   1.000  C
  C55      1.0000 0.33800  0.11970  0.64150  Biso   1.000  C
  C56      1.0000 0.66200  0.88030  0.64150  Biso   1.000  C
  C57      1.0000 0.26800  0.37000  0.17700  Biso   1.000  C
  C58      1.0000 0.73200  0.63000  0.17700  Biso   1.000  C
  C59      1.0000 0.37000  0.73200  0.82300  Biso   1.000  C
  C60      1.0000 0.63000  0.26800  0.82300  Biso   1.000  C
  C61      1.0000 0.23200  0.87000  0.32300  Biso   1.000  C
  C62      1.0000 0.76800  0.13000  0.32300  Biso   1.000  C
  C63      1.0000 0.13000  0.23200  0.67700  Biso   1.000  C
  C64      1.0000 0.87000  0.76800  0.67700  Biso   1.000  C
  H57      1.0000 0.10250  0.18130  0.22330  Biso   1.000  H
  H58      1.0000 0.89750  0.81870  0.22330  Biso   1.000  H
  H59      1.0000 0.18130  0.89750  0.77670  Biso   1.000  H
  H60      1.0000 0.81870  0.10250  0.77670  Biso   1.000  H
  H61      1.0000 0.39750  0.68130  0.27670  Biso   1.000  H
  H62      1.0000 0.60250  0.31870  0.27670  Biso   1.000  H
  H63      1.0000 0.31870  0.39750  0.72330  Biso   1.000  H
  H64      1.0000 0.68130  0.60250  0.72330  Biso   1.000  H
  H65      1.0000 0.12990  0.07500  0.14250  Biso   1.000  H
  H66      1.0000 0.87010  0.92500  0.14250  Biso   1.000  H
  H67      1.0000 0.07500  0.87010  0.85750  Biso   1.000  H
  H68      1.0000 0.92500  0.12990  0.85750  Biso   1.000  H
  H69      1.0000 0.37010  0.57500  0.35750  Biso   1.000  H
  H70      1.0000 0.62990  0.42500  0.35750  Biso   1.000  H
  H71      1.0000 0.42500  0.37010  0.64250  Biso   1.000  H
  H72      1.0000 0.57500  0.62990  0.64250  Biso   1.000  H
  H73      1.0000 0.37190  0.07760  0.10820  Biso   1.000  H
  H74      1.0000 0.62810  0.92240  0.10820  Biso   1.000  H
  H75      1.0000 0.07760  0.62810  0.89180  Biso   1.000  H
  H76      1.0000 0.92240  0.37190  0.89180  Biso   1.000  H
  H77      1.0000 0.12810  0.57760  0.39180  Biso   1.000  H
  H78      1.0000 0.87190  0.42240  0.39180  Biso   1.000  H
  H79      1.0000 0.42240  0.12810  0.60820  Biso   1.000  H
  H80      1.0000 0.57760  0.87190  0.60820  Biso   1.000  H
  H81      1.0000 0.40190  0.14520  0.20580  Biso   1.000  H
  H82      1.0000 0.59810  0.85480  0.20580  Biso   1.000  H
  H83      1.0000 0.14520  0.59810  0.79420  Biso   1.000  H
  H84      1.0000 0.85480  0.40190  0.79420  Biso   1.000  H
  H85      1.0000 0.09810  0.64520  0.29420  Biso   1.000  H
  H86      1.0000 0.90190  0.35480  0.29420  Biso   1.000  H
  H87      1.0000 0.35480  0.09810  0.70580  Biso   1.000  H
  H88      1.0000 0.64520  0.90190  0.70580  Biso   1.000  H
  H89      1.0000 0.26290  0.35170  0.24220  Biso   1.000  H
  H90      1.0000 0.73710  0.64830  0.24220  Biso   1.000  H
  H91      1.0000 0.35170  0.73710  0.75780  Biso   1.000  H
  H92      1.0000 0.64830  0.26290  0.75780  Biso   1.000  H
  H93      1.0000 0.23710  0.85170  0.25780  Biso   1.000  H
  H94      1.0000 0.76290  0.14830  0.25780  Biso   1.000  H
  H95      1.0000 0.14830  0.23710  0.74220  Biso   1.000  H
  H96      1.0000 0.85170  0.76290  0.74220  Biso   1.000  H
  H97      1.0000 0.19370  0.42690  0.15940  Biso   1.000  H
  H98      1.0000 0.80630  0.57310  0.15940  Biso   1.000  H
  H99      1.0000 0.42690  0.80630  0.84060  Biso   1.000  H
  H100     1.0000 0.57310  0.19370  0.84060  Biso   1.000  H
  H101     1.0000 0.30630  0.92690  0.34060  Biso   1.000  H
  H102     1.0000 0.69370  0.07310  0.34060  Biso   1.000  H
  H103     1.0000 0.07310  0.30630  0.65940  Biso   1.000  H
  H104     1.0000 0.92690  0.69370  0.65940  Biso   1.000  H
  H105     1.0000 0.35150  0.41370  0.16300  Biso   1.000  H
  H106     1.0000 0.64850  0.58630  0.16300  Biso   1.000  H
  H107     1.0000 0.41370  0.64850  0.83700  Biso   1.000  H
  H108     1.0000 0.58630  0.35150  0.83700  Biso   1.000  H
  H109     1.0000 0.14850  0.91370  0.33700  Biso   1.000  H
  H110     1.0000 0.85150  0.08630  0.33700  Biso   1.000  H
  H111     1.0000 0.08630  0.14850  0.66300  Biso   1.000  H
  H112     1.0000 0.91370  0.85150  0.66300  Biso   1.000  H
