data_image0
_cell_length_a       7.466
_cell_length_b       17.498
_cell_length_c       8.72
_cell_angle_alpha    90
_cell_angle_beta     115.05
_cell_angle_gamma    90

_symmetry_space_group_name_H-M    "P 1"
_symmetry_int_tables_number       1

loop_
  _symmetry_equiv_pos_as_xyz
  'x, y, z'

loop_
  _atom_site_label
  _atom_site_occupancy
  _atom_site_fract_x
  _atom_site_fract_y
  _atom_site_fract_z
  _atom_site_thermal_displace_type
  _atom_site_B_iso_or_equiv
  _atom_site_type_symbol
  Cu1      1.0000 0.00000  0.00000  0.50000  Biso   1.000  Cu
  Cu2      1.0000 0.00000  0.50000  0.00000  Biso   1.000  Cu
  Cl1      1.0000 0.40051  0.96501  0.68546  Biso   1.000  Cl
  Cl2      1.0000 0.59949  0.46501  0.81454  Biso   1.000  Cl
  Cl3      1.0000 0.59949  0.03499  0.31454  Biso   1.000  Cl
  Cl4      1.0000 0.40051  0.53499  0.18546  Biso   1.000  Cl
  N1       1.0000 0.93510  0.89752  0.56751  Biso   1.000  N
  N2       1.0000 0.06490  0.39752  0.93249  Biso   1.000  N
  N3       1.0000 0.06490  0.10248  0.43249  Biso   1.000  N
  N4       1.0000 0.93510  0.60248  0.06751  Biso   1.000  N
  N5       1.0000 0.96980  0.77484  0.65140  Biso   1.000  N
  N6       1.0000 0.03020  0.27484  0.84860  Biso   1.000  N
  N7       1.0000 0.03020  0.22516  0.34860  Biso   1.000  N
  N8       1.0000 0.96980  0.72516  0.15140  Biso   1.000  N
  N9       1.0000 0.80800  0.80734  0.66063  Biso   1.000  N
  N10      1.0000 0.19200  0.30734  0.83937  Biso   1.000  N
  N11      1.0000 0.19200  0.19266  0.33937  Biso   1.000  N
  N12      1.0000 0.80800  0.69266  0.16063  Biso   1.000  N
  N13      1.0000 0.11620  0.59519  0.61460  Biso   1.000  N
  N14      1.0000 0.88380  0.09519  0.88540  Biso   1.000  N
  N15      1.0000 0.88380  0.40481  0.38540  Biso   1.000  N
  N16      1.0000 0.11620  0.90481  0.11460  Biso   1.000  N
  N17      1.0000 0.91760  0.58820  0.52251  Biso   1.000  N
  N18      1.0000 0.08240  0.08820  0.97749  Biso   1.000  N
  N19      1.0000 0.08240  0.41180  0.47749  Biso   1.000  N
  N20      1.0000 0.91760  0.91180  0.02251  Biso   1.000  N
  N21      1.0000 0.00840  0.54588  0.78857  Biso   1.000  N
  N22      1.0000 0.99160  0.04588  0.71143  Biso   1.000  N
  N23      1.0000 0.99160  0.45412  0.21143  Biso   1.000  N
  N24      1.0000 0.00840  0.95412  0.28857  Biso   1.000  N
  C1       1.0000 0.04150  0.83153  0.59460  Biso   1.000  C
  C2       1.0000 0.95850  0.33153  0.90540  Biso   1.000  C
  C3       1.0000 0.95850  0.16847  0.40540  Biso   1.000  C
  C4       1.0000 0.04150  0.66847  0.09460  Biso   1.000  C
  H1       1.0000 0.15650  0.82680  0.57440  Biso   1.000  H
  H2       1.0000 0.84350  0.32680  0.92560  Biso   1.000  H
  H3       1.0000 0.84350  0.17320  0.42560  Biso   1.000  H
  H4       1.0000 0.15650  0.67320  0.07440  Biso   1.000  H
  C5       1.0000 0.78940  0.88018  0.61180  Biso   1.000  C
  C6       1.0000 0.21060  0.38018  0.88820  Biso   1.000  C
  C7       1.0000 0.21060  0.11982  0.38820  Biso   1.000  C
  C8       1.0000 0.78940  0.61982  0.11180  Biso   1.000  C
  H5       1.0000 0.68890  0.91420  0.60910  Biso   1.000  H
  H6       1.0000 0.31110  0.41420  0.89090  Biso   1.000  H
  H7       1.0000 0.31110  0.08580  0.39090  Biso   1.000  H
  H8       1.0000 0.68890  0.58580  0.10910  Biso   1.000  H
  C9       1.0000 0.68550  0.76509  0.72490  Biso   1.000  C
  C10      1.0000 0.31450  0.26509  0.77510  Biso   1.000  C
  C11      1.0000 0.31450  0.23491  0.27510  Biso   1.000  C
  C12      1.0000 0.68550  0.73491  0.22490  Biso   1.000  C
  H9       1.0000 0.62520  0.80170  0.77590  Biso   1.000  H
  H10      1.0000 0.37480  0.30170  0.72410  Biso   1.000  H
  H11      1.0000 0.37480  0.19830  0.22410  Biso   1.000  H
  H12      1.0000 0.62520  0.69830  0.27590  Biso   1.000  H
  H13      1.0000 0.77090  0.73000  0.81540  Biso   1.000  H
  H14      1.0000 0.22910  0.23000  0.68460  Biso   1.000  H
  H15      1.0000 0.22910  0.27000  0.18460  Biso   1.000  H
  H16      1.0000 0.77090  0.77000  0.31540  Biso   1.000  H
  C13      1.0000 0.52270  0.71909  0.59030  Biso   1.000  C
  C14      1.0000 0.47730  0.21909  0.90970  Biso   1.000  C
  C15      1.0000 0.47730  0.28091  0.40970  Biso   1.000  C
  C16      1.0000 0.52270  0.78091  0.09030  Biso   1.000  C
  H17      1.0000 0.58030  0.68470  0.53290  Biso   1.000  H
  H18      1.0000 0.41970  0.18470  0.96710  Biso   1.000  H
  H19      1.0000 0.41970  0.31530  0.46710  Biso   1.000  H
  H20      1.0000 0.58030  0.81530  0.03290  Biso   1.000  H
  H21      1.0000 0.42890  0.75400  0.50440  Biso   1.000  H
  H22      1.0000 0.57110  0.25400  0.99560  Biso   1.000  H
  H23      1.0000 0.57110  0.24600  0.49560  Biso   1.000  H
  H24      1.0000 0.42890  0.74600  0.00440  Biso   1.000  H
  C17      1.0000 0.41330  0.67200  0.67060  Biso   1.000  C
  C18      1.0000 0.58670  0.17200  0.82940  Biso   1.000  C
  C19      1.0000 0.58670  0.32800  0.32940  Biso   1.000  C
  C20      1.0000 0.41330  0.82800  0.17060  Biso   1.000  C
  H25      1.0000 0.50560  0.63450  0.74990  Biso   1.000  H
  H26      1.0000 0.49440  0.13450  0.75010  Biso   1.000  H
  H27      1.0000 0.49440  0.36550  0.25010  Biso   1.000  H
  H28      1.0000 0.50560  0.86550  0.24990  Biso   1.000  H
  H29      1.0000 0.36650  0.70620  0.73640  Biso   1.000  H
  H30      1.0000 0.63350  0.20620  0.76360  Biso   1.000  H
  H31      1.0000 0.63350  0.29380  0.26360  Biso   1.000  H
  H32      1.0000 0.36650  0.79380  0.23640  Biso   1.000  H
  C21      1.0000 0.23790  0.62987  0.53900  Biso   1.000  C
  C22      1.0000 0.76210  0.12987  0.96100  Biso   1.000  C
  C23      1.0000 0.76210  0.37013  0.46100  Biso   1.000  C
  C24      1.0000 0.23790  0.87013  0.03900  Biso   1.000  C
  H33      1.0000 0.15650  0.66600  0.44920  Biso   1.000  H
  H34      1.0000 0.84350  0.16600  0.05080  Biso   1.000  H
  H35      1.0000 0.84350  0.33400  0.55080  Biso   1.000  H
  H36      1.0000 0.15650  0.83400  0.94920  Biso   1.000  H
  H37      1.0000 0.28600  0.58960  0.48610  Biso   1.000  H
  H38      1.0000 0.71400  0.08960  0.01390  Biso   1.000  H
  H39      1.0000 0.71400  0.41040  0.51390  Biso   1.000  H
  H40      1.0000 0.28600  0.91040  0.98610  Biso   1.000  H
  C25      1.0000 0.85810  0.55808  0.63200  Biso   1.000  C
  C26      1.0000 0.14190  0.05808  0.86800  Biso   1.000  C
  C27      1.0000 0.14190  0.44192  0.36800  Biso   1.000  C
  C28      1.0000 0.85810  0.94192  0.13200  Biso   1.000  C
  H41      1.0000 0.72390  0.54610  0.60460  Biso   1.000  H
  H42      1.0000 0.27610  0.04610  0.89540  Biso   1.000  H
  H43      1.0000 0.27610  0.45390  0.39540  Biso   1.000  H
  H44      1.0000 0.72390  0.95390  0.10460  Biso   1.000  H
  C29      1.0000 0.16860  0.56984  0.77150  Biso   1.000  C
  C30      1.0000 0.83140  0.06984  0.72850  Biso   1.000  C
  C31      1.0000 0.83140  0.43016  0.22850  Biso   1.000  C
  C32      1.0000 0.16860  0.93016  0.27150  Biso   1.000  C
  H45      1.0000 0.29970  0.56890  0.85800  Biso   1.000  H
  H46      1.0000 0.70030  0.06890  0.64200  Biso   1.000  H
  H47      1.0000 0.70030  0.43110  0.14200  Biso   1.000  H
  H48      1.0000 0.29970  0.93110  0.35800  Biso   1.000  H
