data_image0
_cell_length_a       7.447
_cell_length_b       17.601
_cell_length_c       8.716
_cell_angle_alpha    90
_cell_angle_beta     114.85
_cell_angle_gamma    90

_symmetry_space_group_name_H-M    "P 1"
_symmetry_int_tables_number       1

loop_
  _symmetry_equiv_pos_as_xyz
  'x, y, z'

loop_
  _atom_site_label
  _atom_site_occupancy
  _atom_site_fract_x
  _atom_site_fract_y
  _atom_site_fract_z
  _atom_site_thermal_displace_type
  _atom_site_B_iso_or_equiv
  _atom_site_type_symbol
  Cu1      1.0000 0.50000  0.50000  0.00000  Biso   1.000  Cu
  Cu2      1.0000 0.50000  0.00000  0.50000  Biso   1.000  Cu
  C1       1.0000 0.53670  0.66670  0.09560  Biso   1.000  C
  C2       1.0000 0.46330  0.16670  0.40440  Biso   1.000  C
  C3       1.0000 0.46330  0.33330  0.90440  Biso   1.000  C
  C4       1.0000 0.53670  0.83330  0.59560  Biso   1.000  C
  H1       1.0000 0.64970  0.67180  0.07610  Biso   1.000  H
  H2       1.0000 0.35030  0.17180  0.42390  Biso   1.000  H
  H3       1.0000 0.35030  0.32820  0.92390  Biso   1.000  H
  H4       1.0000 0.64970  0.82820  0.57610  Biso   1.000  H
  C5       1.0000 0.28750  0.61820  0.11370  Biso   1.000  C
  C6       1.0000 0.71250  0.11820  0.38630  Biso   1.000  C
  C7       1.0000 0.71250  0.38180  0.88630  Biso   1.000  C
  C8       1.0000 0.28750  0.88180  0.61370  Biso   1.000  C
  H5       1.0000 0.18980  0.58480  0.11190  Biso   1.000  H
  H6       1.0000 0.81020  0.08480  0.38810  Biso   1.000  H
  H7       1.0000 0.81020  0.41520  0.88810  Biso   1.000  H
  H8       1.0000 0.18980  0.91520  0.61190  Biso   1.000  H
  C9       1.0000 0.18270  0.73110  0.22700  Biso   1.000  C
  C10      1.0000 0.81730  0.23110  0.27300  Biso   1.000  C
  C11      1.0000 0.81730  0.26890  0.77300  Biso   1.000  C
  C12      1.0000 0.18270  0.76890  0.72700  Biso   1.000  C
  H9       1.0000 0.26680  0.76350  0.31920  Biso   1.000  H
  H10      1.0000 0.73320  0.26350  0.18080  Biso   1.000  H
  H11      1.0000 0.73320  0.23650  0.68080  Biso   1.000  H
  H12      1.0000 0.26680  0.73650  0.81920  Biso   1.000  H
  H13      1.0000 0.11860  0.69510  0.27190  Biso   1.000  H
  H14      1.0000 0.88140  0.19510  0.22810  Biso   1.000  H
  H15      1.0000 0.88140  0.30490  0.72810  Biso   1.000  H
  H16      1.0000 0.11860  0.80490  0.77190  Biso   1.000  H
  H17      1.0000 0.93520  0.74690  0.00610  Biso   1.000  H
  H18      1.0000 0.06480  0.24690  0.49390  Biso   1.000  H
  H19      1.0000 0.06480  0.25310  0.99390  Biso   1.000  H
  H20      1.0000 0.93520  0.75310  0.50610  Biso   1.000  H
  H21      1.0000 0.08890  0.81330  0.04360  Biso   1.000  H
  H22      1.0000 0.91110  0.31330  0.45640  Biso   1.000  H
  H23      1.0000 0.91110  0.18670  0.95640  Biso   1.000  H
  H24      1.0000 0.08890  0.68670  0.54360  Biso   1.000  H
  C13      1.0000 0.02660  0.77930  0.09440  Biso   1.000  C
  C14      1.0000 0.97340  0.27930  0.40560  Biso   1.000  C
  C15      1.0000 0.97340  0.22070  0.90560  Biso   1.000  C
  C16      1.0000 0.02660  0.72070  0.59440  Biso   1.000  C
  C17      1.0000 0.91410  0.82550  0.17400  Biso   1.000  C
  C18      1.0000 0.08590  0.32550  0.32600  Biso   1.000  C
  C19      1.0000 0.08590  0.17450  0.82600  Biso   1.000  C
  C20      1.0000 0.91410  0.67450  0.67400  Biso   1.000  C
  H25      1.0000 0.86200  0.79140  0.23290  Biso   1.000  H
  H26      1.0000 0.13800  0.29140  0.26710  Biso   1.000  H
  H27      1.0000 0.13800  0.20860  0.76710  Biso   1.000  H
  H28      1.0000 0.86200  0.70860  0.73290  Biso   1.000  H
  H29      1.0000 0.00500  0.86030  0.25660  Biso   1.000  H
  H30      1.0000 0.99500  0.36030  0.24340  Biso   1.000  H
  H31      1.0000 0.99500  0.13970  0.74340  Biso   1.000  H
  H32      1.0000 0.00500  0.63970  0.75660  Biso   1.000  H
  C21      1.0000 0.74650  0.87000  0.04450  Biso   1.000  C
  C22      1.0000 0.25350  0.37000  0.45550  Biso   1.000  C
  C23      1.0000 0.25350  0.13000  0.95550  Biso   1.000  C
  C24      1.0000 0.74650  0.63000  0.54450  Biso   1.000  C
  H33      1.0000 0.79970  0.90960  0.99810  Biso   1.000  H
  H34      1.0000 0.20030  0.40960  0.50190  Biso   1.000  H
  H35      1.0000 0.20030  0.09040  0.00190  Biso   1.000  H
  H36      1.0000 0.79970  0.59040  0.49810  Biso   1.000  H
  H37      1.0000 0.66650  0.83650  0.95280  Biso   1.000  H
  H38      1.0000 0.33350  0.33650  0.54720  Biso   1.000  H
  H39      1.0000 0.33350  0.16350  0.04720  Biso   1.000  H
  H40      1.0000 0.66650  0.66350  0.45280  Biso   1.000  H
  C25      1.0000 0.67170  0.92920  0.27420  Biso   1.000  C
  C26      1.0000 0.32830  0.42920  0.22580  Biso   1.000  C
  C27      1.0000 0.32830  0.07080  0.72580  Biso   1.000  C
  C28      1.0000 0.67170  0.57080  0.77420  Biso   1.000  C
  H41      1.0000 0.79960  0.92960  0.35970  Biso   1.000  H
  H42      1.0000 0.20040  0.42960  0.14030  Biso   1.000  H
  H43      1.0000 0.20040  0.07040  0.64030  Biso   1.000  H
  H44      1.0000 0.79960  0.57040  0.85970  Biso   1.000  H
  C29      1.0000 0.36640  0.94130  0.13510  Biso   1.000  C
  C30      1.0000 0.63360  0.44130  0.36490  Biso   1.000  C
  C31      1.0000 0.63360  0.05870  0.86490  Biso   1.000  C
  C32      1.0000 0.36640  0.55870  0.63510  Biso   1.000  C
  H45      1.0000 0.23430  0.95280  0.10700  Biso   1.000  H
  H46      1.0000 0.76570  0.45280  0.39300  Biso   1.000  H
  H47      1.0000 0.76570  0.04720  0.89300  Biso   1.000  H
  H48      1.0000 0.23430  0.54720  0.60700  Biso   1.000  H
  Cl1      1.0000 0.89995  0.53507  0.18906  Biso   1.000  Cl
  Cl2      1.0000 0.10005  0.03507  0.31094  Biso   1.000  Cl
  Cl3      1.0000 0.10005  0.46493  0.81094  Biso   1.000  Cl
  Cl4      1.0000 0.89995  0.96493  0.68906  Biso   1.000  Cl
  N1       1.0000 0.43270  0.60123  0.06760  Biso   1.000  N
  N2       1.0000 0.56730  0.10123  0.43240  Biso   1.000  N
  N3       1.0000 0.56730  0.39877  0.93240  Biso   1.000  N
  N4       1.0000 0.43270  0.89877  0.56760  Biso   1.000  N
  N5       1.0000 0.30520  0.68970  0.16190  Biso   1.000  N
  N6       1.0000 0.69480  0.18970  0.33810  Biso   1.000  N
  N7       1.0000 0.69480  0.31030  0.83810  Biso   1.000  N
  N8       1.0000 0.30520  0.81030  0.66190  Biso   1.000  N
  N9       1.0000 0.46470  0.72270  0.15250  Biso   1.000  N
  N10      1.0000 0.53530  0.22270  0.34750  Biso   1.000  N
  N11      1.0000 0.53530  0.27730  0.84750  Biso   1.000  N
  N12      1.0000 0.46470  0.77730  0.65250  Biso   1.000  N
  N13      1.0000 0.62290  0.90420  0.11850  Biso   1.000  N
  N14      1.0000 0.37710  0.40420  0.38150  Biso   1.000  N
  N15      1.0000 0.37710  0.09580  0.88150  Biso   1.000  N
  N16      1.0000 0.62290  0.59580  0.61850  Biso   1.000  N
  N17      1.0000 0.42750  0.91160  0.02620  Biso   1.000  N
  N18      1.0000 0.57250  0.41160  0.47380  Biso   1.000  N
  N19      1.0000 0.57250  0.08840  0.97380  Biso   1.000  N
  N20      1.0000 0.42750  0.58840  0.52620  Biso   1.000  N
  N21      1.0000 0.51190  0.95373  0.29110  Biso   1.000  N
  N22      1.0000 0.48810  0.45373  0.20890  Biso   1.000  N
  N23      1.0000 0.48810  0.04627  0.70890  Biso   1.000  N
  N24      1.0000 0.51190  0.54627  0.79110  Biso   1.000  N
