data_image0
_cell_length_a       20.189
_cell_length_b       19.672
_cell_length_c       13.11
_cell_angle_alpha    90
_cell_angle_beta     113.56
_cell_angle_gamma    90

_symmetry_space_group_name_H-M    "P 1"
_symmetry_int_tables_number       1

loop_
  _symmetry_equiv_pos_as_xyz
  'x, y, z'

loop_
  _atom_site_label
  _atom_site_occupancy
  _atom_site_fract_x
  _atom_site_fract_y
  _atom_site_fract_z
  _atom_site_thermal_displace_type
  _atom_site_B_iso_or_equiv
  _atom_site_type_symbol
  Cu1      1.0000 0.75000  0.25000  0.00000  Biso   1.000  Cu
  Cu2      1.0000 0.25000  0.25000  0.50000  Biso   1.000  Cu
  Cu3      1.0000 0.25000  0.75000  0.00000  Biso   1.000  Cu
  Cu4      1.0000 0.75000  0.75000  0.50000  Biso   1.000  Cu
  Mn1      1.0000 0.00000  0.12373  0.25000  Biso   1.000  Mn
  Mn2      1.0000 0.50000  0.62373  0.25000  Biso   1.000  Mn
  Mn3      1.0000 0.00000  0.87627  0.75000  Biso   1.000  Mn
  Mn4      1.0000 0.50000  0.37627  0.75000  Biso   1.000  Mn
  O1       1.0000 0.89151  0.13685  0.23840  Biso   1.000  O
  O2       1.0000 0.10849  0.13685  0.26160  Biso   1.000  O
  O3       1.0000 0.39151  0.63685  0.23840  Biso   1.000  O
  O4       1.0000 0.60849  0.63685  0.26160  Biso   1.000  O
  O5       1.0000 0.10849  0.86315  0.76160  Biso   1.000  O
  O6       1.0000 0.89151  0.86315  0.73840  Biso   1.000  O
  O7       1.0000 0.60849  0.36315  0.76160  Biso   1.000  O
  O8       1.0000 0.39151  0.36315  0.73840  Biso   1.000  O
  N1       1.0000 0.78444  0.18780  0.12460  Biso   1.000  N
  N2       1.0000 0.21556  0.18780  0.37540  Biso   1.000  N
  N3       1.0000 0.28444  0.68780  0.12460  Biso   1.000  N
  N4       1.0000 0.71556  0.68780  0.37540  Biso   1.000  N
  N5       1.0000 0.21556  0.81220  0.87540  Biso   1.000  N
  N6       1.0000 0.78444  0.81220  0.62460  Biso   1.000  N
  N7       1.0000 0.71556  0.31220  0.87540  Biso   1.000  N
  N8       1.0000 0.28444  0.31220  0.62460  Biso   1.000  N
  C1       1.0000 0.85353  0.17446  0.16020  Biso   1.000  C
  C2       1.0000 0.14647  0.17446  0.33980  Biso   1.000  C
  C3       1.0000 0.35353  0.67446  0.16020  Biso   1.000  C
  C4       1.0000 0.64647  0.67446  0.33980  Biso   1.000  C
  C5       1.0000 0.14647  0.82554  0.83980  Biso   1.000  C
  C6       1.0000 0.85353  0.82554  0.66020  Biso   1.000  C
  C7       1.0000 0.64647  0.32554  0.83980  Biso   1.000  C
  C8       1.0000 0.35353  0.32554  0.66020  Biso   1.000  C
  O9       1.0000 0.95509  0.20139  0.11890  Biso   1.000  O
  O10      1.0000 0.04491  0.20139  0.38110  Biso   1.000  O
  O11      1.0000 0.45509  0.70139  0.11890  Biso   1.000  O
  O12      1.0000 0.54491  0.70139  0.38110  Biso   1.000  O
  O13      1.0000 0.04491  0.79861  0.88110  Biso   1.000  O
  O14      1.0000 0.95509  0.79861  0.61890  Biso   1.000  O
  O15      1.0000 0.54491  0.29861  0.88110  Biso   1.000  O
  O16      1.0000 0.45509  0.29861  0.61890  Biso   1.000  O
  C9       1.0000 0.74342  0.15651  0.17860  Biso   1.000  C
  C10      1.0000 0.25658  0.15651  0.32140  Biso   1.000  C
  C11      1.0000 0.24342  0.65651  0.17860  Biso   1.000  C
  C12      1.0000 0.75658  0.65651  0.32140  Biso   1.000  C
  C13      1.0000 0.25658  0.84349  0.82140  Biso   1.000  C
  C14      1.0000 0.74342  0.84349  0.67860  Biso   1.000  C
  C15      1.0000 0.75658  0.34349  0.82140  Biso   1.000  C
  C16      1.0000 0.24342  0.34349  0.67860  Biso   1.000  C
  C17      1.0000 0.88980  0.21320  0.09290  Biso   1.000  C
  C18      1.0000 0.11020  0.21320  0.40710  Biso   1.000  C
  C19      1.0000 0.38980  0.71320  0.09290  Biso   1.000  C
  C20      1.0000 0.61020  0.71320  0.40710  Biso   1.000  C
  C21      1.0000 0.11020  0.78680  0.90710  Biso   1.000  C
  C22      1.0000 0.88980  0.78680  0.59290  Biso   1.000  C
  C23      1.0000 0.61020  0.28680  0.90710  Biso   1.000  C
  C24      1.0000 0.38980  0.28680  0.59290  Biso   1.000  C
  O17      1.0000 0.85030  0.25139  0.01640  Biso   1.000  O
  O18      1.0000 0.14970  0.25139  0.48360  Biso   1.000  O
  O19      1.0000 0.35030  0.75139  0.01640  Biso   1.000  O
  O20      1.0000 0.64970  0.75139  0.48360  Biso   1.000  O
  O21      1.0000 0.14970  0.74861  0.98360  Biso   1.000  O
  O22      1.0000 0.85030  0.74861  0.51640  Biso   1.000  O
  O23      1.0000 0.64970  0.24861  0.98360  Biso   1.000  O
  O24      1.0000 0.35030  0.24861  0.51640  Biso   1.000  O
  C25      1.0000 0.71940  0.08890  0.14740  Biso   1.000  C
  C26      1.0000 0.28060  0.08890  0.35260  Biso   1.000  C
  C27      1.0000 0.21940  0.58890  0.14740  Biso   1.000  C
  C28      1.0000 0.78060  0.58890  0.35260  Biso   1.000  C
  C29      1.0000 0.28060  0.91110  0.85260  Biso   1.000  C
  C30      1.0000 0.71940  0.91110  0.64740  Biso   1.000  C
  C31      1.0000 0.78060  0.41110  0.85260  Biso   1.000  C
  C32      1.0000 0.21940  0.41110  0.64740  Biso   1.000  C
  C33      1.0000 0.72500  0.19340  0.25290  Biso   1.000  C
  C34      1.0000 0.27500  0.19340  0.24710  Biso   1.000  C
  C35      1.0000 0.22500  0.69340  0.25290  Biso   1.000  C
  C36      1.0000 0.77500  0.69340  0.24710  Biso   1.000  C
  C37      1.0000 0.27500  0.80660  0.74710  Biso   1.000  C
  C38      1.0000 0.72500  0.80660  0.75290  Biso   1.000  C
  C39      1.0000 0.77500  0.30660  0.74710  Biso   1.000  C
  C40      1.0000 0.22500  0.30660  0.75290  Biso   1.000  C
  C41      1.0000 0.67850  0.05970  0.19870  Biso   1.000  C
  C42      1.0000 0.32150  0.05970  0.30130  Biso   1.000  C
  C43      1.0000 0.17850  0.55970  0.19870  Biso   1.000  C
  C44      1.0000 0.82150  0.55970  0.30130  Biso   1.000  C
  C45      1.0000 0.32150  0.94030  0.80130  Biso   1.000  C
  C46      1.0000 0.67850  0.94030  0.69870  Biso   1.000  C
  C47      1.0000 0.82150  0.44030  0.80130  Biso   1.000  C
  C48      1.0000 0.17850  0.44030  0.69870  Biso   1.000  C
  H1       1.0000 0.66390  0.01470  0.18220  Biso   1.000  H
  H2       1.0000 0.33610  0.01470  0.31780  Biso   1.000  H
  H3       1.0000 0.16390  0.51470  0.18220  Biso   1.000  H
  H4       1.0000 0.83610  0.51470  0.31780  Biso   1.000  H
  H5       1.0000 0.33610  0.98530  0.81780  Biso   1.000  H
  H6       1.0000 0.66390  0.98530  0.68220  Biso   1.000  H
  H7       1.0000 0.83610  0.48530  0.81780  Biso   1.000  H
  H8       1.0000 0.16390  0.48530  0.68220  Biso   1.000  H
  C49      1.0000 0.65890  0.09310  0.27100  Biso   1.000  C
  C50      1.0000 0.34110  0.09310  0.22900  Biso   1.000  C
  C51      1.0000 0.15890  0.59310  0.27100  Biso   1.000  C
  C52      1.0000 0.84110  0.59310  0.22900  Biso   1.000  C
  C53      1.0000 0.34110  0.90690  0.72900  Biso   1.000  C
  C54      1.0000 0.65890  0.90690  0.77100  Biso   1.000  C
  C55      1.0000 0.84110  0.40690  0.72900  Biso   1.000  C
  C56      1.0000 0.15890  0.40690  0.77100  Biso   1.000  C
  H9       1.0000 0.62920  0.07200  0.30050  Biso   1.000  H
  H10      1.0000 0.37080  0.07200  0.19950  Biso   1.000  H
  H11      1.0000 0.12920  0.57200  0.30050  Biso   1.000  H
  H12      1.0000 0.87080  0.57200  0.19950  Biso   1.000  H
  H13      1.0000 0.37080  0.92800  0.69950  Biso   1.000  H
  H14      1.0000 0.62920  0.92800  0.80050  Biso   1.000  H
  H15      1.0000 0.87080  0.42800  0.69950  Biso   1.000  H
  H16      1.0000 0.12920  0.42800  0.80050  Biso   1.000  H
  C57      1.0000 0.68170  0.15660  0.30100  Biso   1.000  C
  C58      1.0000 0.31830  0.15660  0.19900  Biso   1.000  C
  C59      1.0000 0.18170  0.65660  0.30100  Biso   1.000  C
  C60      1.0000 0.81830  0.65660  0.19900  Biso   1.000  C
  C61      1.0000 0.31830  0.84340  0.69900  Biso   1.000  C
  C62      1.0000 0.68170  0.84340  0.80100  Biso   1.000  C
  C63      1.0000 0.81830  0.34340  0.69900  Biso   1.000  C
  C64      1.0000 0.18170  0.34340  0.80100  Biso   1.000  C
  H17      1.0000 0.66960  0.17820  0.35430  Biso   1.000  H
  H18      1.0000 0.33040  0.17820  0.14570  Biso   1.000  H
  H19      1.0000 0.16960  0.67820  0.35430  Biso   1.000  H
  H20      1.0000 0.83040  0.67820  0.14570  Biso   1.000  H
  H21      1.0000 0.33040  0.82180  0.64570  Biso   1.000  H
  H22      1.0000 0.66960  0.82180  0.85430  Biso   1.000  H
  H23      1.0000 0.83040  0.32180  0.64570  Biso   1.000  H
  H24      1.0000 0.16960  0.32180  0.85430  Biso   1.000  H
  C65      1.0000 0.73990  0.05060  0.06110  Biso   1.000  C
  C66      1.0000 0.26010  0.05060  0.43890  Biso   1.000  C
  C67      1.0000 0.23990  0.55060  0.06110  Biso   1.000  C
  C68      1.0000 0.76010  0.55060  0.43890  Biso   1.000  C
  C69      1.0000 0.26010  0.94940  0.93890  Biso   1.000  C
  C70      1.0000 0.73990  0.94940  0.56110  Biso   1.000  C
  C71      1.0000 0.76010  0.44940  0.93890  Biso   1.000  C
  C72      1.0000 0.23990  0.44940  0.56110  Biso   1.000  C
  H25      1.0000 0.78780  0.06720  0.07080  Biso   1.000  H
  H26      1.0000 0.21220  0.06720  0.42920  Biso   1.000  H
  H27      1.0000 0.28780  0.56720  0.07080  Biso   1.000  H
  H28      1.0000 0.71220  0.56720  0.42920  Biso   1.000  H
  H29      1.0000 0.21220  0.93280  0.92920  Biso   1.000  H
  H30      1.0000 0.78780  0.93280  0.57080  Biso   1.000  H
  H31      1.0000 0.71220  0.43280  0.92920  Biso   1.000  H
  H32      1.0000 0.28780  0.43280  0.57080  Biso   1.000  H
  C73      1.0000 0.74310  0.26440  0.27850  Biso   1.000  C
  C74      1.0000 0.25690  0.26440  0.22150  Biso   1.000  C
  C75      1.0000 0.24310  0.76440  0.27850  Biso   1.000  C
  C76      1.0000 0.75690  0.76440  0.22150  Biso   1.000  C
  C77      1.0000 0.25690  0.73560  0.72150  Biso   1.000  C
  C78      1.0000 0.74310  0.73560  0.77850  Biso   1.000  C
  C79      1.0000 0.75690  0.23560  0.72150  Biso   1.000  C
  C80      1.0000 0.24310  0.23560  0.77850  Biso   1.000  C
  H33      1.0000 0.74820  0.28390  0.21330  Biso   1.000  H
  H34      1.0000 0.25180  0.28390  0.28670  Biso   1.000  H
  H35      1.0000 0.24820  0.78390  0.21330  Biso   1.000  H
  H36      1.0000 0.75180  0.78390  0.28670  Biso   1.000  H
  H37      1.0000 0.25180  0.71610  0.78670  Biso   1.000  H
  H38      1.0000 0.74820  0.71610  0.71330  Biso   1.000  H
  H39      1.0000 0.75180  0.21610  0.78670  Biso   1.000  H
  H40      1.0000 0.24820  0.21610  0.71330  Biso   1.000  H
  C81      1.0000 0.68810  0.06900  0.94010  Biso   1.000  C
  C82      1.0000 0.31190  0.06900  0.55990  Biso   1.000  C
  C83      1.0000 0.18810  0.56900  0.94010  Biso   1.000  C
  C84      1.0000 0.81190  0.56900  0.55990  Biso   1.000  C
  C85      1.0000 0.31190  0.93100  0.05990  Biso   1.000  C
  C86      1.0000 0.68810  0.93100  0.44010  Biso   1.000  C
  C87      1.0000 0.81190  0.43100  0.05990  Biso   1.000  C
  C88      1.0000 0.18810  0.43100  0.44010  Biso   1.000  C
  H41      1.0000 0.68560  0.11750  0.93160  Biso   1.000  H
  H42      1.0000 0.31440  0.11750  0.56840  Biso   1.000  H
  H43      1.0000 0.18560  0.61750  0.93160  Biso   1.000  H
  H44      1.0000 0.81440  0.61750  0.56840  Biso   1.000  H
  H45      1.0000 0.31440  0.88250  0.06840  Biso   1.000  H
  H46      1.0000 0.68560  0.88250  0.43160  Biso   1.000  H
  H47      1.0000 0.81440  0.38250  0.06840  Biso   1.000  H
  H48      1.0000 0.18560  0.38250  0.43160  Biso   1.000  H
  H49      1.0000 0.64080  0.05140  0.92520  Biso   1.000  H
  H50      1.0000 0.35920  0.05140  0.57480  Biso   1.000  H
  H51      1.0000 0.14080  0.55140  0.92520  Biso   1.000  H
  H52      1.0000 0.85920  0.55140  0.57480  Biso   1.000  H
  H53      1.0000 0.35920  0.94860  0.07480  Biso   1.000  H
  H54      1.0000 0.64080  0.94860  0.42520  Biso   1.000  H
  H55      1.0000 0.85920  0.44860  0.07480  Biso   1.000  H
  H56      1.0000 0.14080  0.44860  0.42520  Biso   1.000  H
  H57      1.0000 0.70590  0.04940  0.88890  Biso   1.000  H
  H58      1.0000 0.29410  0.04940  0.61110  Biso   1.000  H
  H59      1.0000 0.20590  0.54940  0.88890  Biso   1.000  H
  H60      1.0000 0.79410  0.54940  0.61110  Biso   1.000  H
  H61      1.0000 0.29410  0.95060  0.11110  Biso   1.000  H
  H62      1.0000 0.70590  0.95060  0.38890  Biso   1.000  H
  H63      1.0000 0.79410  0.45060  0.11110  Biso   1.000  H
  H64      1.0000 0.20590  0.45060  0.38890  Biso   1.000  H
  C89      1.0000 0.74600  0.97570  0.07310  Biso   1.000  C
  C90      1.0000 0.25400  0.97570  0.42690  Biso   1.000  C
  C91      1.0000 0.24600  0.47570  0.07310  Biso   1.000  C
  C92      1.0000 0.75400  0.47570  0.42690  Biso   1.000  C
  C93      1.0000 0.25400  0.02430  0.92690  Biso   1.000  C
  C94      1.0000 0.74600  0.02430  0.57310  Biso   1.000  C
  C95      1.0000 0.75400  0.52430  0.92690  Biso   1.000  C
  C96      1.0000 0.24600  0.52430  0.57310  Biso   1.000  C
  H65      1.0000 0.77870  0.96440  0.14750  Biso   1.000  H
  H66      1.0000 0.22130  0.96440  0.35250  Biso   1.000  H
  H67      1.0000 0.27870  0.46440  0.14750  Biso   1.000  H
  H68      1.0000 0.72130  0.46440  0.35250  Biso   1.000  H
  H69      1.0000 0.22130  0.03560  0.85250  Biso   1.000  H
  H70      1.0000 0.77870  0.03560  0.64750  Biso   1.000  H
  H71      1.0000 0.72130  0.53560  0.85250  Biso   1.000  H
  H72      1.0000 0.27870  0.53560  0.64750  Biso   1.000  H
  H73      1.0000 0.76400  0.95760  0.02120  Biso   1.000  H
  H74      1.0000 0.23600  0.95760  0.47880  Biso   1.000  H
  H75      1.0000 0.26400  0.45760  0.02120  Biso   1.000  H
  H76      1.0000 0.73600  0.45760  0.47880  Biso   1.000  H
  H77      1.0000 0.23600  0.04240  0.97880  Biso   1.000  H
  H78      1.0000 0.76400  0.04240  0.52120  Biso   1.000  H
  H79      1.0000 0.73600  0.54240  0.97880  Biso   1.000  H
  H80      1.0000 0.26400  0.54240  0.52120  Biso   1.000  H
  H81      1.0000 0.69930  0.95660  0.05850  Biso   1.000  H
  H82      1.0000 0.30070  0.95660  0.44150  Biso   1.000  H
  H83      1.0000 0.19930  0.45660  0.05850  Biso   1.000  H
  H84      1.0000 0.80070  0.45660  0.44150  Biso   1.000  H
  H85      1.0000 0.30070  0.04340  0.94150  Biso   1.000  H
  H86      1.0000 0.69930  0.04340  0.55850  Biso   1.000  H
  H87      1.0000 0.80070  0.54340  0.94150  Biso   1.000  H
  H88      1.0000 0.19930  0.54340  0.55850  Biso   1.000  H
  C97      1.0000 0.68690  0.30660  0.29790  Biso   1.000  C
  C98      1.0000 0.31310  0.30660  0.20210  Biso   1.000  C
  C99      1.0000 0.18690  0.80660  0.29790  Biso   1.000  C
  C100     1.0000 0.81310  0.80660  0.20210  Biso   1.000  C
  C101     1.0000 0.31310  0.69340  0.70210  Biso   1.000  C
  C102     1.0000 0.68690  0.69340  0.79790  Biso   1.000  C
  C103     1.0000 0.81310  0.19340  0.70210  Biso   1.000  C
  C104     1.0000 0.18690  0.19340  0.79790  Biso   1.000  C
  H89      1.0000 0.70360  0.35270  0.31350  Biso   1.000  H
  H90      1.0000 0.29640  0.35270  0.18650  Biso   1.000  H
  H91      1.0000 0.20360  0.85270  0.31350  Biso   1.000  H
  H92      1.0000 0.79640  0.85270  0.18650  Biso   1.000  H
  H93      1.0000 0.29640  0.64730  0.68650  Biso   1.000  H
  H94      1.0000 0.70360  0.64730  0.81350  Biso   1.000  H
  H95      1.0000 0.79640  0.14730  0.68650  Biso   1.000  H
  H96      1.0000 0.20360  0.14730  0.81350  Biso   1.000  H
  H97      1.0000 0.67880  0.28850  0.36000  Biso   1.000  H
  H98      1.0000 0.32120  0.28850  0.14000  Biso   1.000  H
  H99      1.0000 0.17880  0.78850  0.36000  Biso   1.000  H
  H100     1.0000 0.82120  0.78850  0.14000  Biso   1.000  H
  H101     1.0000 0.32120  0.71150  0.64000  Biso   1.000  H
  H102     1.0000 0.67880  0.71150  0.86000  Biso   1.000  H
  H103     1.0000 0.82120  0.21150  0.64000  Biso   1.000  H
  H104     1.0000 0.17880  0.21150  0.86000  Biso   1.000  H
  H105     1.0000 0.64260  0.30550  0.23260  Biso   1.000  H
  H106     1.0000 0.35740  0.30550  0.26740  Biso   1.000  H
  H107     1.0000 0.14260  0.80550  0.23260  Biso   1.000  H
  H108     1.0000 0.85740  0.80550  0.26740  Biso   1.000  H
  H109     1.0000 0.35740  0.69450  0.76740  Biso   1.000  H
  H110     1.0000 0.64260  0.69450  0.73260  Biso   1.000  H
  H111     1.0000 0.85740  0.19450  0.76740  Biso   1.000  H
  H112     1.0000 0.14260  0.19450  0.73260  Biso   1.000  H
  C105     1.0000 0.81130  0.27410  0.37050  Biso   1.000  C
  C106     1.0000 0.18870  0.27410  0.12950  Biso   1.000  C
  C107     1.0000 0.31130  0.77410  0.37050  Biso   1.000  C
  C108     1.0000 0.68870  0.77410  0.12950  Biso   1.000  C
  C109     1.0000 0.18870  0.72590  0.62950  Biso   1.000  C
  C110     1.0000 0.81130  0.72590  0.87050  Biso   1.000  C
  C111     1.0000 0.68870  0.22590  0.62950  Biso   1.000  C
  C112     1.0000 0.31130  0.22590  0.87050  Biso   1.000  C
  H113     1.0000 0.82120  0.32180  0.38230  Biso   1.000  H
  H114     1.0000 0.17880  0.32180  0.11770  Biso   1.000  H
  H115     1.0000 0.32120  0.82180  0.38230  Biso   1.000  H
  H116     1.0000 0.67880  0.82180  0.11770  Biso   1.000  H
  H117     1.0000 0.17880  0.67820  0.61770  Biso   1.000  H
  H118     1.0000 0.82120  0.67820  0.88230  Biso   1.000  H
  H119     1.0000 0.67880  0.17820  0.61770  Biso   1.000  H
  H120     1.0000 0.32120  0.17820  0.88230  Biso   1.000  H
  H121     1.0000 0.84880  0.25270  0.35460  Biso   1.000  H
  H122     1.0000 0.15120  0.25270  0.14540  Biso   1.000  H
  H123     1.0000 0.34880  0.75270  0.35460  Biso   1.000  H
  H124     1.0000 0.65120  0.75270  0.14540  Biso   1.000  H
  H125     1.0000 0.15120  0.74730  0.64540  Biso   1.000  H
  H126     1.0000 0.84880  0.74730  0.85460  Biso   1.000  H
  H127     1.0000 0.65120  0.24730  0.64540  Biso   1.000  H
  H128     1.0000 0.34880  0.24730  0.85460  Biso   1.000  H
  H129     1.0000 0.80950  0.25430  0.43630  Biso   1.000  H
  H130     1.0000 0.19050  0.25430  0.06370  Biso   1.000  H
  H131     1.0000 0.30950  0.75430  0.43630  Biso   1.000  H
  H132     1.0000 0.69050  0.75430  0.06370  Biso   1.000  H
  H133     1.0000 0.19050  0.74570  0.56370  Biso   1.000  H
  H134     1.0000 0.80950  0.74570  0.93630  Biso   1.000  H
  H135     1.0000 0.69050  0.24570  0.56370  Biso   1.000  H
  H136     1.0000 0.30950  0.24570  0.93630  Biso   1.000  H
  N9       1.0000 0.90850  0.96820  0.99900  Biso   1.000  N
  N10      1.0000 0.09150  0.96820  0.50100  Biso   1.000  N
  N11      1.0000 0.40850  0.46820  0.99900  Biso   1.000  N
  N12      1.0000 0.59150  0.46820  0.50100  Biso   1.000  N
  N13      1.0000 0.09150  0.03180  0.00100  Biso   1.000  N
  N14      1.0000 0.90850  0.03180  0.49900  Biso   1.000  N
  N15      1.0000 0.59150  0.53180  0.00100  Biso   1.000  N
  N16      1.0000 0.40850  0.53180  0.49900  Biso   1.000  N
  C113     1.0000 0.94760  0.99470  0.09650  Biso   1.000  C
  C114     1.0000 0.05240  0.99470  0.40350  Biso   1.000  C
  C115     1.0000 0.44760  0.49470  0.09650  Biso   1.000  C
  C116     1.0000 0.55240  0.49470  0.40350  Biso   1.000  C
  C117     1.0000 0.05240  0.00530  0.90350  Biso   1.000  C
  C118     1.0000 0.94760  0.00530  0.59650  Biso   1.000  C
  C119     1.0000 0.55240  0.50530  0.90350  Biso   1.000  C
  C120     1.0000 0.44760  0.50530  0.59650  Biso   1.000  C
  H137     1.0000 0.96210  0.96410  0.15540  Biso   1.000  H
  H138     1.0000 0.03790  0.96410  0.34460  Biso   1.000  H
  H139     1.0000 0.46210  0.46410  0.15540  Biso   1.000  H
  H140     1.0000 0.53790  0.46410  0.34460  Biso   1.000  H
  H141     1.0000 0.03790  0.03590  0.84460  Biso   1.000  H
  H142     1.0000 0.96210  0.03590  0.65540  Biso   1.000  H
  H143     1.0000 0.53790  0.53590  0.84460  Biso   1.000  H
  H144     1.0000 0.46210  0.53590  0.65540  Biso   1.000  H
  C121     1.0000 0.87850  0.00080  0.89870  Biso   1.000  C
  C122     1.0000 0.12150  0.00080  0.60130  Biso   1.000  C
  C123     1.0000 0.37850  0.50080  0.89870  Biso   1.000  C
  C124     1.0000 0.62150  0.50080  0.60130  Biso   1.000  C
  C125     1.0000 0.12150  0.99920  0.10130  Biso   1.000  C
  C126     1.0000 0.87850  0.99920  0.39870  Biso   1.000  C
  C127     1.0000 0.62150  0.49920  0.10130  Biso   1.000  C
  C128     1.0000 0.37850  0.49920  0.39870  Biso   1.000  C
  H145     1.0000 0.85250  0.96870  0.84160  Biso   1.000  H
  H146     1.0000 0.14750  0.96870  0.65840  Biso   1.000  H
  H147     1.0000 0.35250  0.46870  0.84160  Biso   1.000  H
  H148     1.0000 0.64750  0.46870  0.65840  Biso   1.000  H
  H149     1.0000 0.14750  0.03130  0.15840  Biso   1.000  H
  H150     1.0000 0.85250  0.03130  0.34160  Biso   1.000  H
  H151     1.0000 0.64750  0.53130  0.15840  Biso   1.000  H
  H152     1.0000 0.35250  0.53130  0.34160  Biso   1.000  H
  H153     1.0000 0.91610  0.02140  0.88170  Biso   1.000  H
  H154     1.0000 0.08390  0.02140  0.61830  Biso   1.000  H
  H155     1.0000 0.41610  0.52140  0.88170  Biso   1.000  H
  H156     1.0000 0.58390  0.52140  0.61830  Biso   1.000  H
  H157     1.0000 0.08390  0.97860  0.11830  Biso   1.000  H
  H158     1.0000 0.91610  0.97860  0.38170  Biso   1.000  H
  H159     1.0000 0.58390  0.47860  0.11830  Biso   1.000  H
  H160     1.0000 0.41610  0.47860  0.38170  Biso   1.000  H
  H161     1.0000 0.84600  0.03540  0.90230  Biso   1.000  H
  H162     1.0000 0.15400  0.03540  0.59770  Biso   1.000  H
  H163     1.0000 0.34600  0.53540  0.90230  Biso   1.000  H
  H164     1.0000 0.65400  0.53540  0.59770  Biso   1.000  H
  H165     1.0000 0.15400  0.96460  0.09770  Biso   1.000  H
  H166     1.0000 0.84600  0.96460  0.40230  Biso   1.000  H
  H167     1.0000 0.65400  0.46460  0.09770  Biso   1.000  H
  H168     1.0000 0.34600  0.46460  0.40230  Biso   1.000  H
  C129     1.0000 0.89080  0.89700  0.98980  Biso   1.000  C
  C130     1.0000 0.10920  0.89700  0.51020  Biso   1.000  C
  C131     1.0000 0.39080  0.39700  0.98980  Biso   1.000  C
  C132     1.0000 0.60920  0.39700  0.51020  Biso   1.000  C
  C133     1.0000 0.10920  0.10300  0.01020  Biso   1.000  C
  C134     1.0000 0.89080  0.10300  0.48980  Biso   1.000  C
  C135     1.0000 0.60920  0.60300  0.01020  Biso   1.000  C
  C136     1.0000 0.39080  0.60300  0.48980  Biso   1.000  C
  H169     1.0000 0.91430  0.87570  0.06120  Biso   1.000  H
  H170     1.0000 0.08570  0.87570  0.43880  Biso   1.000  H
  H171     1.0000 0.41430  0.37570  0.06120  Biso   1.000  H
  H172     1.0000 0.58570  0.37570  0.43880  Biso   1.000  H
  H173     1.0000 0.08570  0.12430  0.93880  Biso   1.000  H
  H174     1.0000 0.91430  0.12430  0.56120  Biso   1.000  H
  H175     1.0000 0.58570  0.62430  0.93880  Biso   1.000  H
  H176     1.0000 0.41430  0.62430  0.56120  Biso   1.000  H
  H177     1.0000 0.90690  0.87610  0.93750  Biso   1.000  H
  H178     1.0000 0.09310  0.87610  0.56250  Biso   1.000  H
  H179     1.0000 0.40690  0.37610  0.93750  Biso   1.000  H
  H180     1.0000 0.59310  0.37610  0.56250  Biso   1.000  H
  H181     1.0000 0.09310  0.12390  0.06250  Biso   1.000  H
  H182     1.0000 0.90690  0.12390  0.43750  Biso   1.000  H
  H183     1.0000 0.59310  0.62390  0.06250  Biso   1.000  H
  H184     1.0000 0.40690  0.62390  0.43750  Biso   1.000  H
  H185     1.0000 0.83940  0.89170  0.96440  Biso   1.000  H
  H186     1.0000 0.16060  0.89170  0.53560  Biso   1.000  H
  H187     1.0000 0.33940  0.39170  0.96440  Biso   1.000  H
  H188     1.0000 0.66060  0.39170  0.53560  Biso   1.000  H
  H189     1.0000 0.16060  0.10830  0.03560  Biso   1.000  H
  H190     1.0000 0.83940  0.10830  0.46440  Biso   1.000  H
  H191     1.0000 0.66060  0.60830  0.03560  Biso   1.000  H
  H192     1.0000 0.33940  0.60830  0.46440  Biso   1.000  H
  O25      1.0000 0.96670  0.04900  0.12070  Biso   1.000  O
  O26      1.0000 0.03330  0.04900  0.37930  Biso   1.000  O
  O27      1.0000 0.46670  0.54900  0.12070  Biso   1.000  O
  O28      1.0000 0.53330  0.54900  0.37930  Biso   1.000  O
  O29      1.0000 0.03330  0.95100  0.87930  Biso   1.000  O
  O30      1.0000 0.96670  0.95100  0.62070  Biso   1.000  O
  O31      1.0000 0.53330  0.45100  0.87930  Biso   1.000  O
  O32      1.0000 0.46670  0.45100  0.62070  Biso   1.000  O
  N17      1.0000 0.50600  0.24900  0.17000  Biso   1.000  N
  N18      1.0000 0.49400  0.24900  0.33000  Biso   1.000  N
  N19      1.0000 0.00600  0.74900  0.17000  Biso   1.000  N
  N20      1.0000 0.99400  0.74900  0.33000  Biso   1.000  N
  N21      1.0000 0.49400  0.75100  0.83000  Biso   1.000  N
  N22      1.0000 0.50600  0.75100  0.67000  Biso   1.000  N
  N23      1.0000 0.99400  0.25100  0.83000  Biso   1.000  N
  N24      1.0000 0.00600  0.25100  0.67000  Biso   1.000  N
  C137     1.0000 0.50690  0.20390  0.08470  Biso   1.000  C
  C138     1.0000 0.49310  0.20390  0.41530  Biso   1.000  C
  C139     1.0000 0.00690  0.70390  0.08470  Biso   1.000  C
  C140     1.0000 0.99310  0.70390  0.41530  Biso   1.000  C
  C141     1.0000 0.49310  0.79610  0.91530  Biso   1.000  C
  C142     1.0000 0.50690  0.79610  0.58470  Biso   1.000  C
  C143     1.0000 0.99310  0.29610  0.91530  Biso   1.000  C
  C144     1.0000 0.00690  0.29610  0.58470  Biso   1.000  C
  H193     1.0000 0.51530  0.22940  0.02860  Biso   1.000  H
  H194     1.0000 0.48470  0.22940  0.47140  Biso   1.000  H
  H195     1.0000 0.01530  0.72940  0.02860  Biso   1.000  H
  H196     1.0000 0.98470  0.72940  0.47140  Biso   1.000  H
  H197     1.0000 0.48470  0.77060  0.97140  Biso   1.000  H
  H198     1.0000 0.51530  0.77060  0.52860  Biso   1.000  H
  H199     1.0000 0.98470  0.27060  0.97140  Biso   1.000  H
  H200     1.0000 0.01530  0.27060  0.52860  Biso   1.000  H
  H201     1.0000 0.46110  0.18120  0.05200  Biso   1.000  H
  H202     1.0000 0.53890  0.18120  0.44800  Biso   1.000  H
  H203     1.0000 0.96110  0.68120  0.05200  Biso   1.000  H
  H204     1.0000 0.03890  0.68120  0.44800  Biso   1.000  H
  H205     1.0000 0.53890  0.81880  0.94800  Biso   1.000  H
  H206     1.0000 0.46110  0.81880  0.55200  Biso   1.000  H
  H207     1.0000 0.03890  0.31880  0.94800  Biso   1.000  H
  H208     1.0000 0.96110  0.31880  0.55200  Biso   1.000  H
  H209     1.0000 0.54460  0.17090  0.11640  Biso   1.000  H
  H210     1.0000 0.45540  0.17090  0.38360  Biso   1.000  H
  H211     1.0000 0.04460  0.67090  0.11640  Biso   1.000  H
  H212     1.0000 0.95540  0.67090  0.38360  Biso   1.000  H
  H213     1.0000 0.45540  0.82910  0.88360  Biso   1.000  H
  H214     1.0000 0.54460  0.82910  0.61640  Biso   1.000  H
  H215     1.0000 0.95540  0.32910  0.88360  Biso   1.000  H
  H216     1.0000 0.04460  0.32910  0.61640  Biso   1.000  H
  O33      1.0000 0.50000  0.34820  0.25000  Biso   1.000  O
  O34      1.0000 0.00000  0.84820  0.25000  Biso   1.000  O
  O35      1.0000 0.50000  0.65180  0.75000  Biso   1.000  O
  O36      1.0000 0.00000  0.15180  0.75000  Biso   1.000  O
  C145     1.0000 0.49900  0.31790  0.16900  Biso   1.000  C
  C146     1.0000 0.50100  0.31790  0.33100  Biso   1.000  C
  C147     1.0000 0.99900  0.81790  0.16900  Biso   1.000  C
  C148     1.0000 0.00100  0.81790  0.33100  Biso   1.000  C
  C149     1.0000 0.50100  0.68210  0.83100  Biso   1.000  C
  C150     1.0000 0.49900  0.68210  0.66900  Biso   1.000  C
  C151     1.0000 0.00100  0.18210  0.83100  Biso   1.000  C
  C152     1.0000 0.99900  0.18210  0.66900  Biso   1.000  C
  H217     1.0000 0.49350  0.34220  0.10550  Biso   1.000  H
  H218     1.0000 0.50650  0.34220  0.39450  Biso   1.000  H
  H219     1.0000 0.99350  0.84220  0.10550  Biso   1.000  H
  H220     1.0000 0.00650  0.84220  0.39450  Biso   1.000  H
  H221     1.0000 0.50650  0.65780  0.89450  Biso   1.000  H
  H222     1.0000 0.49350  0.65780  0.60550  Biso   1.000  H
  H223     1.0000 0.00650  0.15780  0.89450  Biso   1.000  H
  H224     1.0000 0.99350  0.15780  0.60550  Biso   1.000  H
  C153     1.0000 0.50000  0.20650  0.25000  Biso   1.000  C
  C154     1.0000 0.00000  0.70650  0.25000  Biso   1.000  C
  C155     1.0000 0.50000  0.79350  0.75000  Biso   1.000  C
  C156     1.0000 0.00000  0.29350  0.75000  Biso   1.000  C
  H225     1.0000 0.50340  0.16000  0.23040  Biso   1.000  H
  H226     1.0000 0.49660  0.16000  0.26960  Biso   1.000  H
  H227     1.0000 0.00340  0.66000  0.23040  Biso   1.000  H
  H228     1.0000 0.99660  0.66000  0.26960  Biso   1.000  H
  H229     1.0000 0.49660  0.84000  0.76960  Biso   1.000  H
  H230     1.0000 0.50340  0.84000  0.73040  Biso   1.000  H
  H231     1.0000 0.99660  0.34000  0.76960  Biso   1.000  H
  H232     1.0000 0.00340  0.34000  0.73040  Biso   1.000  H
  H233     1.0000 0.45410  0.21390  0.25390  Biso   1.000  H
  H234     1.0000 0.54590  0.21390  0.24610  Biso   1.000  H
  H235     1.0000 0.95410  0.71390  0.25390  Biso   1.000  H
  H236     1.0000 0.04590  0.71390  0.24610  Biso   1.000  H
  H237     1.0000 0.54590  0.78610  0.74610  Biso   1.000  H
  H238     1.0000 0.45410  0.78610  0.75390  Biso   1.000  H
  H239     1.0000 0.04590  0.28610  0.74610  Biso   1.000  H
  H240     1.0000 0.95410  0.28610  0.75390  Biso   1.000  H
  H241     1.0000 0.53800  0.21620  0.32100  Biso   1.000  H
  H242     1.0000 0.46200  0.21620  0.17900  Biso   1.000  H
  H243     1.0000 0.03800  0.71620  0.32100  Biso   1.000  H
  H244     1.0000 0.96200  0.71620  0.17900  Biso   1.000  H
  H245     1.0000 0.46200  0.78380  0.67900  Biso   1.000  H
  H246     1.0000 0.53800  0.78380  0.82100  Biso   1.000  H
  H247     1.0000 0.96200  0.28380  0.67900  Biso   1.000  H
  H248     1.0000 0.03800  0.28380  0.82100  Biso   1.000  H
  O37      1.0000 0.50000  0.10360  0.75000  Biso   1.000  O
  O38      1.0000 0.00000  0.60360  0.75000  Biso   1.000  O
  O39      1.0000 0.50000  0.89640  0.25000  Biso   1.000  O
  O40      1.0000 0.00000  0.39640  0.25000  Biso   1.000  O
