data_image0
_cell_length_a       13.2213
_cell_length_b       13.4991
_cell_length_c       19.0033
_cell_angle_alpha    90
_cell_angle_beta     99.122
_cell_angle_gamma    90

_symmetry_space_group_name_H-M    "P 1"
_symmetry_int_tables_number       1

loop_
  _symmetry_equiv_pos_as_xyz
  'x, y, z'

loop_
  _atom_site_label
  _atom_site_occupancy
  _atom_site_fract_x
  _atom_site_fract_y
  _atom_site_fract_z
  _atom_site_thermal_displace_type
  _atom_site_B_iso_or_equiv
  _atom_site_type_symbol
  C1       1.0000 0.30630  0.96900  0.56960  Biso   1.000  C
  C2       1.0000 0.69370  0.96900  0.93040  Biso   1.000  C
  C3       1.0000 0.80630  0.46900  0.56960  Biso   1.000  C
  C4       1.0000 0.19370  0.46900  0.93040  Biso   1.000  C
  C5       1.0000 0.69370  0.03100  0.43040  Biso   1.000  C
  C6       1.0000 0.30630  0.03100  0.06960  Biso   1.000  C
  C7       1.0000 0.19370  0.53100  0.43040  Biso   1.000  C
  C8       1.0000 0.80630  0.53100  0.06960  Biso   1.000  C
  C9       1.0000 0.29940  0.86550  0.57840  Biso   1.000  C
  C10      1.0000 0.70060  0.86550  0.92160  Biso   1.000  C
  C11      1.0000 0.79940  0.36550  0.57840  Biso   1.000  C
  C12      1.0000 0.20060  0.36550  0.92160  Biso   1.000  C
  C13      1.0000 0.70060  0.13450  0.42160  Biso   1.000  C
  C14      1.0000 0.29940  0.13450  0.07840  Biso   1.000  C
  C15      1.0000 0.20060  0.63450  0.42160  Biso   1.000  C
  C16      1.0000 0.79940  0.63450  0.07840  Biso   1.000  C
  C17      1.0000 0.21930  0.02790  0.55970  Biso   1.000  C
  C18      1.0000 0.78070  0.02790  0.94030  Biso   1.000  C
  C19      1.0000 0.71930  0.52790  0.55970  Biso   1.000  C
  C20      1.0000 0.28070  0.52790  0.94030  Biso   1.000  C
  C21      1.0000 0.78070  0.97210  0.44030  Biso   1.000  C
  C22      1.0000 0.21930  0.97210  0.05970  Biso   1.000  C
  C23      1.0000 0.28070  0.47210  0.44030  Biso   1.000  C
  C24      1.0000 0.71930  0.47210  0.05970  Biso   1.000  C
  C25      1.0000 0.12680  0.98290  0.55880  Biso   1.000  C
  C26      1.0000 0.87320  0.98290  0.94120  Biso   1.000  C
  C27      1.0000 0.62680  0.48290  0.55880  Biso   1.000  C
  C28      1.0000 0.37320  0.48290  0.94120  Biso   1.000  C
  C29      1.0000 0.87320  0.01710  0.44120  Biso   1.000  C
  C30      1.0000 0.12680  0.01710  0.05880  Biso   1.000  C
  C31      1.0000 0.37320  0.51710  0.44120  Biso   1.000  C
  C32      1.0000 0.62680  0.51710  0.05880  Biso   1.000  C
  H1       1.0000 0.06770  0.02130  0.55260  Biso   1.000  H
  H2       1.0000 0.93230  0.02130  0.94740  Biso   1.000  H
  H3       1.0000 0.56770  0.52130  0.55260  Biso   1.000  H
  H4       1.0000 0.43230  0.52130  0.94740  Biso   1.000  H
  H5       1.0000 0.93230  0.97870  0.44740  Biso   1.000  H
  H6       1.0000 0.06770  0.97870  0.05260  Biso   1.000  H
  H7       1.0000 0.43230  0.47870  0.44740  Biso   1.000  H
  H8       1.0000 0.56770  0.47870  0.05260  Biso   1.000  H
  O1       1.0000 0.40710  0.30400  0.69980  Biso   1.000  O
  O2       1.0000 0.59290  0.30400  0.80020  Biso   1.000  O
  O3       1.0000 0.90710  0.80400  0.69980  Biso   1.000  O
  O4       1.0000 0.09290  0.80400  0.80020  Biso   1.000  O
  O5       1.0000 0.59290  0.69600  0.30020  Biso   1.000  O
  O6       1.0000 0.40710  0.69600  0.19980  Biso   1.000  O
  O7       1.0000 0.09290  0.19600  0.30020  Biso   1.000  O
  O8       1.0000 0.90710  0.19600  0.19980  Biso   1.000  O
  C33      1.0000 0.20340  0.82410  0.57630  Biso   1.000  C
  C34      1.0000 0.79660  0.82410  0.92370  Biso   1.000  C
  C35      1.0000 0.70340  0.32410  0.57630  Biso   1.000  C
  C36      1.0000 0.29660  0.32410  0.92370  Biso   1.000  C
  C37      1.0000 0.79660  0.17590  0.42370  Biso   1.000  C
  C38      1.0000 0.20340  0.17590  0.07630  Biso   1.000  C
  C39      1.0000 0.29660  0.67590  0.42370  Biso   1.000  C
  C40      1.0000 0.70340  0.67590  0.07630  Biso   1.000  C
  H9       1.0000 0.19740  0.75600  0.58160  Biso   1.000  H
  H10      1.0000 0.80260  0.75600  0.91840  Biso   1.000  H
  H11      1.0000 0.69740  0.25600  0.58160  Biso   1.000  H
  H12      1.0000 0.30260  0.25600  0.91840  Biso   1.000  H
  H13      1.0000 0.80260  0.24400  0.41840  Biso   1.000  H
  H14      1.0000 0.19740  0.24400  0.08160  Biso   1.000  H
  H15      1.0000 0.30260  0.74400  0.41840  Biso   1.000  H
  H16      1.0000 0.69740  0.74400  0.08160  Biso   1.000  H
  C41      1.0000 0.11870  0.88060  0.56680  Biso   1.000  C
  C42      1.0000 0.88130  0.88060  0.93320  Biso   1.000  C
  C43      1.0000 0.61870  0.38060  0.56680  Biso   1.000  C
  C44      1.0000 0.38130  0.38060  0.93320  Biso   1.000  C
  C45      1.0000 0.88130  0.11940  0.43320  Biso   1.000  C
  C46      1.0000 0.11870  0.11940  0.06680  Biso   1.000  C
  C47      1.0000 0.38130  0.61940  0.43320  Biso   1.000  C
  C48      1.0000 0.61870  0.61940  0.06680  Biso   1.000  C
  H17      1.0000 0.05470  0.85150  0.56550  Biso   1.000  H
  H18      1.0000 0.94530  0.85150  0.93450  Biso   1.000  H
  H19      1.0000 0.55470  0.35150  0.56550  Biso   1.000  H
  H20      1.0000 0.44530  0.35150  0.93450  Biso   1.000  H
  H21      1.0000 0.94530  0.14850  0.43450  Biso   1.000  H
  H22      1.0000 0.05470  0.14850  0.06550  Biso   1.000  H
  H23      1.0000 0.44530  0.64850  0.43450  Biso   1.000  H
  H24      1.0000 0.55470  0.64850  0.06550  Biso   1.000  H
  C49      1.0000 0.39330  0.80280  0.59460  Biso   1.000  C
  C50      1.0000 0.60670  0.80280  0.90540  Biso   1.000  C
  C51      1.0000 0.89330  0.30280  0.59460  Biso   1.000  C
  C52      1.0000 0.10670  0.30280  0.90540  Biso   1.000  C
  C53      1.0000 0.60670  0.19720  0.40540  Biso   1.000  C
  C54      1.0000 0.39330  0.19720  0.09460  Biso   1.000  C
  C55      1.0000 0.10670  0.69720  0.40540  Biso   1.000  C
  C56      1.0000 0.89330  0.69720  0.09460  Biso   1.000  C
  H25      1.0000 0.44600  0.82910  0.56970  Biso   1.000  H
  H26      1.0000 0.55400  0.82910  0.93030  Biso   1.000  H
  H27      1.0000 0.94600  0.32910  0.56970  Biso   1.000  H
  H28      1.0000 0.05400  0.32910  0.93030  Biso   1.000  H
  H29      1.0000 0.55400  0.17090  0.43030  Biso   1.000  H
  H30      1.0000 0.44600  0.17090  0.06970  Biso   1.000  H
  H31      1.0000 0.05400  0.67090  0.43030  Biso   1.000  H
  H32      1.0000 0.94600  0.67090  0.06970  Biso   1.000  H
  H33      1.0000 0.37750  0.73610  0.57730  Biso   1.000  H
  H34      1.0000 0.62250  0.73610  0.92270  Biso   1.000  H
  H35      1.0000 0.87750  0.23610  0.57730  Biso   1.000  H
  H36      1.0000 0.12250  0.23610  0.92270  Biso   1.000  H
  H37      1.0000 0.62250  0.26390  0.42270  Biso   1.000  H
  H38      1.0000 0.37750  0.26390  0.07730  Biso   1.000  H
  H39      1.0000 0.12250  0.76390  0.42270  Biso   1.000  H
  H40      1.0000 0.87750  0.76390  0.07730  Biso   1.000  H
  C57      1.0000 0.22580  0.14100  0.55220  Biso   1.000  C
  C58      1.0000 0.77420  0.14100  0.94780  Biso   1.000  C
  C59      1.0000 0.72580  0.64100  0.55220  Biso   1.000  C
  C60      1.0000 0.27420  0.64100  0.94780  Biso   1.000  C
  C61      1.0000 0.77420  0.85900  0.44780  Biso   1.000  C
  C62      1.0000 0.22580  0.85900  0.05220  Biso   1.000  C
  C63      1.0000 0.27420  0.35900  0.44780  Biso   1.000  C
  C64      1.0000 0.72580  0.35900  0.05220  Biso   1.000  C
  H41      1.0000 0.29760  0.15950  0.56110  Biso   1.000  H
  H42      1.0000 0.70240  0.15950  0.93890  Biso   1.000  H
  H43      1.0000 0.79760  0.65950  0.56110  Biso   1.000  H
  H44      1.0000 0.20240  0.65950  0.93890  Biso   1.000  H
  H45      1.0000 0.70240  0.84050  0.43890  Biso   1.000  H
  H46      1.0000 0.29760  0.84050  0.06110  Biso   1.000  H
  H47      1.0000 0.20240  0.34050  0.43890  Biso   1.000  H
  H48      1.0000 0.79760  0.34050  0.06110  Biso   1.000  H
  H49      1.0000 0.19950  0.15810  0.50320  Biso   1.000  H
  H50      1.0000 0.80050  0.15810  0.99680  Biso   1.000  H
  H51      1.0000 0.69950  0.65810  0.50320  Biso   1.000  H
  H52      1.0000 0.30050  0.65810  0.99680  Biso   1.000  H
  H53      1.0000 0.80050  0.84190  0.49680  Biso   1.000  H
  H54      1.0000 0.19950  0.84190  0.00320  Biso   1.000  H
  H55      1.0000 0.30050  0.34190  0.49680  Biso   1.000  H
  H56      1.0000 0.69950  0.34190  0.00320  Biso   1.000  H
  C65      1.0000 0.43350  0.79880  0.67290  Biso   1.000  C
  C66      1.0000 0.56650  0.79880  0.82710  Biso   1.000  C
  C67      1.0000 0.93350  0.29880  0.67290  Biso   1.000  C
  C68      1.0000 0.06650  0.29880  0.82710  Biso   1.000  C
  C69      1.0000 0.56650  0.20120  0.32710  Biso   1.000  C
  C70      1.0000 0.43350  0.20120  0.17290  Biso   1.000  C
  C71      1.0000 0.06650  0.70120  0.32710  Biso   1.000  C
  C72      1.0000 0.93350  0.70120  0.17290  Biso   1.000  C
  H57      1.0000 0.49370  0.75800  0.68100  Biso   1.000  H
  H58      1.0000 0.50630  0.75800  0.81900  Biso   1.000  H
  H59      1.0000 0.99370  0.25800  0.68100  Biso   1.000  H
  H60      1.0000 0.00630  0.25800  0.81900  Biso   1.000  H
  H61      1.0000 0.50630  0.24200  0.31900  Biso   1.000  H
  H62      1.0000 0.49370  0.24200  0.18100  Biso   1.000  H
  H63      1.0000 0.00630  0.74200  0.31900  Biso   1.000  H
  H64      1.0000 0.99370  0.74200  0.18100  Biso   1.000  H
  H65      1.0000 0.38220  0.77140  0.69770  Biso   1.000  H
  H66      1.0000 0.61780  0.77140  0.80230  Biso   1.000  H
  H67      1.0000 0.88220  0.27140  0.69770  Biso   1.000  H
  H68      1.0000 0.11780  0.27140  0.80230  Biso   1.000  H
  H69      1.0000 0.61780  0.22860  0.30230  Biso   1.000  H
  H70      1.0000 0.38220  0.22860  0.19770  Biso   1.000  H
  H71      1.0000 0.11780  0.72860  0.30230  Biso   1.000  H
  H72      1.0000 0.88220  0.72860  0.19770  Biso   1.000  H
  H73      1.0000 0.45050  0.86460  0.69020  Biso   1.000  H
  H74      1.0000 0.54950  0.86460  0.80980  Biso   1.000  H
  H75      1.0000 0.95050  0.36460  0.69020  Biso   1.000  H
  H76      1.0000 0.04950  0.36460  0.80980  Biso   1.000  H
  H77      1.0000 0.54950  0.13540  0.30980  Biso   1.000  H
  H78      1.0000 0.45050  0.13540  0.19020  Biso   1.000  H
  H79      1.0000 0.04950  0.63540  0.30980  Biso   1.000  H
  H80      1.0000 0.95050  0.63540  0.19020  Biso   1.000  H
  C73      1.0000 0.17430  0.19870  0.59620  Biso   1.000  C
  C74      1.0000 0.82570  0.19870  0.90380  Biso   1.000  C
  C75      1.0000 0.67430  0.69870  0.59620  Biso   1.000  C
  C76      1.0000 0.32570  0.69870  0.90380  Biso   1.000  C
  C77      1.0000 0.82570  0.80130  0.40380  Biso   1.000  C
  C78      1.0000 0.17430  0.80130  0.09620  Biso   1.000  C
  C79      1.0000 0.32570  0.30130  0.40380  Biso   1.000  C
  C80      1.0000 0.67430  0.30130  0.09620  Biso   1.000  C
  H81      1.0000 0.18400  0.26750  0.58660  Biso   1.000  H
  H82      1.0000 0.81600  0.26750  0.91340  Biso   1.000  H
  H83      1.0000 0.68400  0.76750  0.58660  Biso   1.000  H
  H84      1.0000 0.31600  0.76750  0.91340  Biso   1.000  H
  H85      1.0000 0.81600  0.73250  0.41340  Biso   1.000  H
  H86      1.0000 0.18400  0.73250  0.08660  Biso   1.000  H
  H87      1.0000 0.31600  0.23250  0.41340  Biso   1.000  H
  H88      1.0000 0.68400  0.23250  0.08660  Biso   1.000  H
  H89      1.0000 0.20100  0.18490  0.64520  Biso   1.000  H
  H90      1.0000 0.79900  0.18490  0.85480  Biso   1.000  H
  H91      1.0000 0.70100  0.68490  0.64520  Biso   1.000  H
  H92      1.0000 0.29900  0.68490  0.85480  Biso   1.000  H
  H93      1.0000 0.79900  0.81510  0.35480  Biso   1.000  H
  H94      1.0000 0.20100  0.81510  0.14520  Biso   1.000  H
  H95      1.0000 0.29900  0.31510  0.35480  Biso   1.000  H
  H96      1.0000 0.70100  0.31510  0.14520  Biso   1.000  H
  H97      1.0000 0.10260  0.18320  0.58720  Biso   1.000  H
  H98      1.0000 0.89740  0.18320  0.91280  Biso   1.000  H
  H99      1.0000 0.60260  0.68320  0.58720  Biso   1.000  H
  H100     1.0000 0.39740  0.68320  0.91280  Biso   1.000  H
  H101     1.0000 0.89740  0.81680  0.41280  Biso   1.000  H
  H102     1.0000 0.10260  0.81680  0.08720  Biso   1.000  H
  H103     1.0000 0.39740  0.31680  0.41280  Biso   1.000  H
  H104     1.0000 0.60260  0.31680  0.08720  Biso   1.000  H
  C81      1.0000 0.35800  0.35980  0.73020  Biso   1.000  C
  C82      1.0000 0.64200  0.35980  0.76980  Biso   1.000  C
  C83      1.0000 0.85800  0.85980  0.73020  Biso   1.000  C
  C84      1.0000 0.14200  0.85980  0.76980  Biso   1.000  C
  C85      1.0000 0.64200  0.64020  0.26980  Biso   1.000  C
  C86      1.0000 0.35800  0.64020  0.23020  Biso   1.000  C
  C87      1.0000 0.14200  0.14020  0.26980  Biso   1.000  C
  C88      1.0000 0.85800  0.14020  0.23020  Biso   1.000  C
  H105     1.0000 0.34510  0.34150  0.77510  Biso   1.000  H
  H106     1.0000 0.65490  0.34150  0.72490  Biso   1.000  H
  H107     1.0000 0.84510  0.84150  0.77510  Biso   1.000  H
  H108     1.0000 0.15490  0.84150  0.72490  Biso   1.000  H
  H109     1.0000 0.65490  0.65850  0.22490  Biso   1.000  H
  H110     1.0000 0.34510  0.65850  0.27510  Biso   1.000  H
  H111     1.0000 0.15490  0.15850  0.22490  Biso   1.000  H
  H112     1.0000 0.84510  0.15850  0.27510  Biso   1.000  H
  N1       1.0000 0.32100  0.44550  0.70410  Biso   1.000  N
  N2       1.0000 0.67900  0.44550  0.79590  Biso   1.000  N
  N3       1.0000 0.82100  0.94550  0.70410  Biso   1.000  N
  N4       1.0000 0.17900  0.94550  0.79590  Biso   1.000  N
  N5       1.0000 0.67900  0.55450  0.29590  Biso   1.000  N
  N6       1.0000 0.32100  0.55450  0.20410  Biso   1.000  N
  N7       1.0000 0.17900  0.05450  0.29590  Biso   1.000  N
  N8       1.0000 0.82100  0.05450  0.20410  Biso   1.000  N
  C89      1.0000 0.33840  0.48140  0.63650  Biso   1.000  C
  C90      1.0000 0.66160  0.48140  0.86350  Biso   1.000  C
  C91      1.0000 0.83840  0.98140  0.63650  Biso   1.000  C
  C92      1.0000 0.16160  0.98140  0.86350  Biso   1.000  C
  C93      1.0000 0.66160  0.51860  0.36350  Biso   1.000  C
  C94      1.0000 0.33840  0.51860  0.13650  Biso   1.000  C
  C95      1.0000 0.16160  0.01860  0.36350  Biso   1.000  C
  C96      1.0000 0.83840  0.01860  0.13650  Biso   1.000  C
  H113     1.0000 0.30600  0.54480  0.62750  Biso   1.000  H
  H114     1.0000 0.69400  0.54480  0.87250  Biso   1.000  H
  H115     1.0000 0.80600  0.04480  0.62750  Biso   1.000  H
  H116     1.0000 0.19400  0.04480  0.87250  Biso   1.000  H
  H117     1.0000 0.69400  0.45520  0.37250  Biso   1.000  H
  H118     1.0000 0.30600  0.45520  0.12750  Biso   1.000  H
  H119     1.0000 0.19400  0.95520  0.37250  Biso   1.000  H
  H120     1.0000 0.80600  0.95520  0.12750  Biso   1.000  H
  H121     1.0000 0.31020  0.43560  0.59990  Biso   1.000  H
  H122     1.0000 0.68980  0.43560  0.90010  Biso   1.000  H
  H123     1.0000 0.81020  0.93560  0.59990  Biso   1.000  H
  H124     1.0000 0.18980  0.93560  0.90010  Biso   1.000  H
  H125     1.0000 0.68980  0.56440  0.40010  Biso   1.000  H
  H126     1.0000 0.31020  0.56440  0.09990  Biso   1.000  H
  H127     1.0000 0.18980  0.06440  0.40010  Biso   1.000  H
  H128     1.0000 0.81020  0.06440  0.09990  Biso   1.000  H
  H129     1.0000 0.41070  0.48800  0.63660  Biso   1.000  H
  H130     1.0000 0.58930  0.48800  0.86340  Biso   1.000  H
  H131     1.0000 0.91070  0.98800  0.63660  Biso   1.000  H
  H132     1.0000 0.08930  0.98800  0.86340  Biso   1.000  H
  H133     1.0000 0.58930  0.51200  0.36340  Biso   1.000  H
  H134     1.0000 0.41070  0.51200  0.13660  Biso   1.000  H
  H135     1.0000 0.08930  0.01200  0.36340  Biso   1.000  H
  H136     1.0000 0.91070  0.01200  0.13660  Biso   1.000  H
  C97      1.0000 0.27000  0.50770  0.74720  Biso   1.000  C
  C98      1.0000 0.73000  0.50770  0.75280  Biso   1.000  C
  C99      1.0000 0.77000  0.00770  0.74720  Biso   1.000  C
  C100     1.0000 0.23000  0.00770  0.75280  Biso   1.000  C
  C101     1.0000 0.73000  0.49230  0.25280  Biso   1.000  C
  C102     1.0000 0.27000  0.49230  0.24720  Biso   1.000  C
  C103     1.0000 0.23000  0.99230  0.25280  Biso   1.000  C
  C104     1.0000 0.77000  0.99230  0.24720  Biso   1.000  C
  H137     1.0000 0.24870  0.56740  0.72160  Biso   1.000  H
  H138     1.0000 0.75130  0.56740  0.77840  Biso   1.000  H
  H139     1.0000 0.74870  0.06740  0.72160  Biso   1.000  H
  H140     1.0000 0.25130  0.06740  0.77840  Biso   1.000  H
  H141     1.0000 0.75130  0.43260  0.27840  Biso   1.000  H
  H142     1.0000 0.24870  0.43260  0.22160  Biso   1.000  H
  H143     1.0000 0.25130  0.93260  0.27840  Biso   1.000  H
  H144     1.0000 0.74870  0.93260  0.22160  Biso   1.000  H
  H145     1.0000 0.31560  0.52380  0.79010  Biso   1.000  H
  H146     1.0000 0.68440  0.52380  0.70990  Biso   1.000  H
  H147     1.0000 0.81560  0.02380  0.79010  Biso   1.000  H
  H148     1.0000 0.18440  0.02380  0.70990  Biso   1.000  H
  H149     1.0000 0.68440  0.47620  0.20990  Biso   1.000  H
  H150     1.0000 0.31560  0.47620  0.29010  Biso   1.000  H
  H151     1.0000 0.18440  0.97620  0.20990  Biso   1.000  H
  H152     1.0000 0.81560  0.97620  0.29010  Biso   1.000  H
  H153     1.0000 0.21100  0.47390  0.75900  Biso   1.000  H
  H154     1.0000 0.78900  0.47390  0.74100  Biso   1.000  H
  H155     1.0000 0.71100  0.97390  0.75900  Biso   1.000  H
  H156     1.0000 0.28900  0.97390  0.74100  Biso   1.000  H
  H157     1.0000 0.78900  0.52610  0.24100  Biso   1.000  H
  H158     1.0000 0.21100  0.52610  0.25900  Biso   1.000  H
  H159     1.0000 0.28900  0.02610  0.24100  Biso   1.000  H
  H160     1.0000 0.71100  0.02610  0.25900  Biso   1.000  H
  Cu1      1.0000 0.50000  0.00000  0.50000  Biso   1.000  Cu
  Cu2      1.0000 0.50000  0.00000  0.00000  Biso   1.000  Cu
  Cu3      1.0000 0.00000  0.50000  0.50000  Biso   1.000  Cu
  Cu4      1.0000 0.00000  0.50000  0.00000  Biso   1.000  Cu
  Mn1      1.0000 0.50000  0.18642  0.75000  Biso   1.000  Mn
  Mn2      1.0000 0.00000  0.68642  0.75000  Biso   1.000  Mn
  Mn3      1.0000 0.50000  0.81358  0.25000  Biso   1.000  Mn
  Mn4      1.0000 0.00000  0.31358  0.25000  Biso   1.000  Mn
  O9       1.0000 0.40970  0.08200  0.68000  Biso   1.000  O
  O10      1.0000 0.59030  0.08200  0.82000  Biso   1.000  O
  O11      1.0000 0.90970  0.58200  0.68000  Biso   1.000  O
  O12      1.0000 0.09030  0.58200  0.82000  Biso   1.000  O
  O13      1.0000 0.59030  0.91800  0.32000  Biso   1.000  O
  O14      1.0000 0.40970  0.91800  0.18000  Biso   1.000  O
  O15      1.0000 0.09030  0.41800  0.32000  Biso   1.000  O
  O16      1.0000 0.90970  0.41800  0.18000  Biso   1.000  O
  O17      1.0000 0.59040  0.08110  0.56400  Biso   1.000  O
  O18      1.0000 0.40960  0.08110  0.93600  Biso   1.000  O
  O19      1.0000 0.09040  0.58110  0.56400  Biso   1.000  O
  O20      1.0000 0.90960  0.58110  0.93600  Biso   1.000  O
  O21      1.0000 0.40960  0.91890  0.43600  Biso   1.000  O
  O22      1.0000 0.59040  0.91890  0.06400  Biso   1.000  O
  O23      1.0000 0.90960  0.41890  0.43600  Biso   1.000  O
  O24      1.0000 0.09040  0.41890  0.06400  Biso   1.000  O
  O25      1.0000 0.59200  0.16180  0.66550  Biso   1.000  O
  O26      1.0000 0.40800  0.16180  0.83450  Biso   1.000  O
  O27      1.0000 0.09200  0.66180  0.66550  Biso   1.000  O
  O28      1.0000 0.90800  0.66180  0.83450  Biso   1.000  O
  O29      1.0000 0.40800  0.83820  0.33450  Biso   1.000  O
  O30      1.0000 0.59200  0.83820  0.16550  Biso   1.000  O
  O31      1.0000 0.90800  0.33820  0.33450  Biso   1.000  O
  O32      1.0000 0.09200  0.33820  0.16550  Biso   1.000  O
  N9       1.0000 0.40460  0.01100  0.57040  Biso   1.000  N
  N10      1.0000 0.59540  0.01100  0.92960  Biso   1.000  N
  N11      1.0000 0.90460  0.51100  0.57040  Biso   1.000  N
  N12      1.0000 0.09540  0.51100  0.92960  Biso   1.000  N
  N13      1.0000 0.59540  0.98900  0.42960  Biso   1.000  N
  N14      1.0000 0.40460  0.98900  0.07040  Biso   1.000  N
  N15      1.0000 0.09540  0.48900  0.42960  Biso   1.000  N
  N16      1.0000 0.90460  0.48900  0.07040  Biso   1.000  N
  C105     1.0000 0.44560  0.06380  0.62530  Biso   1.000  C
  C106     1.0000 0.55440  0.06380  0.87470  Biso   1.000  C
  C107     1.0000 0.94560  0.56380  0.62530  Biso   1.000  C
  C108     1.0000 0.05440  0.56380  0.87470  Biso   1.000  C
  C109     1.0000 0.55440  0.93620  0.37470  Biso   1.000  C
  C110     1.0000 0.44560  0.93620  0.12530  Biso   1.000  C
  C111     1.0000 0.05440  0.43620  0.37470  Biso   1.000  C
  C112     1.0000 0.94560  0.43620  0.12530  Biso   1.000  C
  C113     1.0000 0.55160  0.10740  0.61780  Biso   1.000  C
  C114     1.0000 0.44840  0.10740  0.88220  Biso   1.000  C
  C115     1.0000 0.05160  0.60740  0.61780  Biso   1.000  C
  C116     1.0000 0.94840  0.60740  0.88220  Biso   1.000  C
  C117     1.0000 0.44840  0.89260  0.38220  Biso   1.000  C
  C118     1.0000 0.55160  0.89260  0.11780  Biso   1.000  C
  C119     1.0000 0.94840  0.39260  0.38220  Biso   1.000  C
  C120     1.0000 0.05160  0.39260  0.11780  Biso   1.000  C
