data_image0
_cell_length_a       7.6983
_cell_length_b       8.572
_cell_length_c       22.6023
_cell_angle_alpha    86.022
_cell_angle_beta     82.718
_cell_angle_gamma    72.227

_symmetry_space_group_name_H-M    "P 1"
_symmetry_int_tables_number       1

loop_
  _symmetry_equiv_pos_as_xyz
  'x, y, z'

loop_
  _atom_site_label
  _atom_site_occupancy
  _atom_site_fract_x
  _atom_site_fract_y
  _atom_site_fract_z
  _atom_site_thermal_displace_type
  _atom_site_B_iso_or_equiv
  _atom_site_type_symbol
  Cu1      1.0000 0.84765  0.97110  0.05028  Biso   1.000  Cu
  Cu2      1.0000 0.15235  0.02890  0.94972  Biso   1.000  Cu
  Cu3      1.0000 0.73715  0.53745  0.25833  Biso   1.000  Cu
  Cu4      1.0000 0.26285  0.46255  0.74167  Biso   1.000  Cu
  Cu5      1.0000 0.65057  0.03519  0.44997  Biso   1.000  Cu
  Cu6      1.0000 0.34943  0.96481  0.55003  Biso   1.000  Cu
  N1       1.0000 0.57870  0.07800  0.06659  Biso   1.000  N
  N2       1.0000 0.42130  0.92200  0.93341  Biso   1.000  N
  N3       1.0000 0.28340  0.11260  0.08790  Biso   1.000  N
  N4       1.0000 0.71660  0.88740  0.91210  Biso   1.000  N
  N5       1.0000 0.83520  0.76870  0.09543  Biso   1.000  N
  N6       1.0000 0.16480  0.23130  0.90457  Biso   1.000  N
  N7       1.0000 0.79210  0.60770  0.17391  Biso   1.000  N
  N8       1.0000 0.20790  0.39230  0.82609  Biso   1.000  N
  N9       1.0000 0.47270  0.67480  0.25730  Biso   1.000  N
  N10      1.0000 0.52730  0.32520  0.74270  Biso   1.000  N
  N11      1.0000 0.17370  0.75220  0.26830  Biso   1.000  N
  N12      1.0000 0.82630  0.24780  0.73170  Biso   1.000  N
  N13      1.0000 0.00370  0.40640  0.26070  Biso   1.000  N
  N14      1.0000 0.99630  0.59360  0.73930  Biso   1.000  N
  N15      1.0000 0.26540  0.24980  0.29280  Biso   1.000  N
  N16      1.0000 0.73460  0.75020  0.70720  Biso   1.000  N
  N17      1.0000 0.67880  0.43280  0.33703  Biso   1.000  N
  N18      1.0000 0.32120  0.56720  0.66297  Biso   1.000  N
  N19      1.0000 0.66220  0.24340  0.40849  Biso   1.000  N
  N20      1.0000 0.33780  0.75660  0.59151  Biso   1.000  N
  N21      1.0000 0.91790  0.92550  0.43230  Biso   1.000  N
  N22      1.0000 0.08210  0.07450  0.56770  Biso   1.000  N
  N23      1.0000 0.18870  0.73690  0.41720  Biso   1.000  N
  N24      1.0000 0.81130  0.26310  0.58280  Biso   1.000  N
  N25      1.0000 0.10810  0.86630  0.01520  Biso   1.000  N
  N26      1.0000 0.89190  0.13370  0.98480  Biso   1.000  N
  N27      1.0000 0.21040  0.75280  0.04100  Biso   1.000  N
  N28      1.0000 0.78960  0.24720  0.95900  Biso   1.000  N
  N29      1.0000 0.30370  0.64780  0.06570  Biso   1.000  N
  N30      1.0000 0.69630  0.35220  0.93430  Biso   1.000  N
  N31      1.0000 0.92300  0.09050  0.12770  Biso   1.000  N
  N32      1.0000 0.07700  0.90950  0.87230  Biso   1.000  N
  N33      1.0000 0.80680  0.14500  0.16640  Biso   1.000  N
  N34      1.0000 0.19320  0.85500  0.83360  Biso   1.000  N
  N35      1.0000 0.69260  0.20000  0.20460  Biso   1.000  N
  N36      1.0000 0.30740  0.80000  0.79540  Biso   1.000  N
  N37      1.0000 0.56360  0.93760  0.36979  Biso   1.000  N
  N38      1.0000 0.43640  0.06240  0.63021  Biso   1.000  N
  N39      1.0000 0.67680  0.86110  0.33413  Biso   1.000  N
  N40      1.0000 0.32320  0.13890  0.66587  Biso   1.000  N
  N41      1.0000 0.78700  0.78390  0.29860  Biso   1.000  N
  N42      1.0000 0.21300  0.21610  0.70140  Biso   1.000  N
  N43      1.0000 0.39290  0.13980  0.48949  Biso   1.000  N
  N44      1.0000 0.60710  0.86020  0.51051  Biso   1.000  N
  N45      1.0000 0.28690  0.25270  0.46515  Biso   1.000  N
  N46      1.0000 0.71310  0.74730  0.53485  Biso   1.000  N
  N47      1.0000 0.18800  0.36080  0.44280  Biso   1.000  N
  N48      1.0000 0.81200  0.63920  0.55720  Biso   1.000  N
  C1       1.0000 0.45050  0.00280  0.08110  Biso   1.000  C
  C2       1.0000 0.54950  0.99720  0.91890  Biso   1.000  C
  C3       1.0000 0.48800  0.24230  0.06400  Biso   1.000  C
  C4       1.0000 0.51200  0.75770  0.93600  Biso   1.000  C
  C5       1.0000 0.30430  0.26400  0.07730  Biso   1.000  C
  C6       1.0000 0.69570  0.73600  0.92270  Biso   1.000  C
  C7       1.0000 0.82390  0.74730  0.15480  Biso   1.000  C
  C8       1.0000 0.17610  0.25270  0.84520  Biso   1.000  C
  C9       1.0000 0.78040  0.53680  0.12330  Biso   1.000  C
  C10      1.0000 0.21960  0.46320  0.87670  Biso   1.000  C
  C11      1.0000 0.81200  0.63340  0.07490  Biso   1.000  C
  C12      1.0000 0.18800  0.36660  0.92510  Biso   1.000  C
  C13      1.0000 0.40900  0.83280  0.23370  Biso   1.000  C
  C14      1.0000 0.59100  0.16720  0.76630  Biso   1.000  C
  C15      1.0000 0.22320  0.88050  0.23970  Biso   1.000  C
  C16      1.0000 0.77680  0.11950  0.76030  Biso   1.000  C
  C17      1.0000 0.32620  0.63410  0.28000  Biso   1.000  C
  C18      1.0000 0.67380  0.36590  0.72000  Biso   1.000  C
  C19      1.0000 0.08510  0.32560  0.30990  Biso   1.000  C
  C20      1.0000 0.91490  0.67440  0.69010  Biso   1.000  C
  C21      1.0000 0.29780  0.28540  0.23390  Biso   1.000  C
  C22      1.0000 0.70220  0.71460  0.76610  Biso   1.000  C
  C23      1.0000 0.13830  0.38390  0.21680  Biso   1.000  C
  C24      1.0000 0.86170  0.61610  0.78320  Biso   1.000  C
  C25      1.0000 0.66350  0.50030  0.39260  Biso   1.000  C
  C26      1.0000 0.33650  0.49970  0.60740  Biso   1.000  C
  C27      1.0000 0.65540  0.38480  0.43510  Biso   1.000  C
  C28      1.0000 0.34460  0.61520  0.56490  Biso   1.000  C
  C29      1.0000 0.67570  0.27970  0.34950  Biso   1.000  C
  C30      1.0000 0.32430  0.72030  0.65050  Biso   1.000  C
  C31      1.0000 0.04670  0.99890  0.42020  Biso   1.000  C
  C32      1.0000 0.95330  0.00110  0.57980  Biso   1.000  C
  C33      1.0000 0.00690  0.75840  0.42990  Biso   1.000  C
  C34      1.0000 0.99310  0.24160  0.57010  Biso   1.000  C
  C35      1.0000 0.21130  0.88790  0.41100  Biso   1.000  C
  C36      1.0000 0.78870  0.11210  0.58900  Biso   1.000  C
  H1       1.0000 0.17060  0.08880  0.09840  Biso   1.000  H
  H2       1.0000 0.82940  0.91120  0.90160  Biso   1.000  H
  H3       1.0000 0.47470  0.88740  0.08600  Biso   1.000  H
  H4       1.0000 0.52530  0.11260  0.91400  Biso   1.000  H
  H5       1.0000 0.54380  0.32700  0.05450  Biso   1.000  H
  H6       1.0000 0.45620  0.67300  0.94550  Biso   1.000  H
  H7       1.0000 0.20950  0.36560  0.07870  Biso   1.000  H
  H8       1.0000 0.79050  0.63440  0.92130  Biso   1.000  H
  H9       1.0000 0.83660  0.82490  0.18070  Biso   1.000  H
  H10      1.0000 0.16340  0.17510  0.81930  Biso   1.000  H
  H11      1.0000 0.75590  0.43510  0.12180  Biso   1.000  H
  H12      1.0000 0.24410  0.56490  0.87820  Biso   1.000  H
  H13      1.0000 0.81530  0.61010  0.03420  Biso   1.000  H
  H14      1.0000 0.18470  0.38990  0.96580  Biso   1.000  H
  H15      1.0000 0.05160  0.74760  0.27830  Biso   1.000  H
  H16      1.0000 0.94840  0.25240  0.72170  Biso   1.000  H
  H17      1.0000 0.48400  0.89760  0.21640  Biso   1.000  H
  H18      1.0000 0.51600  0.10240  0.78360  Biso   1.000  H
  H19      1.0000 0.14380  0.98180  0.22660  Biso   1.000  H
  H20      1.0000 0.85620  0.01820  0.77340  Biso   1.000  H
  H21      1.0000 0.32890  0.53440  0.30160  Biso   1.000  H
  H22      1.0000 0.67110  0.46560  0.69840  Biso   1.000  H
  H23      1.0000 0.35190  0.18360  0.31770  Biso   1.000  H
  H24      1.0000 0.64810  0.81640  0.68230  Biso   1.000  H
  H25      1.0000 0.02450  0.32410  0.34920  Biso   1.000  H
  H26      1.0000 0.97550  0.67590  0.65080  Biso   1.000  H
  H27      1.0000 0.41140  0.24820  0.20940  Biso   1.000  H
  H28      1.0000 0.58860  0.75180  0.79060  Biso   1.000  H
  H29      1.0000 0.12400  0.43180  0.17790  Biso   1.000  H
  H30      1.0000 0.87600  0.56820  0.82210  Biso   1.000  H
  H31      1.0000 0.65970  0.60970  0.39900  Biso   1.000  H
  H32      1.0000 0.34030  0.39030  0.60100  Biso   1.000  H
  H33      1.0000 0.64600  0.39850  0.47680  Biso   1.000  H
  H34      1.0000 0.35400  0.60150  0.52320  Biso   1.000  H
  H35      1.0000 0.68310  0.20400  0.31990  Biso   1.000  H
  H36      1.0000 0.31690  0.79600  0.68010  Biso   1.000  H
  H37      1.0000 0.28280  0.63520  0.41310  Biso   1.000  H
  H38      1.0000 0.71720  0.36480  0.58690  Biso   1.000  H
  H39      1.0000 0.02460  0.11430  0.41840  Biso   1.000  H
  H40      1.0000 0.97540  0.88570  0.58160  Biso   1.000  H
  H41      1.0000 0.95000  0.67370  0.43610  Biso   1.000  H
  H42      1.0000 0.05000  0.32630  0.56390  Biso   1.000  H
  H43      1.0000 0.32500  0.91110  0.40190  Biso   1.000  H
  H44      1.0000 0.67500  0.08890  0.59810  Biso   1.000  H
