data_image0
_cell_length_a       8.3322
_cell_length_b       8.6563
_cell_length_c       11.581
_cell_angle_alpha    68.79
_cell_angle_beta     74.25
_cell_angle_gamma    70.99

_symmetry_space_group_name_H-M    "P 1"
_symmetry_int_tables_number       1

loop_
  _symmetry_equiv_pos_as_xyz
  'x, y, z'

loop_
  _atom_site_label
  _atom_site_occupancy
  _atom_site_fract_x
  _atom_site_fract_y
  _atom_site_fract_z
  _atom_site_thermal_displace_type
  _atom_site_B_iso_or_equiv
  _atom_site_type_symbol
  Cu1      1.0000 0.81076  0.54696  0.28460  Biso   1.000  Cu
  Cu2      1.0000 0.18924  0.45304  0.71540  Biso   1.000  Cu
  Cu3      1.0000 0.00000  0.50000  0.50000  Biso   1.000  Cu
  O1       1.0000 0.01190  0.57880  0.31500  Biso   1.000  O
  O2       1.0000 0.98810  0.42120  0.68500  Biso   1.000  O
  O3       1.0000 0.57890  0.53060  0.27570  Biso   1.000  O
  O4       1.0000 0.42110  0.46940  0.72430  Biso   1.000  O
  O5       1.0000 0.67740  0.61420  0.07660  Biso   1.000  O
  O6       1.0000 0.32260  0.38580  0.92340  Biso   1.000  O
  O7       1.0000 0.40870  0.60980  0.14170  Biso   1.000  O
  O8       1.0000 0.59130  0.39020  0.85830  Biso   1.000  O
  O9       1.0000 0.28550  0.54320  0.48630  Biso   1.000  O
  O10      1.0000 0.71450  0.45680  0.51370  Biso   1.000  O
  N1       1.0000 0.13900  0.26870  0.48950  Biso   1.000  N
  N2       1.0000 0.86100  0.73130  0.51050  Biso   1.000  N
  N3       1.0000 0.27560  0.26140  0.39110  Biso   1.000  N
  N4       1.0000 0.72440  0.73860  0.60890  Biso   1.000  N
  N5       1.0000 0.25590  0.99980  0.49690  Biso   1.000  N
  N6       1.0000 0.74410  0.00020  0.50310  Biso   1.000  N
  N7       1.0000 0.25860  0.82810  0.55200  Biso   1.000  N
  N8       1.0000 0.74140  0.17190  0.44800  Biso   1.000  N
  N9       1.0000 0.07640  0.69120  0.73030  Biso   1.000  N
  N10      1.0000 0.92360  0.30880  0.26970  Biso   1.000  N
  N11      1.0000 0.70730  0.80200  0.25080  Biso   1.000  N
  N12      1.0000 0.29270  0.19800  0.74920  Biso   1.000  N
  N13      1.0000 0.55380  0.58720  0.16030  Biso   1.000  N
  N14      1.0000 0.44620  0.41280  0.83970  Biso   1.000  N
  C1       1.0000 0.12900  0.10890  0.55330  Biso   1.000  C
  C2       1.0000 0.87100  0.89110  0.44670  Biso   1.000  C
  C3       1.0000 0.34620  0.09760  0.39660  Biso   1.000  C
  C4       1.0000 0.65380  0.90240  0.60340  Biso   1.000  C
  C5       1.0000 0.12630  0.83320  0.64790  Biso   1.000  C
  C6       1.0000 0.87370  0.16680  0.35210  Biso   1.000  C
  C7       1.0000 0.03710  0.00360  0.65670  Biso   1.000  C
  C8       1.0000 0.96290  0.99640  0.34330  Biso   1.000  C
  C9       1.0000 0.89780  0.02610  0.75250  Biso   1.000  C
  C10      1.0000 0.10220  0.97390  0.24750  Biso   1.000  C
  C11      1.0000 0.85080  0.87930  0.83650  Biso   1.000  C
  C12      1.0000 0.14920  0.12070  0.16350  Biso   1.000  C
  C13      1.0000 0.94130  0.71940  0.82040  Biso   1.000  C
  C14      1.0000 0.05870  0.28060  0.17960  Biso   1.000  C
  C15      1.0000 0.57060  0.86230  0.32900  Biso   1.000  C
  C16      1.0000 0.42940  0.13770  0.67100  Biso   1.000  C
  C17      1.0000 0.49340  0.03740  0.30800  Biso   1.000  C
  C18      1.0000 0.50660  0.96260  0.69200  Biso   1.000  C
  C19      1.0000 0.55910  0.15080  0.19960  Biso   1.000  C
  C20      1.0000 0.44090  0.84920  0.80040  Biso   1.000  C
  C21      1.0000 0.70170  0.08770  0.11980  Biso   1.000  C
  C22      1.0000 0.29830  0.91230  0.88020  Biso   1.000  C
  C23      1.0000 0.77390  0.91250  0.14930  Biso   1.000  C
  C24      1.0000 0.22610  0.08750  0.85070  Biso   1.000  C
  H1       1.0000 0.84000  0.13700  0.75500  Biso   1.000  H
  H2       1.0000 0.16000  0.86300  0.24500  Biso   1.000  H
  H3       1.0000 0.75900  0.88300  0.90200  Biso   1.000  H
  H4       1.0000 0.24100  0.11700  0.09800  Biso   1.000  H
  H5       1.0000 0.90800  0.61400  0.87800  Biso   1.000  H
  H6       1.0000 0.09200  0.38600  0.12200  Biso   1.000  H
  H7       1.0000 0.53200  0.80200  0.39700  Biso   1.000  H
  H8       1.0000 0.46800  0.19800  0.60300  Biso   1.000  H
  H9       1.0000 0.51200  0.27200  0.18300  Biso   1.000  H
  H10      1.0000 0.48800  0.72800  0.81700  Biso   1.000  H
  H11      1.0000 0.75400  0.16700  0.04600  Biso   1.000  H
  H12      1.0000 0.24600  0.83300  0.95400  Biso   1.000  H
  H13      1.0000 0.86500  0.87700  0.09400  Biso   1.000  H
  H14      1.0000 0.13500  0.12300  0.90600  Biso   1.000  H
  H15      1.0000 0.28600  0.64300  0.47700  Biso   1.000  H
  H16      1.0000 0.71400  0.35700  0.52300  Biso   1.000  H
  H17      1.0000 0.35300  0.52600  0.43400  Biso   1.000  H
  H18      1.0000 0.64700  0.47400  0.56600  Biso   1.000  H
  H19      1.0000 0.36600  0.78400  0.53500  Biso   1.000  H
  H20      1.0000 0.63400  0.21600  0.46500  Biso   1.000  H
