data_image0
_cell_length_a       30.6444
_cell_length_b       9.2536
_cell_length_c       8.241
_cell_angle_alpha    90
_cell_angle_beta     103.093
_cell_angle_gamma    90

_symmetry_space_group_name_H-M    "P 1"
_symmetry_int_tables_number       1

loop_
  _symmetry_equiv_pos_as_xyz
  'x, y, z'

loop_
  _atom_site_label
  _atom_site_occupancy
  _atom_site_fract_x
  _atom_site_fract_y
  _atom_site_fract_z
  _atom_site_thermal_displace_type
  _atom_site_B_iso_or_equiv
  _atom_site_type_symbol
  Cu1      1.0000 0.21604  0.01243  0.08662  Biso   1.000  Cu
  Cu2      1.0000 0.78395  0.01243  0.41338  Biso   1.000  Cu
  Cu3      1.0000 0.71605  0.51243  0.08662  Biso   1.000  Cu
  Cu4      1.0000 0.28395  0.51243  0.41338  Biso   1.000  Cu
  Cu5      1.0000 0.78395  0.98757  0.91338  Biso   1.000  Cu
  Cu6      1.0000 0.21605  0.98757  0.58662  Biso   1.000  Cu
  Cu7      1.0000 0.28395  0.48757  0.91338  Biso   1.000  Cu
  Cu8      1.0000 0.71605  0.48757  0.58662  Biso   1.000  Cu
  O1       1.0000 0.19409  0.20170  0.98400  Biso   1.000  O
  O2       1.0000 0.80591  0.20170  0.51600  Biso   1.000  O
  O3       1.0000 0.69409  0.70170  0.98400  Biso   1.000  O
  O4       1.0000 0.30591  0.70170  0.51600  Biso   1.000  O
  O5       1.0000 0.80591  0.79830  0.01600  Biso   1.000  O
  O6       1.0000 0.19409  0.79830  0.48400  Biso   1.000  O
  O7       1.0000 0.30591  0.29830  0.01600  Biso   1.000  O
  O8       1.0000 0.69409  0.29830  0.48400  Biso   1.000  O
  O9       1.0000 0.22344  0.40800  0.91650  Biso   1.000  O
  O10      1.0000 0.77656  0.40800  0.58350  Biso   1.000  O
  O11      1.0000 0.72344  0.90800  0.91650  Biso   1.000  O
  O12      1.0000 0.27656  0.90800  0.58350  Biso   1.000  O
  O13      1.0000 0.77656  0.59200  0.08350  Biso   1.000  O
  O14      1.0000 0.22344  0.59200  0.41650  Biso   1.000  O
  O15      1.0000 0.27656  0.09200  0.08350  Biso   1.000  O
  O16      1.0000 0.72344  0.09200  0.41650  Biso   1.000  O
  O17      1.0000 0.22267  0.87630  0.85510  Biso   1.000  O
  O18      1.0000 0.77733  0.87630  0.64490  Biso   1.000  O
  O19      1.0000 0.72267  0.37630  0.85510  Biso   1.000  O
  O20      1.0000 0.27733  0.37630  0.64490  Biso   1.000  O
  O21      1.0000 0.77733  0.12370  0.14490  Biso   1.000  O
  O22      1.0000 0.22267  0.12370  0.35510  Biso   1.000  O
  O23      1.0000 0.27733  0.62370  0.14490  Biso   1.000  O
  O24      1.0000 0.72267  0.62370  0.35510  Biso   1.000  O
  O25      1.0000 0.25542  0.66850  0.81270  Biso   1.000  O
  O26      1.0000 0.74458  0.66850  0.68730  Biso   1.000  O
  O27      1.0000 0.75542  0.16850  0.81270  Biso   1.000  O
  O28      1.0000 0.24458  0.16850  0.68730  Biso   1.000  O
  O29      1.0000 0.74458  0.33150  0.18730  Biso   1.000  O
  O30      1.0000 0.25542  0.33150  0.31270  Biso   1.000  O
  O31      1.0000 0.24458  0.83150  0.18730  Biso   1.000  O
  O32      1.0000 0.75542  0.83150  0.31270  Biso   1.000  O
  N1       1.0000 0.15457  0.95270  0.10270  Biso   1.000  N
  N2       1.0000 0.84543  0.95270  0.39730  Biso   1.000  N
  N3       1.0000 0.65457  0.45270  0.10270  Biso   1.000  N
  N4       1.0000 0.34543  0.45270  0.39730  Biso   1.000  N
  N5       1.0000 0.84543  0.04730  0.89730  Biso   1.000  N
  N6       1.0000 0.15457  0.04730  0.60270  Biso   1.000  N
  N7       1.0000 0.34543  0.54730  0.89730  Biso   1.000  N
  N8       1.0000 0.65457  0.54730  0.60270  Biso   1.000  N
  N9       1.0000 0.01988  0.68880  0.22710  Biso   1.000  N
  N10      1.0000 0.98012  0.68880  0.27290  Biso   1.000  N
  N11      1.0000 0.51988  0.18880  0.22710  Biso   1.000  N
  N12      1.0000 0.48012  0.18880  0.27290  Biso   1.000  N
  N13      1.0000 0.98012  0.31120  0.77290  Biso   1.000  N
  N14      1.0000 0.01988  0.31120  0.72710  Biso   1.000  N
  N15      1.0000 0.48012  0.81120  0.77290  Biso   1.000  N
  N16      1.0000 0.51988  0.81120  0.72710  Biso   1.000  N
  N17      1.0000 0.00000  0.91600  0.25000  Biso   1.000  N
  N18      1.0000 0.50000  0.41600  0.25000  Biso   1.000  N
  N19      1.0000 0.00000  0.08400  0.75000  Biso   1.000  N
  N20      1.0000 0.50000  0.58400  0.75000  Biso   1.000  N
  H1       1.0000 0.00000  0.00890  0.25000  Biso   1.000  H
  H2       1.0000 0.50000  0.50890  0.25000  Biso   1.000  H
  H3       1.0000 0.00000  0.99110  0.75000  Biso   1.000  H
  H4       1.0000 0.50000  0.49110  0.75000  Biso   1.000  H
  C1       1.0000 0.03097  0.82660  0.21410  Biso   1.000  C
  C2       1.0000 0.96903  0.82660  0.28590  Biso   1.000  C
  C3       1.0000 0.53097  0.32660  0.21410  Biso   1.000  C
  C4       1.0000 0.46903  0.32660  0.28590  Biso   1.000  C
  C5       1.0000 0.96903  0.17340  0.78590  Biso   1.000  C
  C6       1.0000 0.03097  0.17340  0.71410  Biso   1.000  C
  C7       1.0000 0.46903  0.67340  0.78590  Biso   1.000  C
  C8       1.0000 0.53097  0.67340  0.71410  Biso   1.000  C
  C9       1.0000 0.12757  0.04910  0.15160  Biso   1.000  C
  C10      1.0000 0.87243  0.04910  0.34840  Biso   1.000  C
  C11      1.0000 0.62757  0.54910  0.15160  Biso   1.000  C
  C12      1.0000 0.37243  0.54910  0.34840  Biso   1.000  C
  C13      1.0000 0.87243  0.95090  0.84840  Biso   1.000  C
  C14      1.0000 0.12757  0.95090  0.65160  Biso   1.000  C
  C15      1.0000 0.37243  0.45090  0.84840  Biso   1.000  C
  C16      1.0000 0.62757  0.45090  0.65160  Biso   1.000  C
  H5       1.0000 0.13650  0.14530  0.16210  Biso   1.000  H
  H6       1.0000 0.86350  0.14530  0.33790  Biso   1.000  H
  H7       1.0000 0.63650  0.64530  0.16210  Biso   1.000  H
  H8       1.0000 0.36350  0.64530  0.33790  Biso   1.000  H
  H9       1.0000 0.86350  0.85470  0.83790  Biso   1.000  H
  H10      1.0000 0.13650  0.85470  0.66210  Biso   1.000  H
  H11      1.0000 0.36350  0.35470  0.83790  Biso   1.000  H
  H12      1.0000 0.63650  0.35470  0.66210  Biso   1.000  H
  C17      1.0000 0.08731  0.01270  0.18690  Biso   1.000  C
  C18      1.0000 0.91269  0.01270  0.31310  Biso   1.000  C
  C19      1.0000 0.58731  0.51270  0.18690  Biso   1.000  C
  C20      1.0000 0.41269  0.51270  0.31310  Biso   1.000  C
  C21      1.0000 0.91269  0.98730  0.81310  Biso   1.000  C
  C22      1.0000 0.08731  0.98730  0.68690  Biso   1.000  C
  C23      1.0000 0.41269  0.48730  0.81310  Biso   1.000  C
  C24      1.0000 0.58731  0.48730  0.68690  Biso   1.000  C
  H13      1.0000 0.06990  0.08310  0.22220  Biso   1.000  H
  H14      1.0000 0.93010  0.08310  0.27780  Biso   1.000  H
  H15      1.0000 0.56990  0.58310  0.22220  Biso   1.000  H
  H16      1.0000 0.43010  0.58310  0.27780  Biso   1.000  H
  H17      1.0000 0.93010  0.91690  0.77780  Biso   1.000  H
  H18      1.0000 0.06990  0.91690  0.72220  Biso   1.000  H
  H19      1.0000 0.43010  0.41690  0.77780  Biso   1.000  H
  H20      1.0000 0.56990  0.41690  0.72220  Biso   1.000  H
  C25      1.0000 0.07284  0.87120  0.16990  Biso   1.000  C
  C26      1.0000 0.92716  0.87120  0.33010  Biso   1.000  C
  C27      1.0000 0.57284  0.37120  0.16990  Biso   1.000  C
  C28      1.0000 0.42716  0.37120  0.33010  Biso   1.000  C
  C29      1.0000 0.92716  0.12880  0.83010  Biso   1.000  C
  C30      1.0000 0.07284  0.12880  0.66990  Biso   1.000  C
  C31      1.0000 0.42716  0.62880  0.83010  Biso   1.000  C
  C32      1.0000 0.57284  0.62880  0.66990  Biso   1.000  C
  C33      1.0000 0.09998  0.77130  0.11490  Biso   1.000  C
  C34      1.0000 0.90002  0.77130  0.38510  Biso   1.000  C
  C35      1.0000 0.59998  0.27130  0.11490  Biso   1.000  C
  C36      1.0000 0.40002  0.27130  0.38510  Biso   1.000  C
  C37      1.0000 0.90002  0.22870  0.88510  Biso   1.000  C
  C38      1.0000 0.09998  0.22870  0.61490  Biso   1.000  C
  C39      1.0000 0.40002  0.72870  0.88510  Biso   1.000  C
  C40      1.0000 0.59998  0.72870  0.61490  Biso   1.000  C
  H21      1.0000 0.09110  0.67540  0.09830  Biso   1.000  H
  H22      1.0000 0.90890  0.67540  0.40170  Biso   1.000  H
  H23      1.0000 0.59110  0.17540  0.09830  Biso   1.000  H
  H24      1.0000 0.40890  0.17540  0.40170  Biso   1.000  H
  H25      1.0000 0.90890  0.32460  0.90170  Biso   1.000  H
  H26      1.0000 0.09110  0.32460  0.59830  Biso   1.000  H
  H27      1.0000 0.40890  0.82460  0.90170  Biso   1.000  H
  H28      1.0000 0.59110  0.82460  0.59830  Biso   1.000  H
  C41      1.0000 0.14035  0.81620  0.08510  Biso   1.000  C
  C42      1.0000 0.85965  0.81620  0.41490  Biso   1.000  C
  C43      1.0000 0.64035  0.31620  0.08510  Biso   1.000  C
  C44      1.0000 0.35965  0.31620  0.41490  Biso   1.000  C
  C45      1.0000 0.85965  0.18380  0.91490  Biso   1.000  C
  C46      1.0000 0.14035  0.18380  0.58510  Biso   1.000  C
  C47      1.0000 0.35965  0.68380  0.91490  Biso   1.000  C
  C48      1.0000 0.64035  0.68380  0.58510  Biso   1.000  C
  H29      1.0000 0.15860  0.74770  0.05100  Biso   1.000  H
  H30      1.0000 0.84140  0.74770  0.44900  Biso   1.000  H
  H31      1.0000 0.65860  0.24770  0.05100  Biso   1.000  H
  H32      1.0000 0.34140  0.24770  0.44900  Biso   1.000  H
  H33      1.0000 0.84140  0.25230  0.94900  Biso   1.000  H
  H34      1.0000 0.15860  0.25230  0.55100  Biso   1.000  H
  H35      1.0000 0.34140  0.75230  0.94900  Biso   1.000  H
  H36      1.0000 0.65860  0.75230  0.55100  Biso   1.000  H
  C49      1.0000 0.22631  0.28150  0.97140  Biso   1.000  C
  C50      1.0000 0.77369  0.28150  0.52860  Biso   1.000  C
  C51      1.0000 0.72631  0.78150  0.97140  Biso   1.000  C
  C52      1.0000 0.27369  0.78150  0.52860  Biso   1.000  C
  C53      1.0000 0.77369  0.71850  0.02860  Biso   1.000  C
  C54      1.0000 0.22631  0.71850  0.47140  Biso   1.000  C
  C55      1.0000 0.27369  0.21850  0.02860  Biso   1.000  C
  C56      1.0000 0.72631  0.21850  0.47140  Biso   1.000  C
  C57      1.0000 0.24357  0.76350  0.90410  Biso   1.000  C
  C58      1.0000 0.75643  0.76350  0.59590  Biso   1.000  C
  C59      1.0000 0.74357  0.26350  0.90410  Biso   1.000  C
  C60      1.0000 0.25643  0.26350  0.59590  Biso   1.000  C
  C61      1.0000 0.75643  0.23650  0.09590  Biso   1.000  C
  C62      1.0000 0.24357  0.23650  0.40410  Biso   1.000  C
  C63      1.0000 0.25643  0.73650  0.09590  Biso   1.000  C
  C64      1.0000 0.74357  0.73650  0.40410  Biso   1.000  C
  O33      1.0000 0.15231  0.56260  0.68550  Biso   1.000  O
  O34      1.0000 0.84769  0.56260  0.81450  Biso   1.000  O
  O35      1.0000 0.65231  0.06260  0.68550  Biso   1.000  O
  O36      1.0000 0.34769  0.06260  0.81450  Biso   1.000  O
  O37      1.0000 0.84769  0.43740  0.31450  Biso   1.000  O
  O38      1.0000 0.15231  0.43740  0.18550  Biso   1.000  O
  O39      1.0000 0.34769  0.93740  0.31450  Biso   1.000  O
  O40      1.0000 0.65231  0.93740  0.18550  Biso   1.000  O
  H37      1.0000 0.13320  0.58100  0.59600  Biso   1.000  H
  H38      1.0000 0.86680  0.58100  0.90400  Biso   1.000  H
  H39      1.0000 0.63320  0.08100  0.59600  Biso   1.000  H
  H40      1.0000 0.36680  0.08100  0.90400  Biso   1.000  H
  H41      1.0000 0.86680  0.41900  0.40400  Biso   1.000  H
  H42      1.0000 0.13320  0.41900  0.09600  Biso   1.000  H
  H43      1.0000 0.36680  0.91900  0.40400  Biso   1.000  H
  H44      1.0000 0.63320  0.91900  0.09600  Biso   1.000  H
  H45      1.0000 0.14200  0.57700  0.77000  Biso   1.000  H
  H46      1.0000 0.85800  0.57700  0.73000  Biso   1.000  H
  H47      1.0000 0.64200  0.07700  0.77000  Biso   1.000  H
  H48      1.0000 0.35800  0.07700  0.73000  Biso   1.000  H
  H49      1.0000 0.85800  0.42300  0.23000  Biso   1.000  H
  H50      1.0000 0.14200  0.42300  0.27000  Biso   1.000  H
  H51      1.0000 0.35800  0.92300  0.23000  Biso   1.000  H
  H52      1.0000 0.64200  0.92300  0.27000  Biso   1.000  H
  O41      1.0000 0.00000  0.22720  0.25000  Biso   1.000  O
  O42      1.0000 0.50000  0.72720  0.25000  Biso   1.000  O
  O43      1.0000 0.00000  0.77280  0.75000  Biso   1.000  O
  O44      1.0000 0.50000  0.27280  0.75000  Biso   1.000  O
  H53      1.0000 0.99300  0.27470  0.16280  Biso   1.000  H
  H54      1.0000 0.00700  0.27470  0.33720  Biso   1.000  H
  H55      1.0000 0.49300  0.77470  0.16280  Biso   1.000  H
  H56      1.0000 0.50700  0.77470  0.33720  Biso   1.000  H
  H57      1.0000 0.00700  0.72530  0.83720  Biso   1.000  H
  H58      1.0000 0.99300  0.72530  0.66280  Biso   1.000  H
  H59      1.0000 0.50700  0.22530  0.83720  Biso   1.000  H
  H60      1.0000 0.49300  0.22530  0.66280  Biso   1.000  H
  O45      1.0000 0.06240  0.41660  0.20590  Biso   1.000  O
  O46      1.0000 0.93760  0.41660  0.29410  Biso   1.000  O
  O47      1.0000 0.56240  0.91660  0.20590  Biso   1.000  O
  O48      1.0000 0.43760  0.91660  0.29410  Biso   1.000  O
  O49      1.0000 0.93760  0.58340  0.79410  Biso   1.000  O
  O50      1.0000 0.06240  0.58340  0.70590  Biso   1.000  O
  O51      1.0000 0.43760  0.08340  0.79410  Biso   1.000  O
  O52      1.0000 0.56240  0.08340  0.70590  Biso   1.000  O
  H61      1.0000 0.05200  0.46100  0.11800  Biso   1.000  H
  H62      1.0000 0.94800  0.46100  0.38200  Biso   1.000  H
  H63      1.0000 0.55200  0.96100  0.11800  Biso   1.000  H
  H64      1.0000 0.44800  0.96100  0.38200  Biso   1.000  H
  H65      1.0000 0.94800  0.53900  0.88200  Biso   1.000  H
  H66      1.0000 0.05200  0.53900  0.61800  Biso   1.000  H
  H67      1.0000 0.44800  0.03900  0.88200  Biso   1.000  H
  H68      1.0000 0.55200  0.03900  0.61800  Biso   1.000  H
  H69      1.0000 0.07000  0.46500  0.29200  Biso   1.000  H
  H70      1.0000 0.93000  0.46500  0.20800  Biso   1.000  H
  H71      1.0000 0.57000  0.96500  0.29200  Biso   1.000  H
  H72      1.0000 0.43000  0.96500  0.20800  Biso   1.000  H
  H73      1.0000 0.93000  0.53500  0.70800  Biso   1.000  H
  H74      1.0000 0.07000  0.53500  0.79200  Biso   1.000  H
  H75      1.0000 0.43000  0.03500  0.70800  Biso   1.000  H
  H76      1.0000 0.57000  0.03500  0.79200  Biso   1.000  H
