data_image0
_cell_length_a       13.031
_cell_length_b       9.196
_cell_length_c       21.758
_cell_angle_alpha    90
_cell_angle_beta     90
_cell_angle_gamma    90

_symmetry_space_group_name_H-M    "P 1"
_symmetry_int_tables_number       1

loop_
  _symmetry_equiv_pos_as_xyz
  'x, y, z'

loop_
  _atom_site_label
  _atom_site_occupancy
  _atom_site_fract_x
  _atom_site_fract_y
  _atom_site_fract_z
  _atom_site_thermal_displace_type
  _atom_site_B_iso_or_equiv
  _atom_site_type_symbol
  Cu1      1.0000 0.50000  0.00000  0.50000  Biso   1.000  Cu
  Cu2      1.0000 0.00000  0.00000  0.00000  Biso   1.000  Cu
  Cu3      1.0000 0.00000  0.50000  0.50000  Biso   1.000  Cu
  Cu4      1.0000 0.50000  0.50000  0.00000  Biso   1.000  Cu
  N1       1.0000 0.52666  0.20750  0.52606  Biso   1.000  N
  N2       1.0000 0.97334  0.79250  0.02606  Biso   1.000  N
  N3       1.0000 0.02666  0.29250  0.47394  Biso   1.000  N
  N4       1.0000 0.47334  0.70750  0.97394  Biso   1.000  N
  N5       1.0000 0.47334  0.79250  0.47394  Biso   1.000  N
  N6       1.0000 0.02666  0.20750  0.97394  Biso   1.000  N
  N7       1.0000 0.97334  0.70750  0.52606  Biso   1.000  N
  N8       1.0000 0.52666  0.29250  0.02606  Biso   1.000  N
  N9       1.0000 0.31872  0.79391  0.66200  Biso   1.000  N
  N10      1.0000 0.18128  0.20609  0.16200  Biso   1.000  N
  N11      1.0000 0.81872  0.70609  0.33800  Biso   1.000  N
  N12      1.0000 0.68128  0.29391  0.83800  Biso   1.000  N
  N13      1.0000 0.68128  0.20609  0.33800  Biso   1.000  N
  N14      1.0000 0.81872  0.79391  0.83800  Biso   1.000  N
  N15      1.0000 0.18128  0.29391  0.66200  Biso   1.000  N
  N16      1.0000 0.31872  0.70609  0.16200  Biso   1.000  N
  O1       1.0000 0.45274  0.95284  0.58342  Biso   1.000  O
  O2       1.0000 0.04726  0.04716  0.08342  Biso   1.000  O
  O3       1.0000 0.95274  0.54716  0.41658  Biso   1.000  O
  O4       1.0000 0.54726  0.45284  0.91658  Biso   1.000  O
  O5       1.0000 0.54726  0.04716  0.41658  Biso   1.000  O
  O6       1.0000 0.95274  0.95284  0.91658  Biso   1.000  O
  O7       1.0000 0.04726  0.45284  0.58342  Biso   1.000  O
  O8       1.0000 0.45274  0.54716  0.08342  Biso   1.000  O
  O9       1.0000 0.59953  0.96935  0.63776  Biso   1.000  O
  O10      1.0000 0.90047  0.03065  0.13776  Biso   1.000  O
  O11      1.0000 0.09953  0.53065  0.36224  Biso   1.000  O
  O12      1.0000 0.40047  0.46935  0.86224  Biso   1.000  O
  O13      1.0000 0.40047  0.03065  0.36224  Biso   1.000  O
  O14      1.0000 0.09953  0.96935  0.86224  Biso   1.000  O
  O15      1.0000 0.90047  0.46935  0.63776  Biso   1.000  O
  O16      1.0000 0.59953  0.53065  0.13776  Biso   1.000  O
  O17      1.0000 0.22997  0.78377  0.64386  Biso   1.000  O
  O18      1.0000 0.27003  0.21623  0.14386  Biso   1.000  O
  O19      1.0000 0.72997  0.71623  0.35614  Biso   1.000  O
  O20      1.0000 0.77003  0.28377  0.85614  Biso   1.000  O
  O21      1.0000 0.77003  0.21623  0.35614  Biso   1.000  O
  O22      1.0000 0.72997  0.78377  0.85614  Biso   1.000  O
  O23      1.0000 0.27003  0.28377  0.64386  Biso   1.000  O
  O24      1.0000 0.22997  0.71623  0.14386  Biso   1.000  O
  O25      1.0000 0.38546  0.70275  0.65175  Biso   1.000  O
  O26      1.0000 0.11454  0.29725  0.15175  Biso   1.000  O
  O27      1.0000 0.88546  0.79725  0.34825  Biso   1.000  O
  O28      1.0000 0.61454  0.20275  0.84825  Biso   1.000  O
  O29      1.0000 0.61454  0.29725  0.34825  Biso   1.000  O
  O30      1.0000 0.88546  0.70275  0.84825  Biso   1.000  O
  O31      1.0000 0.11454  0.20275  0.65175  Biso   1.000  O
  O32      1.0000 0.38546  0.79725  0.15175  Biso   1.000  O
  O33      1.0000 0.82220  0.42399  0.52317  Biso   1.000  O
  O34      1.0000 0.67780  0.57601  0.02317  Biso   1.000  O
  O35      1.0000 0.32220  0.07601  0.47683  Biso   1.000  O
  O36      1.0000 0.17780  0.92399  0.97683  Biso   1.000  O
  O37      1.0000 0.17780  0.57601  0.47683  Biso   1.000  O
  O38      1.0000 0.32220  0.42399  0.97683  Biso   1.000  O
  O39      1.0000 0.67780  0.92399  0.52317  Biso   1.000  O
  O40      1.0000 0.82220  0.07601  0.02317  Biso   1.000  O
  H1       1.0000 0.82860  0.43520  0.56130  Biso   1.000  H
  H2       1.0000 0.67140  0.56480  0.06130  Biso   1.000  H
  H3       1.0000 0.32860  0.06480  0.43870  Biso   1.000  H
  H4       1.0000 0.17140  0.93520  0.93870  Biso   1.000  H
  H5       1.0000 0.17140  0.56480  0.43870  Biso   1.000  H
  H6       1.0000 0.32860  0.43520  0.93870  Biso   1.000  H
  H7       1.0000 0.67140  0.93520  0.56130  Biso   1.000  H
  H8       1.0000 0.82860  0.06480  0.06130  Biso   1.000  H
  C1       1.0000 0.50468  0.96627  0.63275  Biso   1.000  C
  C2       1.0000 0.99532  0.03373  0.13275  Biso   1.000  C
  C3       1.0000 0.00468  0.53373  0.36725  Biso   1.000  C
  C4       1.0000 0.49532  0.46627  0.86725  Biso   1.000  C
  C5       1.0000 0.49532  0.03373  0.36725  Biso   1.000  C
  C6       1.0000 0.00468  0.96627  0.86725  Biso   1.000  C
  C7       1.0000 0.99532  0.46627  0.63275  Biso   1.000  C
  C8       1.0000 0.50468  0.53373  0.13275  Biso   1.000  C
  C9       1.0000 0.43954  0.99064  0.68948  Biso   1.000  C
  C10      1.0000 0.06046  0.00936  0.18948  Biso   1.000  C
  C11      1.0000 0.93954  0.50936  0.31052  Biso   1.000  C
  C12      1.0000 0.56046  0.49064  0.81052  Biso   1.000  C
  C13      1.0000 0.56046  0.00936  0.31052  Biso   1.000  C
  C14      1.0000 0.93954  0.99064  0.81052  Biso   1.000  C
  C15      1.0000 0.06046  0.49064  0.68948  Biso   1.000  C
  C16      1.0000 0.43954  0.50936  0.18948  Biso   1.000  C
  C17      1.0000 0.34603  0.92023  0.69976  Biso   1.000  C
  C18      1.0000 0.15397  0.07977  0.19976  Biso   1.000  C
  C19      1.0000 0.84603  0.57977  0.30024  Biso   1.000  C
  C20      1.0000 0.65397  0.42023  0.80024  Biso   1.000  C
  C21      1.0000 0.65397  0.07977  0.30024  Biso   1.000  C
  C22      1.0000 0.84603  0.92023  0.80024  Biso   1.000  C
  C23      1.0000 0.15397  0.42023  0.69976  Biso   1.000  C
  C24      1.0000 0.34603  0.57977  0.19976  Biso   1.000  C
  C25      1.0000 0.27816  0.96012  0.74569  Biso   1.000  C
  C26      1.0000 0.22184  0.03988  0.24569  Biso   1.000  C
  C27      1.0000 0.77816  0.53988  0.25431  Biso   1.000  C
  C28      1.0000 0.72184  0.46012  0.75431  Biso   1.000  C
  C29      1.0000 0.72184  0.03988  0.25431  Biso   1.000  C
  C30      1.0000 0.77816  0.96012  0.75431  Biso   1.000  C
  C31      1.0000 0.22184  0.46012  0.74569  Biso   1.000  C
  C32      1.0000 0.27816  0.53988  0.24569  Biso   1.000  C
  H9       1.0000 0.21450  0.91100  0.75060  Biso   1.000  H
  H10      1.0000 0.28550  0.08900  0.25060  Biso   1.000  H
  H11      1.0000 0.71450  0.58900  0.24940  Biso   1.000  H
  H12      1.0000 0.78550  0.41100  0.74940  Biso   1.000  H
  H13      1.0000 0.78550  0.08900  0.24940  Biso   1.000  H
  H14      1.0000 0.71450  0.91100  0.74940  Biso   1.000  H
  H15      1.0000 0.28550  0.41100  0.75060  Biso   1.000  H
  H16      1.0000 0.21450  0.58900  0.25060  Biso   1.000  H
  C33      1.0000 0.30529  0.07380  0.78453  Biso   1.000  C
  C34      1.0000 0.19471  0.92620  0.28453  Biso   1.000  C
  C35      1.0000 0.80529  0.42620  0.21547  Biso   1.000  C
  C36      1.0000 0.69471  0.57380  0.71547  Biso   1.000  C
  C37      1.0000 0.69471  0.92620  0.21547  Biso   1.000  C
  C38      1.0000 0.80529  0.07380  0.71547  Biso   1.000  C
  C39      1.0000 0.19471  0.57380  0.78453  Biso   1.000  C
  C40      1.0000 0.30529  0.42620  0.28453  Biso   1.000  C
  H17      1.0000 0.26000  0.10340  0.81640  Biso   1.000  H
  H18      1.0000 0.24000  0.89660  0.31640  Biso   1.000  H
  H19      1.0000 0.76000  0.39660  0.18360  Biso   1.000  H
  H20      1.0000 0.74000  0.60340  0.68360  Biso   1.000  H
  H21      1.0000 0.74000  0.89660  0.18360  Biso   1.000  H
  H22      1.0000 0.76000  0.10340  0.68360  Biso   1.000  H
  H23      1.0000 0.24000  0.60340  0.81640  Biso   1.000  H
  H24      1.0000 0.26000  0.39660  0.31640  Biso   1.000  H
  C41      1.0000 0.39890  0.14411  0.77663  Biso   1.000  C
  C42      1.0000 0.10110  0.85589  0.27663  Biso   1.000  C
  C43      1.0000 0.89890  0.35589  0.22337  Biso   1.000  C
  C44      1.0000 0.60110  0.64411  0.72337  Biso   1.000  C
  C45      1.0000 0.60110  0.85589  0.22337  Biso   1.000  C
  C46      1.0000 0.89890  0.14411  0.72337  Biso   1.000  C
  C47      1.0000 0.10110  0.64411  0.77663  Biso   1.000  C
  C48      1.0000 0.39890  0.35589  0.27663  Biso   1.000  C
  H25      1.0000 0.41770  0.22100  0.80350  Biso   1.000  H
  H26      1.0000 0.08230  0.77900  0.30350  Biso   1.000  H
  H27      1.0000 0.91770  0.27900  0.19650  Biso   1.000  H
  H28      1.0000 0.58230  0.72100  0.69650  Biso   1.000  H
  H29      1.0000 0.58230  0.77900  0.19650  Biso   1.000  H
  H30      1.0000 0.91770  0.22100  0.69650  Biso   1.000  H
  H31      1.0000 0.08230  0.72100  0.80350  Biso   1.000  H
  H32      1.0000 0.41770  0.27900  0.30350  Biso   1.000  H
  C49      1.0000 0.46529  0.10282  0.72959  Biso   1.000  C
  C50      1.0000 0.03471  0.89718  0.22959  Biso   1.000  C
  C51      1.0000 0.96529  0.39718  0.27041  Biso   1.000  C
  C52      1.0000 0.53471  0.60282  0.77041  Biso   1.000  C
  C53      1.0000 0.53471  0.89718  0.27041  Biso   1.000  C
  C54      1.0000 0.96529  0.10282  0.77041  Biso   1.000  C
  C55      1.0000 0.03471  0.60282  0.72959  Biso   1.000  C
  C56      1.0000 0.46529  0.39718  0.22959  Biso   1.000  C
  H33      1.0000 0.52900  0.15180  0.72480  Biso   1.000  H
  H34      1.0000 0.97100  0.84820  0.22480  Biso   1.000  H
  H35      1.0000 0.02900  0.34820  0.27520  Biso   1.000  H
  H36      1.0000 0.47100  0.65180  0.77520  Biso   1.000  H
  H37      1.0000 0.47100  0.84820  0.27520  Biso   1.000  H
  H38      1.0000 0.02900  0.15180  0.77520  Biso   1.000  H
  H39      1.0000 0.97100  0.65180  0.72480  Biso   1.000  H
  H40      1.0000 0.52900  0.34820  0.22480  Biso   1.000  H
  C57      1.0000 0.60807  0.28192  0.50502  Biso   1.000  C
  C58      1.0000 0.89193  0.71808  0.00502  Biso   1.000  C
  C59      1.0000 0.10807  0.21808  0.49498  Biso   1.000  C
  C60      1.0000 0.39193  0.78192  0.99498  Biso   1.000  C
  C61      1.0000 0.39193  0.71808  0.49498  Biso   1.000  C
  C62      1.0000 0.10807  0.28192  0.99498  Biso   1.000  C
  C63      1.0000 0.89193  0.78192  0.50502  Biso   1.000  C
  C64      1.0000 0.60807  0.21808  0.00502  Biso   1.000  C
  H41      1.0000 0.64900  0.23920  0.47370  Biso   1.000  H
  H42      1.0000 0.85100  0.76080  0.97370  Biso   1.000  H
  H43      1.0000 0.14900  0.26080  0.52630  Biso   1.000  H
  H44      1.0000 0.35100  0.73920  0.02630  Biso   1.000  H
  H45      1.0000 0.35100  0.76080  0.52630  Biso   1.000  H
  H46      1.0000 0.14900  0.23920  0.02630  Biso   1.000  H
  H47      1.0000 0.85100  0.73920  0.47370  Biso   1.000  H
  H48      1.0000 0.64900  0.26080  0.97370  Biso   1.000  H
  C65      1.0000 0.63523  0.41879  0.52697  Biso   1.000  C
  C66      1.0000 0.86477  0.58121  0.02697  Biso   1.000  C
  C67      1.0000 0.13523  0.08121  0.47303  Biso   1.000  C
  C68      1.0000 0.36477  0.91879  0.97303  Biso   1.000  C
  C69      1.0000 0.36477  0.58121  0.47303  Biso   1.000  C
  C70      1.0000 0.13523  0.41879  0.97303  Biso   1.000  C
  C71      1.0000 0.86477  0.91879  0.52697  Biso   1.000  C
  C72      1.0000 0.63523  0.08121  0.02697  Biso   1.000  C
  C73      1.0000 0.57248  0.48217  0.57130  Biso   1.000  C
  C74      1.0000 0.92752  0.51783  0.07130  Biso   1.000  C
  C75      1.0000 0.07248  0.01783  0.42870  Biso   1.000  C
  C76      1.0000 0.42752  0.98217  0.92870  Biso   1.000  C
  C77      1.0000 0.42752  0.51783  0.42870  Biso   1.000  C
  C78      1.0000 0.07248  0.48217  0.92870  Biso   1.000  C
  C79      1.0000 0.92752  0.98217  0.57130  Biso   1.000  C
  C80      1.0000 0.57248  0.01783  0.07130  Biso   1.000  C
  H49      1.0000 0.58810  0.57590  0.58710  Biso   1.000  H
  H50      1.0000 0.91190  0.42410  0.08710  Biso   1.000  H
  H51      1.0000 0.08810  0.92410  0.41290  Biso   1.000  H
  H52      1.0000 0.41190  0.07590  0.91290  Biso   1.000  H
  H53      1.0000 0.41190  0.42410  0.41290  Biso   1.000  H
  H54      1.0000 0.08810  0.57590  0.91290  Biso   1.000  H
  H55      1.0000 0.91190  0.07590  0.58710  Biso   1.000  H
  H56      1.0000 0.58810  0.92410  0.08710  Biso   1.000  H
  C81      1.0000 0.48686  0.40704  0.59228  Biso   1.000  C
  C82      1.0000 0.01314  0.59296  0.09228  Biso   1.000  C
  C83      1.0000 0.98686  0.09296  0.40772  Biso   1.000  C
  C84      1.0000 0.51314  0.90704  0.90772  Biso   1.000  C
  C85      1.0000 0.51314  0.59296  0.40772  Biso   1.000  C
  C86      1.0000 0.98686  0.40704  0.90772  Biso   1.000  C
  C87      1.0000 0.01314  0.90704  0.59228  Biso   1.000  C
  C88      1.0000 0.48686  0.09296  0.09228  Biso   1.000  C
  H57      1.0000 0.44300  0.44890  0.62230  Biso   1.000  H
  H58      1.0000 0.05700  0.55110  0.12230  Biso   1.000  H
  H59      1.0000 0.94300  0.05110  0.37770  Biso   1.000  H
  H60      1.0000 0.55700  0.94890  0.87770  Biso   1.000  H
  H61      1.0000 0.55700  0.55110  0.37770  Biso   1.000  H
  H62      1.0000 0.94300  0.44890  0.87770  Biso   1.000  H
  H63      1.0000 0.05700  0.94890  0.62230  Biso   1.000  H
  H64      1.0000 0.44300  0.05110  0.12230  Biso   1.000  H
  C89      1.0000 0.46659  0.27060  0.56882  Biso   1.000  C
  C90      1.0000 0.03341  0.72940  0.06882  Biso   1.000  C
  C91      1.0000 0.96659  0.22940  0.43118  Biso   1.000  C
  C92      1.0000 0.53341  0.77060  0.93118  Biso   1.000  C
  C93      1.0000 0.53341  0.72940  0.43118  Biso   1.000  C
  C94      1.0000 0.96659  0.27060  0.93118  Biso   1.000  C
  C95      1.0000 0.03341  0.77060  0.56882  Biso   1.000  C
  C96      1.0000 0.46659  0.22940  0.06882  Biso   1.000  C
  H65      1.0000 0.40810  0.21930  0.58340  Biso   1.000  H
  H66      1.0000 0.09190  0.78070  0.08340  Biso   1.000  H
  H67      1.0000 0.90810  0.28070  0.41660  Biso   1.000  H
  H68      1.0000 0.59190  0.71930  0.91660  Biso   1.000  H
  H69      1.0000 0.59190  0.78070  0.41660  Biso   1.000  H
  H70      1.0000 0.90810  0.21930  0.91660  Biso   1.000  H
  H71      1.0000 0.09190  0.71930  0.58340  Biso   1.000  H
  H72      1.0000 0.40810  0.28070  0.08340  Biso   1.000  H
  C97      1.0000 0.72993  0.49341  0.50286  Biso   1.000  C
  C98      1.0000 0.77007  0.50659  0.00286  Biso   1.000  C
  C99      1.0000 0.22993  0.00659  0.49714  Biso   1.000  C
  C100     1.0000 0.27007  0.99341  0.99714  Biso   1.000  C
  C101     1.0000 0.27007  0.50659  0.49714  Biso   1.000  C
  C102     1.0000 0.22993  0.49341  0.99714  Biso   1.000  C
  C103     1.0000 0.77007  0.99341  0.50286  Biso   1.000  C
  C104     1.0000 0.72993  0.00659  0.00286  Biso   1.000  C
  H73      1.0000 0.72810  0.49330  0.45740  Biso   1.000  H
  H74      1.0000 0.77190  0.50670  0.95740  Biso   1.000  H
  H75      1.0000 0.22810  0.00670  0.54260  Biso   1.000  H
  H76      1.0000 0.27190  0.99330  0.04260  Biso   1.000  H
  H77      1.0000 0.27190  0.50670  0.54260  Biso   1.000  H
  H78      1.0000 0.22810  0.49330  0.04260  Biso   1.000  H
  H79      1.0000 0.77190  0.99330  0.45740  Biso   1.000  H
  H80      1.0000 0.72810  0.00670  0.95740  Biso   1.000  H
  H81      1.0000 0.73010  0.59590  0.51680  Biso   1.000  H
  H82      1.0000 0.76990  0.40410  0.01680  Biso   1.000  H
  H83      1.0000 0.23010  0.90410  0.48320  Biso   1.000  H
  H84      1.0000 0.26990  0.09590  0.98320  Biso   1.000  H
  H85      1.0000 0.26990  0.40410  0.48320  Biso   1.000  H
  H86      1.0000 0.23010  0.59590  0.98320  Biso   1.000  H
  H87      1.0000 0.76990  0.09590  0.51680  Biso   1.000  H
  H88      1.0000 0.73010  0.90410  0.01680  Biso   1.000  H
