data_image0
_cell_length_a       6.878
_cell_length_b       7.897
_cell_length_c       12.145
_cell_angle_alpha    86.65
_cell_angle_beta     83.87
_cell_angle_gamma    78.42

_symmetry_space_group_name_H-M    "P 1"
_symmetry_int_tables_number       1

loop_
  _symmetry_equiv_pos_as_xyz
  'x, y, z'

loop_
  _atom_site_label
  _atom_site_occupancy
  _atom_site_fract_x
  _atom_site_fract_y
  _atom_site_fract_z
  _atom_site_thermal_displace_type
  _atom_site_B_iso_or_equiv
  _atom_site_type_symbol
  Cu1      1.0000 0.50000  0.50000  0.50000  Biso   1.000  Cu
  N1       1.0000 0.70750  0.32840  0.57967  Biso   1.000  N
  N2       1.0000 0.29250  0.67160  0.42033  Biso   1.000  N
  N3       1.0000 0.67450  0.74280  0.05420  Biso   1.000  N
  N4       1.0000 0.32550  0.25720  0.94580  Biso   1.000  N
  O1       1.0000 0.32660  0.53540  0.64034  Biso   1.000  O
  O2       1.0000 0.67340  0.46460  0.35966  Biso   1.000  O
  O3       1.0000 0.43350  0.75390  0.70776  Biso   1.000  O
  O4       1.0000 0.56650  0.24610  0.29224  Biso   1.000  O
  O5       1.0000 0.69610  0.82970  0.13480  Biso   1.000  O
  O6       1.0000 0.30390  0.17030  0.86520  Biso   1.000  O
  O7       1.0000 0.53500  0.66700  0.05680  Biso   1.000  O
  O8       1.0000 0.46500  0.33300  0.94320  Biso   1.000  O
  O9       1.0000 0.29850  0.28560  0.46477  Biso   1.000  O
  O10      1.0000 0.70150  0.71440  0.53523  Biso   1.000  O
  H1       1.0000 0.37710  0.25590  0.41050  Biso   1.000  H
  H2       1.0000 0.62290  0.74410  0.58950  Biso   1.000  H
  C1       1.0000 0.32050  0.65020  0.70960  Biso   1.000  C
  C2       1.0000 0.67950  0.34980  0.29040  Biso   1.000  C
  C3       1.0000 0.15230  0.66320  0.80240  Biso   1.000  C
  C4       1.0000 0.84770  0.33680  0.19760  Biso   1.000  C
  C5       1.0000 0.16360  0.75430  0.89500  Biso   1.000  C
  C6       1.0000 0.83640  0.24570  0.10500  Biso   1.000  C
  H3       1.0000 0.27630  0.80020  0.90080  Biso   1.000  H
  H4       1.0000 0.72370  0.19980  0.09920  Biso   1.000  H
  C7       1.0000 0.00910  0.77740  0.97860  Biso   1.000  C
  C8       1.0000 0.99090  0.22260  0.02140  Biso   1.000  C
  H5       1.0000 0.01770  0.83620  0.04150  Biso   1.000  H
  H6       1.0000 0.98230  0.16380  0.95850  Biso   1.000  H
  C9       1.0000 0.84270  0.71190  0.96680  Biso   1.000  C
  C10      1.0000 0.15730  0.28810  0.03320  Biso   1.000  C
  C11      1.0000 0.82670  0.61920  0.87670  Biso   1.000  C
  C12      1.0000 0.17330  0.38080  0.12330  Biso   1.000  C
  H7       1.0000 0.71340  0.57400  0.87130  Biso   1.000  H
  H8       1.0000 0.28660  0.42600  0.12870  Biso   1.000  H
  C13      1.0000 0.98490  0.59520  0.79390  Biso   1.000  C
  C14      1.0000 0.01510  0.40480  0.20610  Biso   1.000  C
  H9       1.0000 0.97770  0.53280  0.73230  Biso   1.000  H
  H10      1.0000 0.02230  0.46720  0.26770  Biso   1.000  H
  C15      1.0000 0.89910  0.29570  0.53721  Biso   1.000  C
  C16      1.0000 0.10090  0.70430  0.46279  Biso   1.000  C
  H11      1.0000 0.93410  0.35480  0.47200  Biso   1.000  H
  H12      1.0000 0.06590  0.64520  0.52800  Biso   1.000  H
  C17      1.0000 0.04670  0.17920  0.58510  Biso   1.000  C
  C18      1.0000 0.95330  0.82080  0.41490  Biso   1.000  C
  C19      1.0000 0.99350  0.09370  0.68290  Biso   1.000  C
  C20      1.0000 0.00650  0.90630  0.31710  Biso   1.000  C
  H13      1.0000 0.08890  0.01460  0.71780  Biso   1.000  H
  H14      1.0000 0.91110  0.98540  0.28220  Biso   1.000  H
  C21      1.0000 0.79830  0.12670  0.72780  Biso   1.000  C
  C22      1.0000 0.20170  0.87330  0.27220  Biso   1.000  C
  H15      1.0000 0.76070  0.07070  0.79380  Biso   1.000  H
  H16      1.0000 0.23930  0.92930  0.20620  Biso   1.000  H
  C23      1.0000 0.65830  0.24380  0.67420  Biso   1.000  C
  C24      1.0000 0.34170  0.75620  0.32580  Biso   1.000  C
  H17      1.0000 0.52620  0.26440  0.70460  Biso   1.000  H
  H18      1.0000 0.47380  0.73560  0.29540  Biso   1.000  H
  C25      1.0000 0.25730  0.14190  0.53050  Biso   1.000  C
  C26      1.0000 0.74270  0.85810  0.46950  Biso   1.000  C
  H19      1.0000 0.34980  0.11470  0.58690  Biso   1.000  H
  H20      1.0000 0.65020  0.88530  0.41310  Biso   1.000  H
  H21      1.0000 0.27530  0.04240  0.48470  Biso   1.000  H
  H22      1.0000 0.72470  0.95760  0.51530  Biso   1.000  H
  O11      1.0000 0.73000  0.77000  0.14300  Biso   1.000  O
  O12      1.0000 0.27000  0.23000  0.85700  Biso   1.000  O
  O13      1.0000 0.63800  0.87990  0.09900  Biso   1.000  O
  O14      1.0000 0.36200  0.12010  0.90100  Biso   1.000  O
  O15      1.0000 0.50600  0.77800  0.02940  Biso   1.000  O
  O16      1.0000 0.49400  0.22200  0.97060  Biso   1.000  O
  O17      1.0000 0.54700  0.65800  0.03800  Biso   1.000  O
  O18      1.0000 0.45300  0.34200  0.96200  Biso   1.000  O
