data_image0
_cell_length_a       11.7
_cell_length_b       11.884
_cell_length_c       8.254
_cell_angle_alpha    90
_cell_angle_beta     110.183
_cell_angle_gamma    90

_symmetry_space_group_name_H-M    "P 1"
_symmetry_int_tables_number       1

loop_
  _symmetry_equiv_pos_as_xyz
  'x, y, z'

loop_
  _atom_site_label
  _atom_site_occupancy
  _atom_site_fract_x
  _atom_site_fract_y
  _atom_site_fract_z
  _atom_site_thermal_displace_type
  _atom_site_B_iso_or_equiv
  _atom_site_type_symbol
  C1       1.0000 0.33640  0.11870  0.15500  Biso   1.000  C
  C2       1.0000 0.66360  0.11870  0.84500  Biso   1.000  C
  C3       1.0000 0.83640  0.61870  0.15500  Biso   1.000  C
  C4       1.0000 0.16360  0.61870  0.84500  Biso   1.000  C
  H1       1.0000 0.34010  0.18390  0.21870  Biso   1.000  H
  H2       1.0000 0.65990  0.18390  0.78130  Biso   1.000  H
  H3       1.0000 0.84010  0.68390  0.21870  Biso   1.000  H
  H4       1.0000 0.15990  0.68390  0.78130  Biso   1.000  H
  C5       1.0000 0.27280  0.12370  0.98230  Biso   1.000  C
  C6       1.0000 0.72720  0.12370  0.01770  Biso   1.000  C
  C7       1.0000 0.77280  0.62370  0.98230  Biso   1.000  C
  C8       1.0000 0.22720  0.62370  0.01770  Biso   1.000  C
  H5       1.0000 0.23760  0.19080  0.93080  Biso   1.000  H
  H6       1.0000 0.76240  0.19080  0.06920  Biso   1.000  H
  H7       1.0000 0.73760  0.69080  0.93080  Biso   1.000  H
  H8       1.0000 0.26240  0.69080  0.06920  Biso   1.000  H
  C9       1.0000 0.26090  0.02090  0.88000  Biso   1.000  C
  C10      1.0000 0.73910  0.02090  0.12000  Biso   1.000  C
  C11      1.0000 0.76090  0.52090  0.88000  Biso   1.000  C
  C12      1.0000 0.23910  0.52090  0.12000  Biso   1.000  C
  C13      1.0000 0.31810  0.93150  0.96100  Biso   1.000  C
  C14      1.0000 0.68190  0.93150  0.03900  Biso   1.000  C
  C15      1.0000 0.81810  0.43150  0.96100  Biso   1.000  C
  C16      1.0000 0.18190  0.43150  0.03900  Biso   1.000  C
  H9       1.0000 0.31550  0.86560  0.89900  Biso   1.000  H
  H10      1.0000 0.68450  0.86560  0.10100  Biso   1.000  H
  H11      1.0000 0.81550  0.36560  0.89900  Biso   1.000  H
  H12      1.0000 0.18450  0.36560  0.10100  Biso   1.000  H
  C17      1.0000 0.38310  0.93270  0.13900  Biso   1.000  C
  C18      1.0000 0.61690  0.93270  0.86100  Biso   1.000  C
  C19      1.0000 0.88310  0.43270  0.13900  Biso   1.000  C
  C20      1.0000 0.11690  0.43270  0.86100  Biso   1.000  C
  H13      1.0000 0.42090  0.86710  0.19300  Biso   1.000  H
  H14      1.0000 0.57910  0.86710  0.80700  Biso   1.000  H
  H15      1.0000 0.92090  0.36710  0.19300  Biso   1.000  H
  H16      1.0000 0.07910  0.36710  0.80700  Biso   1.000  H
  C21      1.0000 0.19490  0.01830  0.68730  Biso   1.000  C
  C22      1.0000 0.80510  0.01830  0.31270  Biso   1.000  C
  C23      1.0000 0.69490  0.51830  0.68730  Biso   1.000  C
  C24      1.0000 0.30510  0.51830  0.31270  Biso   1.000  C
  H17      1.0000 0.12700  0.96650  0.66160  Biso   1.000  H
  H18      1.0000 0.87300  0.96650  0.33840  Biso   1.000  H
  H19      1.0000 0.62700  0.46650  0.66160  Biso   1.000  H
  H20      1.0000 0.37300  0.46650  0.33840  Biso   1.000  H
  H21      1.0000 0.16230  0.09260  0.64890  Biso   1.000  H
  H22      1.0000 0.83770  0.09260  0.35110  Biso   1.000  H
  H23      1.0000 0.66230  0.59260  0.64890  Biso   1.000  H
  H24      1.0000 0.33770  0.59260  0.35110  Biso   1.000  H
  C25      1.0000 0.27100  0.98530  0.59440  Biso   1.000  C
  C26      1.0000 0.72900  0.98530  0.40560  Biso   1.000  C
  C27      1.0000 0.77100  0.48530  0.59440  Biso   1.000  C
  C28      1.0000 0.22900  0.48530  0.40560  Biso   1.000  C
  H25      1.0000 0.25070  0.90580  0.58440  Biso   1.000  H
  H26      1.0000 0.74930  0.90580  0.41560  Biso   1.000  H
  H27      1.0000 0.75070  0.40580  0.58440  Biso   1.000  H
  H28      1.0000 0.24930  0.40580  0.41560  Biso   1.000  H
  H29      1.0000 0.22210  0.01580  0.48300  Biso   1.000  H
  H30      1.0000 0.77790  0.01580  0.51700  Biso   1.000  H
  H31      1.0000 0.72210  0.51580  0.48300  Biso   1.000  H
  H32      1.0000 0.27790  0.51580  0.51700  Biso   1.000  H
  N1       1.0000 0.39230  0.03100  0.23760  Biso   1.000  N
  N2       1.0000 0.60770  0.03100  0.76240  Biso   1.000  N
  N3       1.0000 0.89230  0.53100  0.23760  Biso   1.000  N
  N4       1.0000 0.10770  0.53100  0.76240  Biso   1.000  N
  Cu1      1.0000 0.50000  0.02890  0.50000  Biso   1.000  Cu
  Cu2      1.0000 0.00000  0.52890  0.50000  Biso   1.000  Cu
  O1       1.0000 0.50000  0.23020  0.50000  Biso   1.000  O
  O2       1.0000 0.00000  0.73020  0.50000  Biso   1.000  O
  H33      1.0000 0.44400  0.27200  0.50400  Biso   1.000  H
  H34      1.0000 0.55600  0.27200  0.49600  Biso   1.000  H
  H35      1.0000 0.94400  0.77200  0.50400  Biso   1.000  H
  H36      1.0000 0.05600  0.77200  0.49600  Biso   1.000  H
  N5       1.0000 0.36180  0.97890  0.56970  Biso   1.000  N
  N6       1.0000 0.63820  0.97890  0.43030  Biso   1.000  N
  N7       1.0000 0.86180  0.47890  0.56970  Biso   1.000  N
  N8       1.0000 0.13820  0.47890  0.43030  Biso   1.000  N
  O3       1.0000 0.45900  0.82670  0.51450  Biso   1.000  O
  O4       1.0000 0.54100  0.82670  0.48550  Biso   1.000  O
  O5       1.0000 0.95900  0.32670  0.51450  Biso   1.000  O
  O6       1.0000 0.04100  0.32670  0.48550  Biso   1.000  O
  H37      1.0000 0.38680  0.04570  0.58830  Biso   1.000  H
  H38      1.0000 0.61320  0.04570  0.41170  Biso   1.000  H
  H39      1.0000 0.88680  0.54570  0.58830  Biso   1.000  H
  H40      1.0000 0.11320  0.54570  0.41170  Biso   1.000  H
  H41      1.0000 0.41070  0.95560  0.66170  Biso   1.000  H
  H42      1.0000 0.58930  0.95560  0.33830  Biso   1.000  H
  H43      1.0000 0.91070  0.45560  0.66170  Biso   1.000  H
  H44      1.0000 0.08930  0.45560  0.33830  Biso   1.000  H
  H45      1.0000 0.50800  0.79100  0.59300  Biso   1.000  H
  H46      1.0000 0.49200  0.79100  0.40700  Biso   1.000  H
  H47      1.0000 0.00800  0.29100  0.59300  Biso   1.000  H
  H48      1.0000 0.99200  0.29100  0.40700  Biso   1.000  H
  C29      1.0000 0.08750  0.13170  0.19230  Biso   1.000  C
  C30      1.0000 0.91250  0.13170  0.80770  Biso   1.000  C
  C31      1.0000 0.58750  0.63170  0.19230  Biso   1.000  C
  C32      1.0000 0.41250  0.63170  0.80770  Biso   1.000  C
  C33      1.0000 0.03510  0.89800  0.16230  Biso   1.000  C
  C34      1.0000 0.96490  0.89800  0.83770  Biso   1.000  C
  C35      1.0000 0.53510  0.39800  0.16230  Biso   1.000  C
  C36      1.0000 0.46490  0.39800  0.83770  Biso   1.000  C
  N9       1.0000 0.13770  0.18950  0.30360  Biso   1.000  N
  N10      1.0000 0.86230  0.18950  0.69640  Biso   1.000  N
  N11      1.0000 0.63770  0.68950  0.30360  Biso   1.000  N
  N12      1.0000 0.36230  0.68950  0.69640  Biso   1.000  N
  N13      1.0000 0.05600  0.82410  0.25910  Biso   1.000  N
  N14      1.0000 0.94400  0.82410  0.74090  Biso   1.000  N
  N15      1.0000 0.55600  0.32410  0.25910  Biso   1.000  N
  N16      1.0000 0.44400  0.32410  0.74090  Biso   1.000  N
  Pt1      1.0000 0.00000  0.02765  0.00000  Biso   1.000  Pt
  Pt2      1.0000 0.50000  0.52765  0.00000  Biso   1.000  Pt
