data_image0
_cell_length_a       14.642
_cell_length_b       6.4964
_cell_length_c       7.5403
_cell_angle_alpha    90
_cell_angle_beta     94.456
_cell_angle_gamma    90

_symmetry_space_group_name_H-M    "P 1"
_symmetry_int_tables_number       1

loop_
  _symmetry_equiv_pos_as_xyz
  'x, y, z'

loop_
  _atom_site_label
  _atom_site_occupancy
  _atom_site_fract_x
  _atom_site_fract_y
  _atom_site_fract_z
  _atom_site_thermal_displace_type
  _atom_site_B_iso_or_equiv
  _atom_site_type_symbol
  Cu1      1.0000 0.25000  0.25000  0.50000  Biso   1.000  Cu
  Cu2      1.0000 0.75000  0.25000  0.50000  Biso   1.000  Cu
  Cu3      1.0000 0.75000  0.75000  0.50000  Biso   1.000  Cu
  Cu4      1.0000 0.25000  0.75000  0.50000  Biso   1.000  Cu
  N1       1.0000 0.26576  0.50000  0.65560  Biso   1.000  N
  N2       1.0000 0.73424  0.50000  0.34440  Biso   1.000  N
  N3       1.0000 0.76576  0.00000  0.65560  Biso   1.000  N
  N4       1.0000 0.23424  0.00000  0.34440  Biso   1.000  N
  N5       1.0000 0.24085  0.50000  0.80470  Biso   1.000  N
  N6       1.0000 0.75915  0.50000  0.19530  Biso   1.000  N
  N7       1.0000 0.74085  0.00000  0.80470  Biso   1.000  N
  N8       1.0000 0.25915  0.00000  0.19530  Biso   1.000  N
  N9       1.0000 0.21890  0.50000  0.94510  Biso   1.000  N
  N10      1.0000 0.78110  0.50000  0.05490  Biso   1.000  N
  N11      1.0000 0.71890  0.00000  0.94510  Biso   1.000  N
  N12      1.0000 0.28110  0.00000  0.05490  Biso   1.000  N
  O1       1.0000 0.15996  0.50000  0.30860  Biso   1.000  O
  O2       1.0000 0.84004  0.50000  0.69140  Biso   1.000  O
  O3       1.0000 0.65996  0.00000  0.30860  Biso   1.000  O
  O4       1.0000 0.34004  0.00000  0.69140  Biso   1.000  O
  H1       1.0000 0.10500  0.50000  0.30400  Biso   1.000  H
  H2       1.0000 0.89500  0.50000  0.69600  Biso   1.000  H
  H3       1.0000 0.60500  0.00000  0.30400  Biso   1.000  H
  H4       1.0000 0.39500  0.00000  0.69600  Biso   1.000  H
  H5       1.0000 0.17500  0.50000  0.20100  Biso   1.000  H
  H6       1.0000 0.82500  0.50000  0.79900  Biso   1.000  H
  H7       1.0000 0.67500  0.00000  0.20100  Biso   1.000  H
  H8       1.0000 0.32500  0.00000  0.79900  Biso   1.000  H
  O5       1.0000 0.35766  0.32787  0.37728  Biso   1.000  O
  O6       1.0000 0.64234  0.32787  0.62272  Biso   1.000  O
  O7       1.0000 0.85766  0.82787  0.37728  Biso   1.000  O
  O8       1.0000 0.14234  0.82787  0.62272  Biso   1.000  O
  O9       1.0000 0.64234  0.67213  0.62272  Biso   1.000  O
  O10      1.0000 0.35766  0.67213  0.37728  Biso   1.000  O
  O11      1.0000 0.14234  0.17213  0.62272  Biso   1.000  O
  O12      1.0000 0.85766  0.17213  0.37728  Biso   1.000  O
  C1       1.0000 0.39145  0.50000  0.34390  Biso   1.000  C
  C2       1.0000 0.60855  0.50000  0.65610  Biso   1.000  C
  C3       1.0000 0.89145  0.00000  0.34390  Biso   1.000  C
  C4       1.0000 0.10855  0.00000  0.65610  Biso   1.000  C
  C5       1.0000 0.47877  0.50000  0.24990  Biso   1.000  C
  C6       1.0000 0.52123  0.50000  0.75010  Biso   1.000  C
  C7       1.0000 0.97877  0.00000  0.24990  Biso   1.000  C
  C8       1.0000 0.02123  0.00000  0.75010  Biso   1.000  C
  H9       1.0000 0.51470  0.37910  0.28450  Biso   1.000  H
  H10      1.0000 0.48530  0.37910  0.71550  Biso   1.000  H
  H11      1.0000 0.01470  0.87910  0.28450  Biso   1.000  H
  H12      1.0000 0.98530  0.87910  0.71550  Biso   1.000  H
  H13      1.0000 0.48530  0.62090  0.71550  Biso   1.000  H
  H14      1.0000 0.51470  0.62090  0.28450  Biso   1.000  H
  H15      1.0000 0.98530  0.12090  0.71550  Biso   1.000  H
  H16      1.0000 0.01470  0.12090  0.28450  Biso   1.000  H
  C9       1.0000 0.45674  0.50000  0.04950  Biso   1.000  C
  C10      1.0000 0.54326  0.50000  0.95050  Biso   1.000  C
  C11      1.0000 0.95674  0.00000  0.04950  Biso   1.000  C
  C12      1.0000 0.04326  0.00000  0.95050  Biso   1.000  C
  H17      1.0000 0.42050  0.37920  0.01570  Biso   1.000  H
  H18      1.0000 0.57950  0.37920  0.98430  Biso   1.000  H
  H19      1.0000 0.92050  0.87920  0.01570  Biso   1.000  H
  H20      1.0000 0.07950  0.87920  0.98430  Biso   1.000  H
  H21      1.0000 0.57950  0.62080  0.98430  Biso   1.000  H
  H22      1.0000 0.42050  0.62080  0.01570  Biso   1.000  H
  H23      1.0000 0.07950  0.12080  0.98430  Biso   1.000  H
  H24      1.0000 0.92050  0.12080  0.01570  Biso   1.000  H
