data_image0
_cell_length_a       15.444
_cell_length_b       16.2132
_cell_length_c       23.776
_cell_angle_alpha    90
_cell_angle_beta     102.412
_cell_angle_gamma    90

_symmetry_space_group_name_H-M    "P 1"
_symmetry_int_tables_number       1

loop_
  _symmetry_equiv_pos_as_xyz
  'x, y, z'

loop_
  _atom_site_label
  _atom_site_occupancy
  _atom_site_fract_x
  _atom_site_fract_y
  _atom_site_fract_z
  _atom_site_thermal_displace_type
  _atom_site_B_iso_or_equiv
  _atom_site_type_symbol
  Cu1      1.0000 0.46588  0.18868  0.40396  Biso   1.000  Cu
  Cu2      1.0000 0.53412  0.18868  0.09604  Biso   1.000  Cu
  Cu3      1.0000 0.96588  0.68868  0.40396  Biso   1.000  Cu
  Cu4      1.0000 0.03412  0.68868  0.09604  Biso   1.000  Cu
  Cu5      1.0000 0.53412  0.81132  0.59604  Biso   1.000  Cu
  Cu6      1.0000 0.46588  0.81132  0.90396  Biso   1.000  Cu
  Cu7      1.0000 0.03412  0.31132  0.59604  Biso   1.000  Cu
  Cu8      1.0000 0.96588  0.31132  0.90396  Biso   1.000  Cu
  Cl1      1.0000 0.44569  0.06160  0.34392  Biso   1.000  Cl
  Cl2      1.0000 0.55431  0.06160  0.15608  Biso   1.000  Cl
  Cl3      1.0000 0.94569  0.56160  0.34392  Biso   1.000  Cl
  Cl4      1.0000 0.05431  0.56160  0.15608  Biso   1.000  Cl
  Cl5      1.0000 0.55431  0.93840  0.65608  Biso   1.000  Cl
  Cl6      1.0000 0.44569  0.93840  0.84392  Biso   1.000  Cl
  Cl7      1.0000 0.05431  0.43840  0.65608  Biso   1.000  Cl
  Cl8      1.0000 0.94569  0.43840  0.84392  Biso   1.000  Cl
  O1       1.0000 0.02260  0.24053  0.85749  Biso   1.000  O
  O2       1.0000 0.97740  0.24053  0.64251  Biso   1.000  O
  O3       1.0000 0.52260  0.74053  0.85749  Biso   1.000  O
  O4       1.0000 0.47740  0.74053  0.64251  Biso   1.000  O
  O5       1.0000 0.97740  0.75947  0.14251  Biso   1.000  O
  O6       1.0000 0.02260  0.75947  0.35749  Biso   1.000  O
  O7       1.0000 0.47740  0.25947  0.14251  Biso   1.000  O
  O8       1.0000 0.52260  0.25947  0.35749  Biso   1.000  O
  O9       1.0000 0.97500  0.12830  0.89575  Biso   1.000  O
  O10      1.0000 0.02500  0.12830  0.60425  Biso   1.000  O
  O11      1.0000 0.47500  0.62830  0.89575  Biso   1.000  O
  O12      1.0000 0.52500  0.62830  0.60425  Biso   1.000  O
  O13      1.0000 0.02500  0.87170  0.10425  Biso   1.000  O
  O14      1.0000 0.97500  0.87170  0.39575  Biso   1.000  O
  O15      1.0000 0.52500  0.37170  0.10425  Biso   1.000  O
  O16      1.0000 0.47500  0.37170  0.39575  Biso   1.000  O
  O17      1.0000 0.55930  0.34180  0.66470  Biso   1.000  O
  O18      1.0000 0.44070  0.34180  0.83530  Biso   1.000  O
  O19      1.0000 0.05930  0.84180  0.66470  Biso   1.000  O
  O20      1.0000 0.94070  0.84180  0.83530  Biso   1.000  O
  O21      1.0000 0.44070  0.65820  0.33530  Biso   1.000  O
  O22      1.0000 0.55930  0.65820  0.16470  Biso   1.000  O
  O23      1.0000 0.94070  0.15820  0.33530  Biso   1.000  O
  O24      1.0000 0.05930  0.15820  0.16470  Biso   1.000  O
  O25      1.0000 0.56200  0.27360  0.58050  Biso   1.000  O
  O26      1.0000 0.43800  0.27360  0.91950  Biso   1.000  O
  O27      1.0000 0.06200  0.77360  0.58050  Biso   1.000  O
  O28      1.0000 0.93800  0.77360  0.91950  Biso   1.000  O
  O29      1.0000 0.43800  0.72640  0.41950  Biso   1.000  O
  O30      1.0000 0.56200  0.72640  0.08050  Biso   1.000  O
  O31      1.0000 0.93800  0.22640  0.41950  Biso   1.000  O
  O32      1.0000 0.06200  0.22640  0.08050  Biso   1.000  O
  O33      1.0000 0.68870  0.29070  0.65040  Biso   1.000  O
  O34      1.0000 0.31130  0.29070  0.84960  Biso   1.000  O
  O35      1.0000 0.18870  0.79070  0.65040  Biso   1.000  O
  O36      1.0000 0.81130  0.79070  0.84960  Biso   1.000  O
  O37      1.0000 0.31130  0.70930  0.34960  Biso   1.000  O
  O38      1.0000 0.68870  0.70930  0.15040  Biso   1.000  O
  O39      1.0000 0.81130  0.20930  0.34960  Biso   1.000  O
  O40      1.0000 0.18870  0.20930  0.15040  Biso   1.000  O
  O41      1.0000 0.58220  0.20010  0.66110  Biso   1.000  O
  O42      1.0000 0.41780  0.20010  0.83890  Biso   1.000  O
  O43      1.0000 0.08220  0.70010  0.66110  Biso   1.000  O
  O44      1.0000 0.91780  0.70010  0.83890  Biso   1.000  O
  O45      1.0000 0.41780  0.79990  0.33890  Biso   1.000  O
  O46      1.0000 0.58220  0.79990  0.16110  Biso   1.000  O
  O47      1.0000 0.91780  0.29990  0.33890  Biso   1.000  O
  O48      1.0000 0.08220  0.29990  0.16110  Biso   1.000  O
  N1       1.0000 0.33510  0.21768  0.37646  Biso   1.000  N
  N2       1.0000 0.66490  0.21768  0.12354  Biso   1.000  N
  N3       1.0000 0.83510  0.71768  0.37646  Biso   1.000  N
  N4       1.0000 0.16490  0.71768  0.12354  Biso   1.000  N
  N5       1.0000 0.66490  0.78232  0.62354  Biso   1.000  N
  N6       1.0000 0.33510  0.78232  0.87646  Biso   1.000  N
  N7       1.0000 0.16490  0.28232  0.62354  Biso   1.000  N
  N8       1.0000 0.83510  0.28232  0.87646  Biso   1.000  N
  N9       1.0000 0.41807  0.14646  0.46755  Biso   1.000  N
  N10      1.0000 0.58193  0.14646  0.03245  Biso   1.000  N
  N11      1.0000 0.91807  0.64646  0.46755  Biso   1.000  N
  N12      1.0000 0.08193  0.64646  0.03245  Biso   1.000  N
  N13      1.0000 0.58193  0.85354  0.53245  Biso   1.000  N
  N14      1.0000 0.41807  0.85354  0.96755  Biso   1.000  N
  N15      1.0000 0.08193  0.35354  0.53245  Biso   1.000  N
  N16      1.0000 0.91807  0.35354  0.96755  Biso   1.000  N
  N17      1.0000 0.58070  0.15424  0.45957  Biso   1.000  N
  N18      1.0000 0.41930  0.15424  0.04043  Biso   1.000  N
  N19      1.0000 0.08070  0.65424  0.45957  Biso   1.000  N
  N20      1.0000 0.91930  0.65424  0.04043  Biso   1.000  N
  N21      1.0000 0.41930  0.84576  0.54043  Biso   1.000  N
  N22      1.0000 0.58070  0.84576  0.95957  Biso   1.000  N
  N23      1.0000 0.91930  0.34576  0.54043  Biso   1.000  N
  N24      1.0000 0.08070  0.34576  0.95957  Biso   1.000  N
  N25      1.0000 0.26090  0.99145  0.70037  Biso   1.000  N
  N26      1.0000 0.73910  0.99145  0.79963  Biso   1.000  N
  N27      1.0000 0.76090  0.49145  0.70037  Biso   1.000  N
  N28      1.0000 0.23910  0.49145  0.79963  Biso   1.000  N
  N29      1.0000 0.73910  0.00855  0.29963  Biso   1.000  N
  N30      1.0000 0.26090  0.00855  0.20037  Biso   1.000  N
  N31      1.0000 0.23910  0.50855  0.29963  Biso   1.000  N
  N32      1.0000 0.76090  0.50855  0.20037  Biso   1.000  N
  C1       1.0000 0.01920  0.16230  0.86456  Biso   1.000  C
  C2       1.0000 0.98080  0.16230  0.63544  Biso   1.000  C
  C3       1.0000 0.51920  0.66230  0.86456  Biso   1.000  C
  C4       1.0000 0.48080  0.66230  0.63544  Biso   1.000  C
  C5       1.0000 0.98080  0.83770  0.13544  Biso   1.000  C
  C6       1.0000 0.01920  0.83770  0.36456  Biso   1.000  C
  C7       1.0000 0.48080  0.33770  0.13544  Biso   1.000  C
  C8       1.0000 0.51920  0.33770  0.36456  Biso   1.000  C
  C9       1.0000 0.07350  0.11060  0.83342  Biso   1.000  C
  C10      1.0000 0.92650  0.11060  0.66658  Biso   1.000  C
  C11      1.0000 0.57350  0.61060  0.83342  Biso   1.000  C
  C12      1.0000 0.42650  0.61060  0.66658  Biso   1.000  C
  C13      1.0000 0.92650  0.88940  0.16658  Biso   1.000  C
  C14      1.0000 0.07350  0.88940  0.33342  Biso   1.000  C
  C15      1.0000 0.42650  0.38940  0.16658  Biso   1.000  C
  C16      1.0000 0.57350  0.38940  0.33342  Biso   1.000  C
  C17      1.0000 0.14550  0.14280  0.81473  Biso   1.000  C
  C18      1.0000 0.85450  0.14280  0.68527  Biso   1.000  C
  C19      1.0000 0.64550  0.64280  0.81473  Biso   1.000  C
  C20      1.0000 0.35450  0.64280  0.68527  Biso   1.000  C
  C21      1.0000 0.85450  0.85720  0.18527  Biso   1.000  C
  C22      1.0000 0.14550  0.85720  0.31473  Biso   1.000  C
  C23      1.0000 0.35450  0.35720  0.18527  Biso   1.000  C
  C24      1.0000 0.64550  0.35720  0.31473  Biso   1.000  C
  H1       1.0000 0.15990  0.19960  0.82040  Biso   1.000  H
  H2       1.0000 0.84010  0.19960  0.67960  Biso   1.000  H
  H3       1.0000 0.65990  0.69960  0.82040  Biso   1.000  H
  H4       1.0000 0.34010  0.69960  0.67960  Biso   1.000  H
  H5       1.0000 0.84010  0.80040  0.17960  Biso   1.000  H
  H6       1.0000 0.15990  0.80040  0.32040  Biso   1.000  H
  H7       1.0000 0.34010  0.30040  0.17960  Biso   1.000  H
  H8       1.0000 0.65990  0.30040  0.32040  Biso   1.000  H
  C25      1.0000 0.19660  0.09230  0.78768  Biso   1.000  C
  C26      1.0000 0.80340  0.09230  0.71232  Biso   1.000  C
  C27      1.0000 0.69660  0.59230  0.78768  Biso   1.000  C
  C28      1.0000 0.30340  0.59230  0.71232  Biso   1.000  C
  C29      1.0000 0.80340  0.90770  0.21232  Biso   1.000  C
  C30      1.0000 0.19660  0.90770  0.28768  Biso   1.000  C
  C31      1.0000 0.30340  0.40770  0.21232  Biso   1.000  C
  C32      1.0000 0.69660  0.40770  0.28768  Biso   1.000  C
  H9       1.0000 0.24670  0.11460  0.77590  Biso   1.000  H
  H10      1.0000 0.75330  0.11460  0.72410  Biso   1.000  H
  H11      1.0000 0.74670  0.61460  0.77590  Biso   1.000  H
  H12      1.0000 0.25330  0.61460  0.72410  Biso   1.000  H
  H13      1.0000 0.75330  0.88540  0.22410  Biso   1.000  H
  H14      1.0000 0.24670  0.88540  0.27590  Biso   1.000  H
  H15      1.0000 0.25330  0.38540  0.22410  Biso   1.000  H
  H16      1.0000 0.74670  0.38540  0.27590  Biso   1.000  H
  C33      1.0000 0.17530  0.00970  0.77767  Biso   1.000  C
  C34      1.0000 0.82470  0.00970  0.72233  Biso   1.000  C
  C35      1.0000 0.67530  0.50970  0.77767  Biso   1.000  C
  C36      1.0000 0.32470  0.50970  0.72233  Biso   1.000  C
  C37      1.0000 0.82470  0.99030  0.22233  Biso   1.000  C
  C38      1.0000 0.17530  0.99030  0.27767  Biso   1.000  C
  C39      1.0000 0.32470  0.49030  0.22233  Biso   1.000  C
  C40      1.0000 0.67530  0.49030  0.27767  Biso   1.000  C
  C41      1.0000 0.10410  0.97850  0.79614  Biso   1.000  C
  C42      1.0000 0.89590  0.97850  0.70386  Biso   1.000  C
  C43      1.0000 0.60410  0.47850  0.79614  Biso   1.000  C
  C44      1.0000 0.39590  0.47850  0.70386  Biso   1.000  C
  C45      1.0000 0.89590  0.02150  0.20386  Biso   1.000  C
  C46      1.0000 0.10410  0.02150  0.29614  Biso   1.000  C
  C47      1.0000 0.39590  0.52150  0.20386  Biso   1.000  C
  C48      1.0000 0.60410  0.52150  0.29614  Biso   1.000  C
  H17      1.0000 0.08810  0.92230  0.78890  Biso   1.000  H
  H18      1.0000 0.91190  0.92230  0.71110  Biso   1.000  H
  H19      1.0000 0.58810  0.42230  0.78890  Biso   1.000  H
  H20      1.0000 0.41190  0.42230  0.71110  Biso   1.000  H
  H21      1.0000 0.91190  0.07770  0.21110  Biso   1.000  H
  H22      1.0000 0.08810  0.07770  0.28890  Biso   1.000  H
  H23      1.0000 0.41190  0.57770  0.21110  Biso   1.000  H
  H24      1.0000 0.58810  0.57770  0.28890  Biso   1.000  H
  C49      1.0000 0.05490  0.02740  0.82516  Biso   1.000  C
  C50      1.0000 0.94510  0.02740  0.67484  Biso   1.000  C
  C51      1.0000 0.55490  0.52740  0.82516  Biso   1.000  C
  C52      1.0000 0.44510  0.52740  0.67484  Biso   1.000  C
  C53      1.0000 0.94510  0.97260  0.17484  Biso   1.000  C
  C54      1.0000 0.05490  0.97260  0.32516  Biso   1.000  C
  C55      1.0000 0.44510  0.47260  0.17484  Biso   1.000  C
  C56      1.0000 0.55490  0.47260  0.32516  Biso   1.000  C
  H25      1.0000 0.00780  0.00380  0.83960  Biso   1.000  H
  H26      1.0000 0.99220  0.00380  0.66040  Biso   1.000  H
  H27      1.0000 0.50780  0.50380  0.83960  Biso   1.000  H
  H28      1.0000 0.49220  0.50380  0.66040  Biso   1.000  H
  H29      1.0000 0.99220  0.99620  0.16040  Biso   1.000  H
  H30      1.0000 0.00780  0.99620  0.33960  Biso   1.000  H
  H31      1.0000 0.49220  0.49620  0.16040  Biso   1.000  H
  H32      1.0000 0.50780  0.49620  0.33960  Biso   1.000  H
  C57      1.0000 0.23090  0.95240  0.74970  Biso   1.000  C
  C58      1.0000 0.76910  0.95240  0.75030  Biso   1.000  C
  C59      1.0000 0.73090  0.45240  0.74970  Biso   1.000  C
  C60      1.0000 0.26910  0.45240  0.75030  Biso   1.000  C
  C61      1.0000 0.76910  0.04760  0.25030  Biso   1.000  C
  C62      1.0000 0.23090  0.04760  0.24970  Biso   1.000  C
  C63      1.0000 0.26910  0.54760  0.25030  Biso   1.000  C
  C64      1.0000 0.73090  0.54760  0.24970  Biso   1.000  C
  H33      1.0000 0.28350  0.93480  0.77890  Biso   1.000  H
  H34      1.0000 0.71650  0.93480  0.72110  Biso   1.000  H
  H35      1.0000 0.78350  0.43480  0.77890  Biso   1.000  H
  H36      1.0000 0.21650  0.43480  0.72110  Biso   1.000  H
  H37      1.0000 0.71650  0.06520  0.22110  Biso   1.000  H
  H38      1.0000 0.28350  0.06520  0.27890  Biso   1.000  H
  H39      1.0000 0.21650  0.56520  0.22110  Biso   1.000  H
  H40      1.0000 0.78350  0.56520  0.27890  Biso   1.000  H
  H41      1.0000 0.19580  0.90250  0.73590  Biso   1.000  H
  H42      1.0000 0.80420  0.90250  0.76410  Biso   1.000  H
  H43      1.0000 0.69580  0.40250  0.73590  Biso   1.000  H
  H44      1.0000 0.30420  0.40250  0.76410  Biso   1.000  H
  H45      1.0000 0.80420  0.09750  0.26410  Biso   1.000  H
  H46      1.0000 0.19580  0.09750  0.23590  Biso   1.000  H
  H47      1.0000 0.30420  0.59750  0.26410  Biso   1.000  H
  H48      1.0000 0.69580  0.59750  0.23590  Biso   1.000  H
  C65      1.0000 0.20440  0.99820  0.64895  Biso   1.000  C
  C66      1.0000 0.79560  0.99820  0.85105  Biso   1.000  C
  C67      1.0000 0.70440  0.49820  0.64895  Biso   1.000  C
  C68      1.0000 0.29560  0.49820  0.85105  Biso   1.000  C
  C69      1.0000 0.79560  0.00180  0.35105  Biso   1.000  C
  C70      1.0000 0.20440  0.00180  0.14895  Biso   1.000  C
  C71      1.0000 0.29560  0.50180  0.35105  Biso   1.000  C
  C72      1.0000 0.70440  0.50180  0.14895  Biso   1.000  C
  H49      1.0000 0.14490  0.97980  0.64470  Biso   1.000  H
  H50      1.0000 0.85510  0.97980  0.85530  Biso   1.000  H
  H51      1.0000 0.64490  0.47980  0.64470  Biso   1.000  H
  H52      1.0000 0.35510  0.47980  0.85530  Biso   1.000  H
  H53      1.0000 0.85510  0.02020  0.35530  Biso   1.000  H
  H54      1.0000 0.14490  0.02020  0.14470  Biso   1.000  H
  H55      1.0000 0.35510  0.52020  0.35530  Biso   1.000  H
  H56      1.0000 0.64490  0.52020  0.14470  Biso   1.000  H
  C73      1.0000 0.23170  0.03140  0.60256  Biso   1.000  C
  C74      1.0000 0.76830  0.03140  0.89744  Biso   1.000  C
  C75      1.0000 0.73170  0.53140  0.60256  Biso   1.000  C
  C76      1.0000 0.26830  0.53140  0.89744  Biso   1.000  C
  C77      1.0000 0.76830  0.96860  0.39744  Biso   1.000  C
  C78      1.0000 0.23170  0.96860  0.10256  Biso   1.000  C
  C79      1.0000 0.26830  0.46860  0.39744  Biso   1.000  C
  C80      1.0000 0.73170  0.46860  0.10256  Biso   1.000  C
  H57      1.0000 0.19100  0.03640  0.56660  Biso   1.000  H
  H58      1.0000 0.80900  0.03640  0.93340  Biso   1.000  H
  H59      1.0000 0.69100  0.53640  0.56660  Biso   1.000  H
  H60      1.0000 0.30900  0.53640  0.93340  Biso   1.000  H
  H61      1.0000 0.80900  0.96360  0.43340  Biso   1.000  H
  H62      1.0000 0.19100  0.96360  0.06660  Biso   1.000  H
  H63      1.0000 0.30900  0.46360  0.43340  Biso   1.000  H
  H64      1.0000 0.69100  0.46360  0.06660  Biso   1.000  H
  C81      1.0000 0.31830  0.05740  0.60822  Biso   1.000  C
  C82      1.0000 0.68170  0.05740  0.89178  Biso   1.000  C
  C83      1.0000 0.81830  0.55740  0.60822  Biso   1.000  C
  C84      1.0000 0.18170  0.55740  0.89178  Biso   1.000  C
  C85      1.0000 0.68170  0.94260  0.39178  Biso   1.000  C
  C86      1.0000 0.31830  0.94260  0.10822  Biso   1.000  C
  C87      1.0000 0.18170  0.44260  0.39178  Biso   1.000  C
  C88      1.0000 0.81830  0.44260  0.10822  Biso   1.000  C
  C89      1.0000 0.37440  0.05340  0.66223  Biso   1.000  C
  C90      1.0000 0.62560  0.05340  0.83777  Biso   1.000  C
  C91      1.0000 0.87440  0.55340  0.66223  Biso   1.000  C
  C92      1.0000 0.12560  0.55340  0.83777  Biso   1.000  C
  C93      1.0000 0.62560  0.94660  0.33777  Biso   1.000  C
  C94      1.0000 0.37440  0.94660  0.16223  Biso   1.000  C
  C95      1.0000 0.12560  0.44660  0.33777  Biso   1.000  C
  C96      1.0000 0.87440  0.44660  0.16223  Biso   1.000  C
  H65      1.0000 0.43320  0.07400  0.66790  Biso   1.000  H
  H66      1.0000 0.56680  0.07400  0.83210  Biso   1.000  H
  H67      1.0000 0.93320  0.57400  0.66790  Biso   1.000  H
  H68      1.0000 0.06680  0.57400  0.83210  Biso   1.000  H
  H69      1.0000 0.56680  0.92600  0.33210  Biso   1.000  H
  H70      1.0000 0.43320  0.92600  0.16790  Biso   1.000  H
  H71      1.0000 0.06680  0.42600  0.33210  Biso   1.000  H
  H72      1.0000 0.93320  0.42600  0.16790  Biso   1.000  H
  C97      1.0000 0.34410  0.01900  0.70774  Biso   1.000  C
  C98      1.0000 0.65590  0.01900  0.79226  Biso   1.000  C
  C99      1.0000 0.84410  0.51900  0.70774  Biso   1.000  C
  C100     1.0000 0.15590  0.51900  0.79226  Biso   1.000  C
  C101     1.0000 0.65590  0.98100  0.29226  Biso   1.000  C
  C102     1.0000 0.34410  0.98100  0.20774  Biso   1.000  C
  C103     1.0000 0.15590  0.48100  0.29226  Biso   1.000  C
  C104     1.0000 0.84410  0.48100  0.20774  Biso   1.000  C
  H73      1.0000 0.38290  0.01510  0.74450  Biso   1.000  H
  H74      1.0000 0.61710  0.01510  0.75550  Biso   1.000  H
  H75      1.0000 0.88290  0.51510  0.74450  Biso   1.000  H
  H76      1.0000 0.11710  0.51510  0.75550  Biso   1.000  H
  H77      1.0000 0.61710  0.98490  0.25550  Biso   1.000  H
  H78      1.0000 0.38290  0.98490  0.24450  Biso   1.000  H
  H79      1.0000 0.11710  0.48490  0.25550  Biso   1.000  H
  H80      1.0000 0.88290  0.48490  0.24450  Biso   1.000  H
  C105     1.0000 0.35260  0.08930  0.55807  Biso   1.000  C
  C106     1.0000 0.64740  0.08930  0.94193  Biso   1.000  C
  C107     1.0000 0.85260  0.58930  0.55807  Biso   1.000  C
  C108     1.0000 0.14740  0.58930  0.94193  Biso   1.000  C
  C109     1.0000 0.64740  0.91070  0.44193  Biso   1.000  C
  C110     1.0000 0.35260  0.91070  0.05807  Biso   1.000  C
  C111     1.0000 0.14740  0.41070  0.44193  Biso   1.000  C
  C112     1.0000 0.85260  0.41070  0.05807  Biso   1.000  C
  C113     1.0000 0.29560  0.12450  0.51038  Biso   1.000  C
  C114     1.0000 0.70440  0.12450  0.98962  Biso   1.000  C
  C115     1.0000 0.79560  0.62450  0.51038  Biso   1.000  C
  C116     1.0000 0.20440  0.62450  0.98962  Biso   1.000  C
  C117     1.0000 0.70440  0.87550  0.48962  Biso   1.000  C
  C118     1.0000 0.29560  0.87550  0.01038  Biso   1.000  C
  C119     1.0000 0.20440  0.37550  0.48962  Biso   1.000  C
  C120     1.0000 0.79560  0.37550  0.01038  Biso   1.000  C
  H81      1.0000 0.23390  0.12900  0.50900  Biso   1.000  H
  H82      1.0000 0.76610  0.12900  0.99100  Biso   1.000  H
  H83      1.0000 0.73390  0.62900  0.50900  Biso   1.000  H
  H84      1.0000 0.26610  0.62900  0.99100  Biso   1.000  H
  H85      1.0000 0.76610  0.87100  0.49100  Biso   1.000  H
  H86      1.0000 0.23390  0.87100  0.00900  Biso   1.000  H
  H87      1.0000 0.26610  0.37100  0.49100  Biso   1.000  H
  H88      1.0000 0.73390  0.37100  0.00900  Biso   1.000  H
  C121     1.0000 0.33100  0.15270  0.46551  Biso   1.000  C
  C122     1.0000 0.66900  0.15270  0.03449  Biso   1.000  C
  C123     1.0000 0.83100  0.65270  0.46551  Biso   1.000  C
  C124     1.0000 0.16900  0.65270  0.03449  Biso   1.000  C
  C125     1.0000 0.66900  0.84730  0.53449  Biso   1.000  C
  C126     1.0000 0.33100  0.84730  0.96551  Biso   1.000  C
  C127     1.0000 0.16900  0.34730  0.53449  Biso   1.000  C
  C128     1.0000 0.83100  0.34730  0.96551  Biso   1.000  C
  C129     1.0000 0.47390  0.11370  0.51282  Biso   1.000  C
  C130     1.0000 0.52610  0.11370  0.98718  Biso   1.000  C
  C131     1.0000 0.97390  0.61370  0.51282  Biso   1.000  C
  C132     1.0000 0.02610  0.61370  0.98718  Biso   1.000  C
  C133     1.0000 0.52610  0.88630  0.48718  Biso   1.000  C
  C134     1.0000 0.47390  0.88630  0.01282  Biso   1.000  C
  C135     1.0000 0.02610  0.38630  0.48718  Biso   1.000  C
  C136     1.0000 0.97390  0.38630  0.01282  Biso   1.000  C
  C137     1.0000 0.44250  0.08360  0.55947  Biso   1.000  C
  C138     1.0000 0.55750  0.08360  0.94053  Biso   1.000  C
  C139     1.0000 0.94250  0.58360  0.55947  Biso   1.000  C
  C140     1.0000 0.05750  0.58360  0.94053  Biso   1.000  C
  C141     1.0000 0.55750  0.91640  0.44053  Biso   1.000  C
  C142     1.0000 0.44250  0.91640  0.05947  Biso   1.000  C
  C143     1.0000 0.05750  0.41640  0.44053  Biso   1.000  C
  C144     1.0000 0.94250  0.41640  0.05947  Biso   1.000  C
  H89      1.0000 0.48190  0.05970  0.59160  Biso   1.000  H
  H90      1.0000 0.51810  0.05970  0.90840  Biso   1.000  H
  H91      1.0000 0.98190  0.55970  0.59160  Biso   1.000  H
  H92      1.0000 0.01810  0.55970  0.90840  Biso   1.000  H
  H93      1.0000 0.51810  0.94030  0.40840  Biso   1.000  H
  H94      1.0000 0.48190  0.94030  0.09160  Biso   1.000  H
  H95      1.0000 0.01810  0.44030  0.40840  Biso   1.000  H
  H96      1.0000 0.98190  0.44030  0.09160  Biso   1.000  H
  C145     1.0000 0.28240  0.19110  0.41115  Biso   1.000  C
  C146     1.0000 0.71760  0.19110  0.08885  Biso   1.000  C
  C147     1.0000 0.78240  0.69110  0.41115  Biso   1.000  C
  C148     1.0000 0.21760  0.69110  0.08885  Biso   1.000  C
  C149     1.0000 0.71760  0.80890  0.58885  Biso   1.000  C
  C150     1.0000 0.28240  0.80890  0.91115  Biso   1.000  C
  C151     1.0000 0.21760  0.30890  0.58885  Biso   1.000  C
  C152     1.0000 0.78240  0.30890  0.91115  Biso   1.000  C
  C153     1.0000 0.19090  0.19770  0.39607  Biso   1.000  C
  C154     1.0000 0.80910  0.19770  0.10393  Biso   1.000  C
  C155     1.0000 0.69090  0.69770  0.39607  Biso   1.000  C
  C156     1.0000 0.30910  0.69770  0.10393  Biso   1.000  C
  C157     1.0000 0.80910  0.80230  0.60393  Biso   1.000  C
  C158     1.0000 0.19090  0.80230  0.89607  Biso   1.000  C
  C159     1.0000 0.30910  0.30230  0.60393  Biso   1.000  C
  C160     1.0000 0.69090  0.30230  0.89607  Biso   1.000  C
  H97      1.0000 0.15480  0.17950  0.42140  Biso   1.000  H
  H98      1.0000 0.84520  0.17950  0.07860  Biso   1.000  H
  H99      1.0000 0.65480  0.67950  0.42140  Biso   1.000  H
  H100     1.0000 0.34520  0.67950  0.07860  Biso   1.000  H
  H101     1.0000 0.84520  0.82050  0.57860  Biso   1.000  H
  H102     1.0000 0.15480  0.82050  0.92140  Biso   1.000  H
  H103     1.0000 0.34520  0.32050  0.57860  Biso   1.000  H
  H104     1.0000 0.65480  0.32050  0.92140  Biso   1.000  H
  C161     1.0000 0.15360  0.23170  0.34282  Biso   1.000  C
  C162     1.0000 0.84640  0.23170  0.15718  Biso   1.000  C
  C163     1.0000 0.65360  0.73170  0.34282  Biso   1.000  C
  C164     1.0000 0.34640  0.73170  0.15718  Biso   1.000  C
  C165     1.0000 0.84640  0.76830  0.65718  Biso   1.000  C
  C166     1.0000 0.15360  0.76830  0.84282  Biso   1.000  C
  C167     1.0000 0.34640  0.26830  0.65718  Biso   1.000  C
  C168     1.0000 0.65360  0.26830  0.84282  Biso   1.000  C
  H105     1.0000 0.09100  0.23710  0.33120  Biso   1.000  H
  H106     1.0000 0.90900  0.23710  0.16880  Biso   1.000  H
  H107     1.0000 0.59100  0.73710  0.33120  Biso   1.000  H
  H108     1.0000 0.40900  0.73710  0.16880  Biso   1.000  H
  H109     1.0000 0.90900  0.76290  0.66880  Biso   1.000  H
  H110     1.0000 0.09100  0.76290  0.83120  Biso   1.000  H
  H111     1.0000 0.40900  0.26290  0.66880  Biso   1.000  H
  H112     1.0000 0.59100  0.26290  0.83120  Biso   1.000  H
  C169     1.0000 0.20680  0.25750  0.30688  Biso   1.000  C
  C170     1.0000 0.79320  0.25750  0.19312  Biso   1.000  C
  C171     1.0000 0.70680  0.75750  0.30688  Biso   1.000  C
  C172     1.0000 0.29320  0.75750  0.19312  Biso   1.000  C
  C173     1.0000 0.79320  0.74250  0.69312  Biso   1.000  C
  C174     1.0000 0.20680  0.74250  0.80688  Biso   1.000  C
  C175     1.0000 0.29320  0.24250  0.69312  Biso   1.000  C
  C176     1.0000 0.70680  0.24250  0.80688  Biso   1.000  C
  H113     1.0000 0.18170  0.28020  0.27010  Biso   1.000  H
  H114     1.0000 0.81830  0.28020  0.22990  Biso   1.000  H
  H115     1.0000 0.68170  0.78020  0.27010  Biso   1.000  H
  H116     1.0000 0.31830  0.78020  0.22990  Biso   1.000  H
  H117     1.0000 0.81830  0.71980  0.72990  Biso   1.000  H
  H118     1.0000 0.18170  0.71980  0.77010  Biso   1.000  H
  H119     1.0000 0.31830  0.21980  0.72990  Biso   1.000  H
  H120     1.0000 0.68170  0.21980  0.77010  Biso   1.000  H
  C177     1.0000 0.29790  0.25000  0.32519  Biso   1.000  C
  C178     1.0000 0.70210  0.25000  0.17481  Biso   1.000  C
  C179     1.0000 0.79790  0.75000  0.32519  Biso   1.000  C
  C180     1.0000 0.20210  0.75000  0.17481  Biso   1.000  C
  C181     1.0000 0.70210  0.75000  0.67481  Biso   1.000  C
  C182     1.0000 0.29790  0.75000  0.82519  Biso   1.000  C
  C183     1.0000 0.20210  0.25000  0.67481  Biso   1.000  C
  C184     1.0000 0.79790  0.25000  0.82519  Biso   1.000  C
  H121     1.0000 0.33500  0.26830  0.30060  Biso   1.000  H
  H122     1.0000 0.66500  0.26830  0.19940  Biso   1.000  H
  H123     1.0000 0.83500  0.76830  0.30060  Biso   1.000  H
  H124     1.0000 0.16500  0.76830  0.19940  Biso   1.000  H
  H125     1.0000 0.66500  0.73170  0.69940  Biso   1.000  H
  H126     1.0000 0.33500  0.73170  0.80060  Biso   1.000  H
  H127     1.0000 0.16500  0.23170  0.69940  Biso   1.000  H
  H128     1.0000 0.83500  0.23170  0.80060  Biso   1.000  H
  C185     1.0000 0.66290  0.16110  0.45114  Biso   1.000  C
  C186     1.0000 0.33710  0.16110  0.04886  Biso   1.000  C
  C187     1.0000 0.16290  0.66110  0.45114  Biso   1.000  C
  C188     1.0000 0.83710  0.66110  0.04886  Biso   1.000  C
  C189     1.0000 0.33710  0.83890  0.54886  Biso   1.000  C
  C190     1.0000 0.66290  0.83890  0.95114  Biso   1.000  C
  C191     1.0000 0.83710  0.33890  0.54886  Biso   1.000  C
  C192     1.0000 0.16290  0.33890  0.95114  Biso   1.000  C
  H129     1.0000 0.67180  0.18820  0.41740  Biso   1.000  H
  H130     1.0000 0.32820  0.18820  0.08260  Biso   1.000  H
  H131     1.0000 0.17180  0.68820  0.41740  Biso   1.000  H
  H132     1.0000 0.82820  0.68820  0.08260  Biso   1.000  H
  H133     1.0000 0.32820  0.81180  0.58260  Biso   1.000  H
  H134     1.0000 0.67180  0.81180  0.91740  Biso   1.000  H
  H135     1.0000 0.82820  0.31180  0.58260  Biso   1.000  H
  H136     1.0000 0.17180  0.31180  0.91740  Biso   1.000  H
  C193     1.0000 0.73470  0.13070  0.48910  Biso   1.000  C
  C194     1.0000 0.26530  0.13070  0.01090  Biso   1.000  C
  C195     1.0000 0.23470  0.63070  0.48910  Biso   1.000  C
  C196     1.0000 0.76530  0.63070  0.01090  Biso   1.000  C
  C197     1.0000 0.26530  0.86930  0.51090  Biso   1.000  C
  C198     1.0000 0.73470  0.86930  0.98910  Biso   1.000  C
  C199     1.0000 0.76530  0.36930  0.51090  Biso   1.000  C
  C200     1.0000 0.23470  0.36930  0.98910  Biso   1.000  C
  H137     1.0000 0.79260  0.13670  0.48200  Biso   1.000  H
  H138     1.0000 0.20740  0.13670  0.01800  Biso   1.000  H
  H139     1.0000 0.29260  0.63670  0.48200  Biso   1.000  H
  H140     1.0000 0.70740  0.63670  0.01800  Biso   1.000  H
  H141     1.0000 0.20740  0.86330  0.51800  Biso   1.000  H
  H142     1.0000 0.79260  0.86330  0.98200  Biso   1.000  H
  H143     1.0000 0.70740  0.36330  0.51800  Biso   1.000  H
  H144     1.0000 0.29260  0.36330  0.98200  Biso   1.000  H
  C201     1.0000 0.72200  0.09080  0.53846  Biso   1.000  C
  C202     1.0000 0.27800  0.09080  0.96154  Biso   1.000  C
  C203     1.0000 0.22200  0.59080  0.53846  Biso   1.000  C
  C204     1.0000 0.77800  0.59080  0.96154  Biso   1.000  C
  C205     1.0000 0.27800  0.90920  0.46154  Biso   1.000  C
  C206     1.0000 0.72200  0.90920  0.03846  Biso   1.000  C
  C207     1.0000 0.77800  0.40920  0.46154  Biso   1.000  C
  C208     1.0000 0.22200  0.40920  0.03846  Biso   1.000  C
  H145     1.0000 0.77110  0.06890  0.56540  Biso   1.000  H
  H146     1.0000 0.22890  0.06890  0.93460  Biso   1.000  H
  H147     1.0000 0.27110  0.56890  0.56540  Biso   1.000  H
  H148     1.0000 0.72890  0.56890  0.93460  Biso   1.000  H
  H149     1.0000 0.22890  0.93110  0.43460  Biso   1.000  H
  H150     1.0000 0.77110  0.93110  0.06540  Biso   1.000  H
  H151     1.0000 0.72890  0.43110  0.43460  Biso   1.000  H
  H152     1.0000 0.27110  0.43110  0.06540  Biso   1.000  H
  C209     1.0000 0.63740  0.08350  0.54780  Biso   1.000  C
  C210     1.0000 0.36260  0.08350  0.95220  Biso   1.000  C
  C211     1.0000 0.13740  0.58350  0.54780  Biso   1.000  C
  C212     1.0000 0.86260  0.58350  0.95220  Biso   1.000  C
  C213     1.0000 0.36260  0.91650  0.45220  Biso   1.000  C
  C214     1.0000 0.63740  0.91650  0.04780  Biso   1.000  C
  C215     1.0000 0.86260  0.41650  0.45220  Biso   1.000  C
  C216     1.0000 0.13740  0.41650  0.04780  Biso   1.000  C
  H153     1.0000 0.62740  0.05650  0.58130  Biso   1.000  H
  H154     1.0000 0.37260  0.05650  0.91870  Biso   1.000  H
  H155     1.0000 0.12740  0.55650  0.58130  Biso   1.000  H
  H156     1.0000 0.87260  0.55650  0.91870  Biso   1.000  H
  H157     1.0000 0.37260  0.94350  0.41870  Biso   1.000  H
  H158     1.0000 0.62740  0.94350  0.08130  Biso   1.000  H
  H159     1.0000 0.87260  0.44350  0.41870  Biso   1.000  H
  H160     1.0000 0.12740  0.44350  0.08130  Biso   1.000  H
  C217     1.0000 0.56760  0.11580  0.50809  Biso   1.000  C
  C218     1.0000 0.43240  0.11580  0.99191  Biso   1.000  C
  C219     1.0000 0.06760  0.61580  0.50809  Biso   1.000  C
  C220     1.0000 0.93240  0.61580  0.99191  Biso   1.000  C
  C221     1.0000 0.43240  0.88420  0.49191  Biso   1.000  C
  C222     1.0000 0.56760  0.88420  0.00809  Biso   1.000  C
  C223     1.0000 0.93240  0.38420  0.49191  Biso   1.000  C
  C224     1.0000 0.06760  0.38420  0.00809  Biso   1.000  C
  Cl9      1.0000 0.59310  0.27370  0.64000  Biso   1.000  Cl
  Cl10     1.0000 0.40690  0.27370  0.86000  Biso   1.000  Cl
  Cl11     1.0000 0.09310  0.77370  0.64000  Biso   1.000  Cl
  Cl12     1.0000 0.90690  0.77370  0.86000  Biso   1.000  Cl
  Cl13     1.0000 0.40690  0.72630  0.36000  Biso   1.000  Cl
  Cl14     1.0000 0.59310  0.72630  0.14000  Biso   1.000  Cl
  Cl15     1.0000 0.90690  0.22630  0.36000  Biso   1.000  Cl
  Cl16     1.0000 0.09310  0.22630  0.14000  Biso   1.000  Cl
  O49      1.0000 0.39600  0.83670  0.72630  Biso   1.000  O
  O50      1.0000 0.60400  0.83670  0.77370  Biso   1.000  O
  O51      1.0000 0.89600  0.33670  0.72630  Biso   1.000  O
  O52      1.0000 0.10400  0.33670  0.77370  Biso   1.000  O
  O53      1.0000 0.60400  0.16330  0.27370  Biso   1.000  O
  O54      1.0000 0.39600  0.16330  0.22630  Biso   1.000  O
  O55      1.0000 0.10400  0.66330  0.27370  Biso   1.000  O
  O56      1.0000 0.89600  0.66330  0.22630  Biso   1.000  O
  O57      1.0000 0.42200  0.34260  0.49649  Biso   1.000  O
  O58      1.0000 0.57800  0.34260  0.00351  Biso   1.000  O
  O59      1.0000 0.92200  0.84260  0.49649  Biso   1.000  O
  O60      1.0000 0.07800  0.84260  0.00351  Biso   1.000  O
  O61      1.0000 0.57800  0.65740  0.50351  Biso   1.000  O
  O62      1.0000 0.42200  0.65740  0.99649  Biso   1.000  O
  O63      1.0000 0.07800  0.15740  0.50351  Biso   1.000  O
  O64      1.0000 0.92200  0.15740  0.99649  Biso   1.000  O
  O65      1.0000 0.40960  0.51060  0.52560  Biso   1.000  O
  O66      1.0000 0.59040  0.51060  0.97440  Biso   1.000  O
  O67      1.0000 0.90960  0.01060  0.52560  Biso   1.000  O
  O68      1.0000 0.09040  0.01060  0.97440  Biso   1.000  O
  O69      1.0000 0.59040  0.48940  0.47440  Biso   1.000  O
  O70      1.0000 0.40960  0.48940  0.02560  Biso   1.000  O
  O71      1.0000 0.09040  0.98940  0.47440  Biso   1.000  O
  O72      1.0000 0.90960  0.98940  0.02560  Biso   1.000  O
  Cl17     1.0000 0.60040  0.28460  0.63580  Biso   1.000  Cl
  Cl18     1.0000 0.39960  0.28460  0.86420  Biso   1.000  Cl
  Cl19     1.0000 0.10040  0.78460  0.63580  Biso   1.000  Cl
  Cl20     1.0000 0.89960  0.78460  0.86420  Biso   1.000  Cl
  Cl21     1.0000 0.39960  0.71540  0.36420  Biso   1.000  Cl
  Cl22     1.0000 0.60040  0.71540  0.13580  Biso   1.000  Cl
  Cl23     1.0000 0.89960  0.21540  0.36420  Biso   1.000  Cl
  Cl24     1.0000 0.10040  0.21540  0.13580  Biso   1.000  Cl
