data_image0
_cell_length_a       15.729
_cell_length_b       15.833
_cell_length_c       16.449
_cell_angle_alpha    90
_cell_angle_beta     114.84
_cell_angle_gamma    90

_symmetry_space_group_name_H-M    "P 1"
_symmetry_int_tables_number       1

loop_
  _symmetry_equiv_pos_as_xyz
  'x, y, z'

loop_
  _atom_site_label
  _atom_site_occupancy
  _atom_site_fract_x
  _atom_site_fract_y
  _atom_site_fract_z
  _atom_site_thermal_displace_type
  _atom_site_B_iso_or_equiv
  _atom_site_type_symbol
  Cu1      1.0000 0.50000  0.04628  0.25000  Biso   1.000  Cu
  Cu2      1.0000 0.00000  0.54628  0.25000  Biso   1.000  Cu
  Cu3      1.0000 0.50000  0.95372  0.75000  Biso   1.000  Cu
  Cu4      1.0000 1.00000  0.45372  0.75000  Biso   1.000  Cu
  Cu5      1.0000 0.50000  0.50000  0.50000  Biso   1.000  Cu
  Cu6      1.0000 0.50000  0.50000  0.00000  Biso   1.000  Cu
  Cu7      1.0000 0.00000  0.00000  0.50000  Biso   1.000  Cu
  Cu8      1.0000 0.00000  0.00000  0.00000  Biso   1.000  Cu
  C1       1.0000 0.36740  0.14720  0.15090  Biso   1.000  C
  C2       1.0000 0.63260  0.14720  0.34910  Biso   1.000  C
  C3       1.0000 0.86740  0.64720  0.15090  Biso   1.000  C
  C4       1.0000 0.13260  0.64720  0.34910  Biso   1.000  C
  C5       1.0000 0.63260  0.85280  0.84910  Biso   1.000  C
  C6       1.0000 0.36740  0.85280  0.65090  Biso   1.000  C
  C7       1.0000 0.13260  0.35280  0.84910  Biso   1.000  C
  C8       1.0000 0.86740  0.35280  0.65090  Biso   1.000  C
  C9       1.0000 0.30380  0.19810  0.07130  Biso   1.000  C
  C10      1.0000 0.69620  0.19810  0.42870  Biso   1.000  C
  C11      1.0000 0.80380  0.69810  0.07130  Biso   1.000  C
  C12      1.0000 0.19620  0.69810  0.42870  Biso   1.000  C
  C13      1.0000 0.69620  0.80190  0.92870  Biso   1.000  C
  C14      1.0000 0.30380  0.80190  0.57130  Biso   1.000  C
  C15      1.0000 0.19620  0.30190  0.92870  Biso   1.000  C
  C16      1.0000 0.80380  0.30190  0.57130  Biso   1.000  C
  C17      1.0000 0.20880  0.18020  0.02190  Biso   1.000  C
  C18      1.0000 0.79120  0.18020  0.47810  Biso   1.000  C
  C19      1.0000 0.70880  0.68020  0.02190  Biso   1.000  C
  C20      1.0000 0.29120  0.68020  0.47810  Biso   1.000  C
  C21      1.0000 0.79120  0.81980  0.97810  Biso   1.000  C
  C22      1.0000 0.20880  0.81980  0.52190  Biso   1.000  C
  C23      1.0000 0.29120  0.31980  0.97810  Biso   1.000  C
  C24      1.0000 0.70880  0.31980  0.52190  Biso   1.000  C
  C25      1.0000 0.34340  0.26780  0.04910  Biso   1.000  C
  C26      1.0000 0.65660  0.26780  0.45090  Biso   1.000  C
  C27      1.0000 0.84340  0.76780  0.04910  Biso   1.000  C
  C28      1.0000 0.15660  0.76780  0.45090  Biso   1.000  C
  C29      1.0000 0.65660  0.73220  0.95090  Biso   1.000  C
  C30      1.0000 0.34340  0.73220  0.54910  Biso   1.000  C
  C31      1.0000 0.15660  0.23220  0.95090  Biso   1.000  C
  C32      1.0000 0.84340  0.23220  0.54910  Biso   1.000  C
  C33      1.0000 0.16370  0.10480  0.04300  Biso   1.000  C
  C34      1.0000 0.83630  0.10480  0.45700  Biso   1.000  C
  C35      1.0000 0.66370  0.60480  0.04300  Biso   1.000  C
  C36      1.0000 0.33630  0.60480  0.45700  Biso   1.000  C
  C37      1.0000 0.83630  0.89520  0.95700  Biso   1.000  C
  C38      1.0000 0.16370  0.89520  0.54300  Biso   1.000  C
  C39      1.0000 0.33630  0.39520  0.95700  Biso   1.000  C
  C40      1.0000 0.66370  0.39520  0.54300  Biso   1.000  C
  C41      1.0000 0.38200  0.92590  0.30190  Biso   1.000  C
  C42      1.0000 0.61800  0.92590  0.19810  Biso   1.000  C
  C43      1.0000 0.88200  0.42590  0.30190  Biso   1.000  C
  C44      1.0000 0.11800  0.42590  0.19810  Biso   1.000  C
  C45      1.0000 0.61800  0.07410  0.69810  Biso   1.000  C
  C46      1.0000 0.38200  0.07410  0.80190  Biso   1.000  C
  C47      1.0000 0.11800  0.57410  0.69810  Biso   1.000  C
  C48      1.0000 0.88200  0.57410  0.80190  Biso   1.000  C
  H1       1.0000 0.38630  0.88980  0.25920  Biso   1.000  H
  H2       1.0000 0.61370  0.88980  0.24080  Biso   1.000  H
  H3       1.0000 0.88630  0.38980  0.25920  Biso   1.000  H
  H4       1.0000 0.11370  0.38980  0.24080  Biso   1.000  H
  H5       1.0000 0.61370  0.11020  0.74080  Biso   1.000  H
  H6       1.0000 0.38630  0.11020  0.75920  Biso   1.000  H
  H7       1.0000 0.11370  0.61020  0.74080  Biso   1.000  H
  H8       1.0000 0.88630  0.61020  0.75920  Biso   1.000  H
  C49      1.0000 0.33350  0.89960  0.35020  Biso   1.000  C
  C50      1.0000 0.66650  0.89960  0.14980  Biso   1.000  C
  C51      1.0000 0.83350  0.39960  0.35020  Biso   1.000  C
  C52      1.0000 0.16650  0.39960  0.14980  Biso   1.000  C
  C53      1.0000 0.66650  0.10040  0.64980  Biso   1.000  C
  C54      1.0000 0.33350  0.10040  0.85020  Biso   1.000  C
  C55      1.0000 0.16650  0.60040  0.64980  Biso   1.000  C
  C56      1.0000 0.83350  0.60040  0.85020  Biso   1.000  C
  H9       1.0000 0.30650  0.84620  0.34100  Biso   1.000  H
  H10      1.0000 0.69350  0.84620  0.15900  Biso   1.000  H
  H11      1.0000 0.80650  0.34620  0.34100  Biso   1.000  H
  H12      1.0000 0.19350  0.34620  0.15900  Biso   1.000  H
  H13      1.0000 0.69350  0.15380  0.65900  Biso   1.000  H
  H14      1.0000 0.30650  0.15380  0.84100  Biso   1.000  H
  H15      1.0000 0.19350  0.65380  0.65900  Biso   1.000  H
  H16      1.0000 0.80650  0.65380  0.84100  Biso   1.000  H
  C57      1.0000 0.32520  0.95320  0.41210  Biso   1.000  C
  C58      1.0000 0.67480  0.95320  0.08790  Biso   1.000  C
  C59      1.0000 0.82520  0.45320  0.41210  Biso   1.000  C
  C60      1.0000 0.17480  0.45320  0.08790  Biso   1.000  C
  C61      1.0000 0.67480  0.04680  0.58790  Biso   1.000  C
  C62      1.0000 0.32520  0.04680  0.91210  Biso   1.000  C
  C63      1.0000 0.17480  0.54680  0.58790  Biso   1.000  C
  C64      1.0000 0.82520  0.54680  0.91210  Biso   1.000  C
  H17      1.0000 0.29190  0.93670  0.44470  Biso   1.000  H
  H18      1.0000 0.70810  0.93670  0.05530  Biso   1.000  H
  H19      1.0000 0.79190  0.43670  0.44470  Biso   1.000  H
  H20      1.0000 0.20810  0.43670  0.05530  Biso   1.000  H
  H21      1.0000 0.70810  0.06330  0.55530  Biso   1.000  H
  H22      1.0000 0.29190  0.06330  0.94470  Biso   1.000  H
  H23      1.0000 0.20810  0.56330  0.55530  Biso   1.000  H
  H24      1.0000 0.79190  0.56330  0.94470  Biso   1.000  H
  C65      1.0000 0.36690  0.03170  0.42550  Biso   1.000  C
  C66      1.0000 0.63310  0.03170  0.07450  Biso   1.000  C
  C67      1.0000 0.86690  0.53170  0.42550  Biso   1.000  C
  C68      1.0000 0.13310  0.53170  0.07450  Biso   1.000  C
  C69      1.0000 0.63310  0.96830  0.57450  Biso   1.000  C
  C70      1.0000 0.36690  0.96830  0.92550  Biso   1.000  C
  C71      1.0000 0.13310  0.46830  0.57450  Biso   1.000  C
  C72      1.0000 0.86690  0.46830  0.92550  Biso   1.000  C
  C73      1.0000 0.41560  0.05270  0.37570  Biso   1.000  C
  C74      1.0000 0.58440  0.05270  0.12430  Biso   1.000  C
  C75      1.0000 0.91560  0.55270  0.37570  Biso   1.000  C
  C76      1.0000 0.08440  0.55270  0.12430  Biso   1.000  C
  C77      1.0000 0.58440  0.94730  0.62430  Biso   1.000  C
  C78      1.0000 0.41560  0.94730  0.87570  Biso   1.000  C
  C79      1.0000 0.08440  0.44730  0.62430  Biso   1.000  C
  C80      1.0000 0.91560  0.44730  0.87570  Biso   1.000  C
  H25      1.0000 0.44470  0.10520  0.38520  Biso   1.000  H
  H26      1.0000 0.55530  0.10520  0.11480  Biso   1.000  H
  H27      1.0000 0.94470  0.60520  0.38520  Biso   1.000  H
  H28      1.0000 0.05530  0.60520  0.11480  Biso   1.000  H
  H29      1.0000 0.55530  0.89480  0.61480  Biso   1.000  H
  H30      1.0000 0.44470  0.89480  0.88520  Biso   1.000  H
  H31      1.0000 0.05530  0.39480  0.61480  Biso   1.000  H
  H32      1.0000 0.94470  0.39480  0.88520  Biso   1.000  H
  C81      1.0000 0.36060  0.09380  0.48790  Biso   1.000  C
  C82      1.0000 0.63940  0.09380  0.01210  Biso   1.000  C
  C83      1.0000 0.86060  0.59380  0.48790  Biso   1.000  C
  C84      1.0000 0.13940  0.59380  0.01210  Biso   1.000  C
  C85      1.0000 0.63940  0.90620  0.51210  Biso   1.000  C
  C86      1.0000 0.36060  0.90620  0.98790  Biso   1.000  C
  C87      1.0000 0.13940  0.40620  0.51210  Biso   1.000  C
  C88      1.0000 0.86060  0.40620  0.98790  Biso   1.000  C
  C89      1.0000 0.36760  0.20600  0.55930  Biso   1.000  C
  C90      1.0000 0.63240  0.20600  0.94070  Biso   1.000  C
  C91      1.0000 0.86760  0.70600  0.55930  Biso   1.000  C
  C92      1.0000 0.13240  0.70600  0.94070  Biso   1.000  C
  C93      1.0000 0.63240  0.79400  0.44070  Biso   1.000  C
  C94      1.0000 0.36760  0.79400  0.05930  Biso   1.000  C
  C95      1.0000 0.13240  0.29400  0.44070  Biso   1.000  C
  C96      1.0000 0.86760  0.29400  0.05930  Biso   1.000  C
  C97      1.0000 0.38360  0.29540  0.58630  Biso   1.000  C
  C98      1.0000 0.61640  0.29540  0.91370  Biso   1.000  C
  C99      1.0000 0.88360  0.79540  0.58630  Biso   1.000  C
  C100     1.0000 0.11640  0.79540  0.91370  Biso   1.000  C
  C101     1.0000 0.61640  0.70460  0.41370  Biso   1.000  C
  C102     1.0000 0.38360  0.70460  0.08630  Biso   1.000  C
  C103     1.0000 0.11640  0.20460  0.41370  Biso   1.000  C
  C104     1.0000 0.88360  0.20460  0.08630  Biso   1.000  C
  C105     1.0000 0.36110  0.32920  0.65280  Biso   1.000  C
  C106     1.0000 0.63890  0.32920  0.84720  Biso   1.000  C
  C107     1.0000 0.86110  0.82920  0.65280  Biso   1.000  C
  C108     1.0000 0.13890  0.82920  0.84720  Biso   1.000  C
  C109     1.0000 0.63890  0.67080  0.34720  Biso   1.000  C
  C110     1.0000 0.36110  0.67080  0.15280  Biso   1.000  C
  C111     1.0000 0.13890  0.17080  0.34720  Biso   1.000  C
  C112     1.0000 0.86110  0.17080  0.15280  Biso   1.000  C
  H33      1.0000 0.33350  0.29580  0.68160  Biso   1.000  H
  H34      1.0000 0.66650  0.29580  0.81840  Biso   1.000  H
  H35      1.0000 0.83350  0.79580  0.68160  Biso   1.000  H
  H36      1.0000 0.16650  0.79580  0.81840  Biso   1.000  H
  H37      1.0000 0.66650  0.70420  0.31840  Biso   1.000  H
  H38      1.0000 0.33350  0.70420  0.18160  Biso   1.000  H
  H39      1.0000 0.16650  0.20420  0.31840  Biso   1.000  H
  H40      1.0000 0.83350  0.20420  0.18160  Biso   1.000  H
  C113     1.0000 0.38040  0.41270  0.67500  Biso   1.000  C
  C114     1.0000 0.61960  0.41270  0.82500  Biso   1.000  C
  C115     1.0000 0.88040  0.91270  0.67500  Biso   1.000  C
  C116     1.0000 0.11960  0.91270  0.82500  Biso   1.000  C
  C117     1.0000 0.61960  0.58730  0.32500  Biso   1.000  C
  C118     1.0000 0.38040  0.58730  0.17500  Biso   1.000  C
  C119     1.0000 0.11960  0.08730  0.32500  Biso   1.000  C
  C120     1.0000 0.88040  0.08730  0.17500  Biso   1.000  C
  H41      1.0000 0.36670  0.43660  0.71980  Biso   1.000  H
  H42      1.0000 0.63330  0.43660  0.78020  Biso   1.000  H
  H43      1.0000 0.86670  0.93660  0.71980  Biso   1.000  H
  H44      1.0000 0.13330  0.93660  0.78020  Biso   1.000  H
  H45      1.0000 0.63330  0.56340  0.28020  Biso   1.000  H
  H46      1.0000 0.36670  0.56340  0.21980  Biso   1.000  H
  H47      1.0000 0.13330  0.06340  0.28020  Biso   1.000  H
  H48      1.0000 0.86670  0.06340  0.21980  Biso   1.000  H
  C121     1.0000 0.42000  0.46070  0.63040  Biso   1.000  C
  C122     1.0000 0.58000  0.46070  0.86960  Biso   1.000  C
  C123     1.0000 0.92000  0.96070  0.63040  Biso   1.000  C
  C124     1.0000 0.08000  0.96070  0.86960  Biso   1.000  C
  C125     1.0000 0.58000  0.53930  0.36960  Biso   1.000  C
  C126     1.0000 0.42000  0.53930  0.13040  Biso   1.000  C
  C127     1.0000 0.08000  0.03930  0.36960  Biso   1.000  C
  C128     1.0000 0.92000  0.03930  0.13040  Biso   1.000  C
  H49      1.0000 0.43220  0.51740  0.64570  Biso   1.000  H
  H50      1.0000 0.56780  0.51740  0.85430  Biso   1.000  H
  H51      1.0000 0.93220  0.01740  0.64570  Biso   1.000  H
  H52      1.0000 0.06780  0.01740  0.85430  Biso   1.000  H
  H53      1.0000 0.56780  0.48260  0.35430  Biso   1.000  H
  H54      1.0000 0.43220  0.48260  0.14570  Biso   1.000  H
  H55      1.0000 0.06780  0.98260  0.35430  Biso   1.000  H
  H56      1.0000 0.93220  0.98260  0.14570  Biso   1.000  H
  C129     1.0000 0.42420  0.34780  0.54610  Biso   1.000  C
  C130     1.0000 0.57580  0.34780  0.95390  Biso   1.000  C
  C131     1.0000 0.92420  0.84780  0.54610  Biso   1.000  C
  C132     1.0000 0.07580  0.84780  0.95390  Biso   1.000  C
  C133     1.0000 0.57580  0.65220  0.45390  Biso   1.000  C
  C134     1.0000 0.42420  0.65220  0.04610  Biso   1.000  C
  C135     1.0000 0.07580  0.15220  0.45390  Biso   1.000  C
  C136     1.0000 0.92420  0.15220  0.04610  Biso   1.000  C
  H57      1.0000 0.44030  0.32500  0.50240  Biso   1.000  H
  H58      1.0000 0.55970  0.32500  0.99760  Biso   1.000  H
  H59      1.0000 0.94030  0.82500  0.50240  Biso   1.000  H
  H60      1.0000 0.05970  0.82500  0.99760  Biso   1.000  H
  H61      1.0000 0.55970  0.67500  0.49760  Biso   1.000  H
  H62      1.0000 0.44030  0.67500  0.00240  Biso   1.000  H
  H63      1.0000 0.05970  0.17500  0.49760  Biso   1.000  H
  H64      1.0000 0.94030  0.17500  0.00240  Biso   1.000  H
  N1       1.0000 0.42330  0.00180  0.31440  Biso   1.000  N
  N2       1.0000 0.57670  0.00180  0.18560  Biso   1.000  N
  N3       1.0000 0.92330  0.50180  0.31440  Biso   1.000  N
  N4       1.0000 0.07670  0.50180  0.18560  Biso   1.000  N
  N5       1.0000 0.57670  0.99820  0.68560  Biso   1.000  N
  N6       1.0000 0.42330  0.99820  0.81440  Biso   1.000  N
  N7       1.0000 0.07670  0.49820  0.68560  Biso   1.000  N
  N8       1.0000 0.92330  0.49820  0.81440  Biso   1.000  N
  N9       1.0000 0.38200  0.17540  0.48880  Biso   1.000  N
  N10      1.0000 0.61800  0.17540  0.01120  Biso   1.000  N
  N11      1.0000 0.88200  0.67540  0.48880  Biso   1.000  N
  N12      1.0000 0.11800  0.67540  0.01120  Biso   1.000  N
  N13      1.0000 0.61800  0.82460  0.51120  Biso   1.000  N
  N14      1.0000 0.38200  0.82460  0.98880  Biso   1.000  N
  N15      1.0000 0.11800  0.32460  0.51120  Biso   1.000  N
  N16      1.0000 0.88200  0.32460  0.98880  Biso   1.000  N
  N17      1.0000 0.33260  0.07900  0.55260  Biso   1.000  N
  N18      1.0000 0.66740  0.07900  0.94740  Biso   1.000  N
  N19      1.0000 0.83260  0.57900  0.55260  Biso   1.000  N
  N20      1.0000 0.16740  0.57900  0.94740  Biso   1.000  N
  N21      1.0000 0.66740  0.92100  0.44740  Biso   1.000  N
  N22      1.0000 0.33260  0.92100  0.05260  Biso   1.000  N
  N23      1.0000 0.16740  0.42100  0.44740  Biso   1.000  N
  N24      1.0000 0.83260  0.42100  0.05260  Biso   1.000  N
  N25      1.0000 0.33760  0.15050  0.59990  Biso   1.000  N
  N26      1.0000 0.66240  0.15050  0.90010  Biso   1.000  N
  N27      1.0000 0.83760  0.65050  0.59990  Biso   1.000  N
  N28      1.0000 0.16240  0.65050  0.90010  Biso   1.000  N
  N29      1.0000 0.66240  0.84950  0.40010  Biso   1.000  N
  N30      1.0000 0.33760  0.84950  0.09990  Biso   1.000  N
  N31      1.0000 0.16240  0.34950  0.40010  Biso   1.000  N
  N32      1.0000 0.83760  0.34950  0.09990  Biso   1.000  N
  N33      1.0000 0.44200  0.42970  0.56610  Biso   1.000  N
  N34      1.0000 0.55800  0.42970  0.93390  Biso   1.000  N
  N35      1.0000 0.94200  0.92970  0.56610  Biso   1.000  N
  N36      1.0000 0.05800  0.92970  0.93390  Biso   1.000  N
  N37      1.0000 0.55800  0.57030  0.43390  Biso   1.000  N
  N38      1.0000 0.44200  0.57030  0.06610  Biso   1.000  N
  N39      1.0000 0.05800  0.07030  0.43390  Biso   1.000  N
  N40      1.0000 0.94200  0.07030  0.06610  Biso   1.000  N
  O1       1.0000 0.40230  0.07910  0.13510  Biso   1.000  O
  O2       1.0000 0.59770  0.07910  0.36490  Biso   1.000  O
  O3       1.0000 0.90230  0.57910  0.13510  Biso   1.000  O
  O4       1.0000 0.09770  0.57910  0.36490  Biso   1.000  O
  O5       1.0000 0.59770  0.92090  0.86490  Biso   1.000  O
  O6       1.0000 0.40230  0.92090  0.63510  Biso   1.000  O
  O7       1.0000 0.09770  0.42090  0.86490  Biso   1.000  O
  O8       1.0000 0.90230  0.42090  0.63510  Biso   1.000  O
  O9       1.0000 0.39290  0.17510  0.22630  Biso   1.000  O
  O10      1.0000 0.60710  0.17510  0.27370  Biso   1.000  O
  O11      1.0000 0.89290  0.67510  0.22630  Biso   1.000  O
  O12      1.0000 0.10710  0.67510  0.27370  Biso   1.000  O
  O13      1.0000 0.60710  0.82490  0.77370  Biso   1.000  O
  O14      1.0000 0.39290  0.82490  0.72630  Biso   1.000  O
  O15      1.0000 0.10710  0.32490  0.77370  Biso   1.000  O
  O16      1.0000 0.89290  0.32490  0.72630  Biso   1.000  O
  O17      1.0000 0.07750  0.09700  0.99960  Biso   1.000  O
  O18      1.0000 0.92250  0.09700  0.50040  Biso   1.000  O
  O19      1.0000 0.57750  0.59700  0.99960  Biso   1.000  O
  O20      1.0000 0.42250  0.59700  0.50040  Biso   1.000  O
  O21      1.0000 0.92250  0.90300  0.00040  Biso   1.000  O
  O22      1.0000 0.07750  0.90300  0.49960  Biso   1.000  O
  O23      1.0000 0.42250  0.40300  0.00040  Biso   1.000  O
  O24      1.0000 0.57750  0.40300  0.49960  Biso   1.000  O
  O25      1.0000 0.21500  0.05210  0.09700  Biso   1.000  O
  O26      1.0000 0.78500  0.05210  0.40300  Biso   1.000  O
  O27      1.0000 0.71500  0.55210  0.09700  Biso   1.000  O
  O28      1.0000 0.28500  0.55210  0.40300  Biso   1.000  O
  O29      1.0000 0.78500  0.94790  0.90300  Biso   1.000  O
  O30      1.0000 0.21500  0.94790  0.59700  Biso   1.000  O
  O31      1.0000 0.28500  0.44790  0.90300  Biso   1.000  O
  O32      1.0000 0.71500  0.44790  0.59700  Biso   1.000  O
  O33      1.0000 0.11120  0.94890  0.15050  Biso   1.000  O
  O34      1.0000 0.88880  0.94890  0.34950  Biso   1.000  O
  O35      1.0000 0.61120  0.44890  0.15050  Biso   1.000  O
  O36      1.0000 0.38880  0.44890  0.34950  Biso   1.000  O
  O37      1.0000 0.88880  0.05110  0.84950  Biso   1.000  O
  O38      1.0000 0.11120  0.05110  0.65050  Biso   1.000  O
  O39      1.0000 0.38880  0.55110  0.84950  Biso   1.000  O
  O40      1.0000 0.61120  0.55110  0.65050  Biso   1.000  O
  O41      1.0000 0.32810  0.27970  0.31980  Biso   1.000  O
  O42      1.0000 0.67190  0.27970  0.18020  Biso   1.000  O
  O43      1.0000 0.82810  0.77970  0.31980  Biso   1.000  O
  O44      1.0000 0.17190  0.77970  0.18020  Biso   1.000  O
  O45      1.0000 0.67190  0.72030  0.68020  Biso   1.000  O
  O46      1.0000 0.32810  0.72030  0.81980  Biso   1.000  O
  O47      1.0000 0.17190  0.22030  0.68020  Biso   1.000  O
  O48      1.0000 0.82810  0.22030  0.81980  Biso   1.000  O
  H65      1.0000 0.40300  0.28100  0.07900  Biso   1.000  H
  H66      1.0000 0.59700  0.28100  0.42100  Biso   1.000  H
  H67      1.0000 0.90300  0.78100  0.07900  Biso   1.000  H
  H68      1.0000 0.09700  0.78100  0.42100  Biso   1.000  H
  H69      1.0000 0.59700  0.71900  0.92100  Biso   1.000  H
  H70      1.0000 0.40300  0.71900  0.57900  Biso   1.000  H
  H71      1.0000 0.09700  0.21900  0.92100  Biso   1.000  H
  H72      1.0000 0.90300  0.21900  0.57900  Biso   1.000  H
  H73      1.0000 0.33000  0.02900  0.57200  Biso   1.000  H
  H74      1.0000 0.67000  0.02900  0.92800  Biso   1.000  H
  H75      1.0000 0.83000  0.52900  0.57200  Biso   1.000  H
  H76      1.0000 0.17000  0.52900  0.92800  Biso   1.000  H
  H77      1.0000 0.67000  0.97100  0.42800  Biso   1.000  H
  H78      1.0000 0.33000  0.97100  0.07200  Biso   1.000  H
  H79      1.0000 0.17000  0.47100  0.42800  Biso   1.000  H
  H80      1.0000 0.83000  0.47100  0.07200  Biso   1.000  H
  H81      1.0000 0.34200  0.25300  0.36900  Biso   1.000  H
  H82      1.0000 0.65800  0.25300  0.13100  Biso   1.000  H
  H83      1.0000 0.84200  0.75300  0.36900  Biso   1.000  H
  H84      1.0000 0.15800  0.75300  0.13100  Biso   1.000  H
  H85      1.0000 0.65800  0.74700  0.63100  Biso   1.000  H
  H86      1.0000 0.34200  0.74700  0.86900  Biso   1.000  H
  H87      1.0000 0.15800  0.24700  0.63100  Biso   1.000  H
  H88      1.0000 0.84200  0.24700  0.86900  Biso   1.000  H
  H89      1.0000 0.15600  0.97200  0.14200  Biso   1.000  H
  H90      1.0000 0.84400  0.97200  0.35800  Biso   1.000  H
  H91      1.0000 0.65600  0.47200  0.14200  Biso   1.000  H
  H92      1.0000 0.34400  0.47200  0.35800  Biso   1.000  H
  H93      1.0000 0.84400  0.02800  0.85800  Biso   1.000  H
  H94      1.0000 0.15600  0.02800  0.64200  Biso   1.000  H
  H95      1.0000 0.34400  0.52800  0.85800  Biso   1.000  H
  H96      1.0000 0.65600  0.52800  0.64200  Biso   1.000  H
  H97      1.0000 0.12700  0.89900  0.17100  Biso   1.000  H
  H98      1.0000 0.87300  0.89900  0.32900  Biso   1.000  H
  H99      1.0000 0.62700  0.39900  0.17100  Biso   1.000  H
  H100     1.0000 0.37300  0.39900  0.32900  Biso   1.000  H
  H101     1.0000 0.87300  0.10100  0.82900  Biso   1.000  H
  H102     1.0000 0.12700  0.10100  0.67100  Biso   1.000  H
  H103     1.0000 0.37300  0.60100  0.82900  Biso   1.000  H
  H104     1.0000 0.62700  0.60100  0.67100  Biso   1.000  H
  H105     1.0000 0.36100  0.25900  0.29400  Biso   1.000  H
  H106     1.0000 0.63900  0.25900  0.20600  Biso   1.000  H
  H107     1.0000 0.86100  0.75900  0.29400  Biso   1.000  H
  H108     1.0000 0.13900  0.75900  0.20600  Biso   1.000  H
  H109     1.0000 0.63900  0.74100  0.70600  Biso   1.000  H
  H110     1.0000 0.36100  0.74100  0.79400  Biso   1.000  H
  H111     1.0000 0.13900  0.24100  0.70600  Biso   1.000  H
  H112     1.0000 0.86100  0.24100  0.79400  Biso   1.000  H
