data_image0
_cell_length_a       8.046
_cell_length_b       13.7795
_cell_length_c       15.2279
_cell_angle_alpha    90
_cell_angle_beta     97.112
_cell_angle_gamma    90

_symmetry_space_group_name_H-M    "P 1"
_symmetry_int_tables_number       1

loop_
  _symmetry_equiv_pos_as_xyz
  'x, y, z'

loop_
  _atom_site_label
  _atom_site_occupancy
  _atom_site_fract_x
  _atom_site_fract_y
  _atom_site_fract_z
  _atom_site_thermal_displace_type
  _atom_site_B_iso_or_equiv
  _atom_site_type_symbol
  Cu1      1.0000 0.11362  0.71949  0.47334  Biso   1.000  Cu
  Cu2      1.0000 0.38638  0.21949  0.02666  Biso   1.000  Cu
  Cu3      1.0000 0.88638  0.28051  0.52666  Biso   1.000  Cu
  Cu4      1.0000 0.61362  0.78051  0.97334  Biso   1.000  Cu
  O1       1.0000 0.09419  0.64489  0.57512  Biso   1.000  O
  O2       1.0000 0.40581  0.14489  0.92488  Biso   1.000  O
  O3       1.0000 0.90581  0.35511  0.42488  Biso   1.000  O
  O4       1.0000 0.59419  0.85511  0.07512  Biso   1.000  O
  N1       1.0000 0.20613  0.61111  0.41180  Biso   1.000  N
  N2       1.0000 0.29387  0.11111  0.08820  Biso   1.000  N
  N3       1.0000 0.79387  0.38889  0.58820  Biso   1.000  N
  N4       1.0000 0.70613  0.88889  0.91180  Biso   1.000  N
  N5       1.0000 0.12340  0.79622  0.35933  Biso   1.000  N
  N6       1.0000 0.37660  0.29622  0.14067  Biso   1.000  N
  N7       1.0000 0.87660  0.20378  0.64067  Biso   1.000  N
  N8       1.0000 0.62340  0.70378  0.85933  Biso   1.000  N
  N9       1.0000 0.94530  0.81141  0.51381  Biso   1.000  N
  N10      1.0000 0.55470  0.31141  0.98619  Biso   1.000  N
  N11      1.0000 0.05470  0.18859  0.48619  Biso   1.000  N
  N12      1.0000 0.44530  0.68859  0.01381  Biso   1.000  N
  N13      1.0000 0.69020  0.83697  0.58344  Biso   1.000  N
  N14      1.0000 0.80980  0.33697  0.91656  Biso   1.000  N
  N15      1.0000 0.30980  0.16303  0.41656  Biso   1.000  N
  N16      1.0000 0.19020  0.66303  0.08344  Biso   1.000  N
  N17      1.0000 0.40690  0.77771  0.53023  Biso   1.000  N
  N18      1.0000 0.09310  0.27771  0.96977  Biso   1.000  N
  N19      1.0000 0.59310  0.22229  0.46977  Biso   1.000  N
  N20      1.0000 0.90690  0.72229  0.03023  Biso   1.000  N
  C1       1.0000 0.26350  0.42307  0.80947  Biso   1.000  C
  C2       1.0000 0.23650  0.92307  0.69053  Biso   1.000  C
  C3       1.0000 0.73650  0.57693  0.19053  Biso   1.000  C
  C4       1.0000 0.76350  0.07693  0.30947  Biso   1.000  C
  H1       1.0000 0.31880  0.36540  0.83110  Biso   1.000  H
  H2       1.0000 0.18120  0.86540  0.66890  Biso   1.000  H
  H3       1.0000 0.68120  0.63460  0.16890  Biso   1.000  H
  H4       1.0000 0.81880  0.13460  0.33110  Biso   1.000  H
  C5       1.0000 0.19190  0.48130  0.86630  Biso   1.000  C
  C6       1.0000 0.30810  0.98130  0.63370  Biso   1.000  C
  C7       1.0000 0.80810  0.51870  0.13370  Biso   1.000  C
  C8       1.0000 0.69190  0.01870  0.36630  Biso   1.000  C
  H5       1.0000 0.19910  0.46440  0.92710  Biso   1.000  H
  H6       1.0000 0.30090  0.96440  0.57290  Biso   1.000  H
  H7       1.0000 0.80090  0.53560  0.07290  Biso   1.000  H
  H8       1.0000 0.69910  0.03560  0.42710  Biso   1.000  H
  C9       1.0000 0.10760  0.56612  0.83576  Biso   1.000  C
  C10      1.0000 0.39240  0.06612  0.66424  Biso   1.000  C
  C11      1.0000 0.89240  0.43388  0.16424  Biso   1.000  C
  C12      1.0000 0.60760  0.93388  0.33576  Biso   1.000  C
  H9       1.0000 0.05660  0.60600  0.87570  Biso   1.000  H
  H10      1.0000 0.44340  0.10600  0.62430  Biso   1.000  H
  H11      1.0000 0.94340  0.39400  0.12430  Biso   1.000  H
  H12      1.0000 0.55660  0.89400  0.37570  Biso   1.000  H
  C13      1.0000 0.09880  0.59156  0.74795  Biso   1.000  C
  C14      1.0000 0.40120  0.09156  0.75205  Biso   1.000  C
  C15      1.0000 0.90120  0.40844  0.25205  Biso   1.000  C
  C16      1.0000 0.59880  0.90844  0.24795  Biso   1.000  C
  H13      1.0000 0.04120  0.64900  0.72760  Biso   1.000  H
  H14      1.0000 0.45880  0.14900  0.77240  Biso   1.000  H
  H15      1.0000 0.95880  0.35100  0.27240  Biso   1.000  H
  H16      1.0000 0.54120  0.85100  0.22760  Biso   1.000  H
  C17      1.0000 0.17430  0.53343  0.68789  Biso   1.000  C
  C18      1.0000 0.32570  0.03343  0.81211  Biso   1.000  C
  C19      1.0000 0.82570  0.46657  0.31211  Biso   1.000  C
  C20      1.0000 0.67430  0.96657  0.18789  Biso   1.000  C
  C21      1.0000 0.16950  0.56335  0.59579  Biso   1.000  C
  C22      1.0000 0.33050  0.06335  0.90421  Biso   1.000  C
  C23      1.0000 0.83050  0.43665  0.40421  Biso   1.000  C
  C24      1.0000 0.66950  0.93665  0.09579  Biso   1.000  C
  C25      1.0000 0.24290  0.50249  0.53679  Biso   1.000  C
  C26      1.0000 0.25710  0.00249  0.96321  Biso   1.000  C
  C27      1.0000 0.75710  0.49751  0.46321  Biso   1.000  C
  C28      1.0000 0.74290  0.99751  0.03679  Biso   1.000  C
  C29      1.0000 0.32090  0.41442  0.57091  Biso   1.000  C
  C30      1.0000 0.17910  0.91442  0.92909  Biso   1.000  C
  C31      1.0000 0.67910  0.58558  0.42909  Biso   1.000  C
  C32      1.0000 0.82090  0.08558  0.07091  Biso   1.000  C
  H17      1.0000 0.36860  0.37250  0.53130  Biso   1.000  H
  H18      1.0000 0.13140  0.87250  0.96870  Biso   1.000  H
  H19      1.0000 0.63140  0.62750  0.46870  Biso   1.000  H
  H20      1.0000 0.86860  0.12750  0.03130  Biso   1.000  H
  C33      1.0000 0.32960  0.38824  0.65696  Biso   1.000  C
  C34      1.0000 0.17040  0.88824  0.84304  Biso   1.000  C
  C35      1.0000 0.67040  0.61176  0.34304  Biso   1.000  C
  C36      1.0000 0.82960  0.11176  0.15696  Biso   1.000  C
  H21      1.0000 0.38500  0.32980  0.67640  Biso   1.000  H
  H22      1.0000 0.11500  0.82980  0.82360  Biso   1.000  H
  H23      1.0000 0.61500  0.67020  0.32360  Biso   1.000  H
  H24      1.0000 0.88500  0.17020  0.17640  Biso   1.000  H
  C37      1.0000 0.25710  0.44681  0.71852  Biso   1.000  C
  C38      1.0000 0.24290  0.94681  0.78148  Biso   1.000  C
  C39      1.0000 0.74290  0.55319  0.28148  Biso   1.000  C
  C40      1.0000 0.75710  0.05319  0.21852  Biso   1.000  C
  C41      1.0000 0.24350  0.52516  0.44290  Biso   1.000  C
  C42      1.0000 0.25650  0.02516  0.05710  Biso   1.000  C
  C43      1.0000 0.75650  0.47484  0.55710  Biso   1.000  C
  C44      1.0000 0.74350  0.97484  0.94290  Biso   1.000  C
  C45      1.0000 0.28980  0.44484  0.38321  Biso   1.000  C
  C46      1.0000 0.21020  0.94484  0.11679  Biso   1.000  C
  C47      1.0000 0.71020  0.55516  0.61679  Biso   1.000  C
  C48      1.0000 0.78980  0.05516  0.88321  Biso   1.000  C
  H25      1.0000 0.24650  0.46010  0.32180  Biso   1.000  H
  H26      1.0000 0.25350  0.96010  0.17820  Biso   1.000  H
  H27      1.0000 0.75350  0.53990  0.67820  Biso   1.000  H
  H28      1.0000 0.74650  0.03990  0.82180  Biso   1.000  H
  H29      1.0000 0.24100  0.38360  0.40040  Biso   1.000  H
  H30      1.0000 0.25900  0.88360  0.09960  Biso   1.000  H
  H31      1.0000 0.75900  0.61640  0.59960  Biso   1.000  H
  H32      1.0000 0.74100  0.11640  0.90040  Biso   1.000  H
  H33      1.0000 0.41200  0.43860  0.38860  Biso   1.000  H
  H34      1.0000 0.08800  0.93860  0.11140  Biso   1.000  H
  H35      1.0000 0.58800  0.56140  0.61140  Biso   1.000  H
  H36      1.0000 0.91200  0.06140  0.88860  Biso   1.000  H
  C49      1.0000 0.22200  0.63583  0.31888  Biso   1.000  C
  C50      1.0000 0.27800  0.13583  0.18112  Biso   1.000  C
  C51      1.0000 0.77800  0.36417  0.68112  Biso   1.000  C
  C52      1.0000 0.72200  0.86417  0.81888  Biso   1.000  C
  H37      1.0000 0.11850  0.61790  0.28020  Biso   1.000  H
  H38      1.0000 0.38150  0.11790  0.21980  Biso   1.000  H
  H39      1.0000 0.88150  0.38210  0.71980  Biso   1.000  H
  H40      1.0000 0.61850  0.88210  0.78020  Biso   1.000  H
  H41      1.0000 0.31730  0.60040  0.29860  Biso   1.000  H
  H42      1.0000 0.18270  0.10040  0.20140  Biso   1.000  H
  H43      1.0000 0.68270  0.39960  0.70140  Biso   1.000  H
  H44      1.0000 0.81730  0.89960  0.79860  Biso   1.000  H
  C53      1.0000 0.25090  0.74428  0.31539  Biso   1.000  C
  C54      1.0000 0.24910  0.24428  0.18461  Biso   1.000  C
  C55      1.0000 0.74910  0.25572  0.68461  Biso   1.000  C
  C56      1.0000 0.75090  0.75572  0.81539  Biso   1.000  C
  H45      1.0000 0.36400  0.76000  0.34530  Biso   1.000  H
  H46      1.0000 0.13600  0.26000  0.15470  Biso   1.000  H
  H47      1.0000 0.63600  0.24000  0.65470  Biso   1.000  H
  H48      1.0000 0.86400  0.74000  0.84530  Biso   1.000  H
  H49      1.0000 0.24470  0.76560  0.25300  Biso   1.000  H
  H50      1.0000 0.25530  0.26560  0.24700  Biso   1.000  H
  H51      1.0000 0.75530  0.23440  0.74700  Biso   1.000  H
  H52      1.0000 0.74470  0.73440  0.75300  Biso   1.000  H
  C57      1.0000 0.17040  0.89894  0.37575  Biso   1.000  C
  C58      1.0000 0.32960  0.39894  0.12425  Biso   1.000  C
  C59      1.0000 0.82960  0.10106  0.62425  Biso   1.000  C
  C60      1.0000 0.67040  0.60106  0.87575  Biso   1.000  C
  H53      1.0000 0.08370  0.93150  0.40480  Biso   1.000  H
  H54      1.0000 0.41630  0.43150  0.09520  Biso   1.000  H
  H55      1.0000 0.91630  0.06850  0.59520  Biso   1.000  H
  H56      1.0000 0.58370  0.56850  0.90480  Biso   1.000  H
  H57      1.0000 0.18120  0.93110  0.31930  Biso   1.000  H
  H58      1.0000 0.31880  0.43110  0.18070  Biso   1.000  H
  H59      1.0000 0.81880  0.06890  0.68070  Biso   1.000  H
  H60      1.0000 0.68120  0.56890  0.81930  Biso   1.000  H
  H61      1.0000 0.27750  0.90230  0.41400  Biso   1.000  H
  H62      1.0000 0.22250  0.40230  0.08600  Biso   1.000  H
  H63      1.0000 0.72250  0.09770  0.58600  Biso   1.000  H
  H64      1.0000 0.77750  0.59770  0.91400  Biso   1.000  H
  C61      1.0000 0.95930  0.79307  0.30291  Biso   1.000  C
  C62      1.0000 0.54070  0.29307  0.19709  Biso   1.000  C
  C63      1.0000 0.04070  0.20693  0.69709  Biso   1.000  C
  C64      1.0000 0.45930  0.70693  0.80291  Biso   1.000  C
  H65      1.0000 0.92650  0.72540  0.29120  Biso   1.000  H
  H66      1.0000 0.57350  0.22540  0.20880  Biso   1.000  H
  H67      1.0000 0.07350  0.27460  0.70880  Biso   1.000  H
  H68      1.0000 0.42650  0.77460  0.79120  Biso   1.000  H
  H69      1.0000 0.96850  0.82620  0.24680  Biso   1.000  H
  H70      1.0000 0.53150  0.32620  0.25320  Biso   1.000  H
  H71      1.0000 0.03150  0.17380  0.75320  Biso   1.000  H
  H72      1.0000 0.46850  0.67380  0.74680  Biso   1.000  H
  H73      1.0000 0.87460  0.82560  0.33340  Biso   1.000  H
  H74      1.0000 0.62540  0.32560  0.16660  Biso   1.000  H
  H75      1.0000 0.12540  0.17440  0.66660  Biso   1.000  H
  H76      1.0000 0.37460  0.67440  0.83340  Biso   1.000  H
  C65      1.0000 0.82080  0.82028  0.54357  Biso   1.000  C
  C66      1.0000 0.67920  0.32028  0.95643  Biso   1.000  C
  C67      1.0000 0.17920  0.17972  0.45643  Biso   1.000  C
  C68      1.0000 0.32080  0.67972  0.04357  Biso   1.000  C
  C69      1.0000 0.54140  0.80320  0.55171  Biso   1.000  C
  C70      1.0000 0.95860  0.30320  0.94829  Biso   1.000  C
  C71      1.0000 0.45860  0.19680  0.44829  Biso   1.000  C
  C72      1.0000 0.04140  0.69680  0.05171  Biso   1.000  C
