data_image0
_cell_length_a       10.7877
_cell_length_b       14.133
_cell_length_c       11.1638
_cell_angle_alpha    90
_cell_angle_beta     103.01
_cell_angle_gamma    90

_symmetry_space_group_name_H-M    "P 1"
_symmetry_int_tables_number       1

loop_
  _symmetry_equiv_pos_as_xyz
  'x, y, z'

loop_
  _atom_site_label
  _atom_site_occupancy
  _atom_site_fract_x
  _atom_site_fract_y
  _atom_site_fract_z
  _atom_site_thermal_displace_type
  _atom_site_B_iso_or_equiv
  _atom_site_type_symbol
  Cu1      1.0000 0.90993  0.13357  0.69052  Biso   1.000  Cu
  Cu2      1.0000 0.59007  0.63357  0.80948  Biso   1.000  Cu
  Cu3      1.0000 0.09007  0.86643  0.30948  Biso   1.000  Cu
  Cu4      1.0000 0.40993  0.36643  0.19052  Biso   1.000  Cu
  O1       1.0000 0.81137  0.06476  0.55839  Biso   1.000  O
  O2       1.0000 0.68863  0.56476  0.94161  Biso   1.000  O
  O3       1.0000 0.18863  0.93524  0.44161  Biso   1.000  O
  O4       1.0000 0.31137  0.43524  0.05839  Biso   1.000  O
  N1       1.0000 0.03560  0.16908  0.59610  Biso   1.000  N
  N2       1.0000 0.46440  0.66908  0.90390  Biso   1.000  N
  N3       1.0000 0.96440  0.83092  0.40390  Biso   1.000  N
  N4       1.0000 0.53560  0.33092  0.09610  Biso   1.000  N
  N5       1.0000 0.83040  0.05780  0.80560  Biso   1.000  N
  N6       1.0000 0.66960  0.55780  0.69440  Biso   1.000  N
  N7       1.0000 0.16960  0.94220  0.19440  Biso   1.000  N
  N8       1.0000 0.33040  0.44220  0.30560  Biso   1.000  N
  C1       1.0000 0.82200  0.06445  0.44520  Biso   1.000  C
  C2       1.0000 0.67800  0.56445  0.05480  Biso   1.000  C
  C3       1.0000 0.17800  0.93555  0.55480  Biso   1.000  C
  C4       1.0000 0.32200  0.43555  0.94520  Biso   1.000  C
  N9       1.0000 0.02950  0.19460  0.83480  Biso   1.000  N
  N10      1.0000 0.47050  0.69460  0.66520  Biso   1.000  N
  N11      1.0000 0.97050  0.80540  0.16520  Biso   1.000  N
  N12      1.0000 0.52950  0.30540  0.33480  Biso   1.000  N
  H1       1.0000 0.08240  0.14780  0.87180  Biso   1.000  H
  H2       1.0000 0.41760  0.64780  0.62820  Biso   1.000  H
  H3       1.0000 0.91760  0.85220  0.12820  Biso   1.000  H
  H4       1.0000 0.58240  0.35220  0.37180  Biso   1.000  H
  C5       1.0000 0.72020  0.01470  0.23140  Biso   1.000  C
  C6       1.0000 0.77980  0.51470  0.26860  Biso   1.000  C
  C7       1.0000 0.27980  0.98530  0.76860  Biso   1.000  C
  C8       1.0000 0.22020  0.48530  0.73140  Biso   1.000  C
  C9       1.0000 0.71880  0.01910  0.35760  Biso   1.000  C
  C10      1.0000 0.78120  0.51910  0.14240  Biso   1.000  C
  C11      1.0000 0.28120  0.98090  0.64240  Biso   1.000  C
  C12      1.0000 0.21880  0.48090  0.85760  Biso   1.000  C
  C13      1.0000 0.03290  0.14976  0.48210  Biso   1.000  C
  C14      1.0000 0.46710  0.64976  0.01790  Biso   1.000  C
  C15      1.0000 0.96710  0.85024  0.51790  Biso   1.000  C
  C16      1.0000 0.53290  0.35024  0.98210  Biso   1.000  C
  N13      1.0000 0.80270  0.91700  0.92120  Biso   1.000  N
  N14      1.0000 0.69730  0.41700  0.57880  Biso   1.000  N
  N15      1.0000 0.19730  0.08300  0.07880  Biso   1.000  N
  N16      1.0000 0.30270  0.58300  0.42120  Biso   1.000  N
  C17      1.0000 0.81530  0.98960  0.85420  Biso   1.000  C
  C18      1.0000 0.68470  0.48960  0.64580  Biso   1.000  C
  C19      1.0000 0.18470  0.01040  0.14580  Biso   1.000  C
  C20      1.0000 0.31530  0.51040  0.35420  Biso   1.000  C
  N17      1.0000 0.71460  0.76570  0.84030  Biso   1.000  N
  N18      1.0000 0.78540  0.26570  0.65970  Biso   1.000  N
  N19      1.0000 0.28540  0.23430  0.15970  Biso   1.000  N
  N20      1.0000 0.21460  0.73430  0.34030  Biso   1.000  N
  C21      1.0000 0.92400  0.10390  0.40200  Biso   1.000  C
  C22      1.0000 0.57600  0.60390  0.09800  Biso   1.000  C
  C23      1.0000 0.07600  0.89610  0.59800  Biso   1.000  C
  C24      1.0000 0.42400  0.39610  0.90200  Biso   1.000  C
  C25      1.0000 0.61440  0.98080  0.39680  Biso   1.000  C
  C26      1.0000 0.88560  0.48080  0.10320  Biso   1.000  C
  C27      1.0000 0.38560  0.01920  0.60320  Biso   1.000  C
  C28      1.0000 0.11440  0.51920  0.89680  Biso   1.000  C
  H5       1.0000 0.61260  0.98340  0.47960  Biso   1.000  H
  H6       1.0000 0.88740  0.48340  0.02040  Biso   1.000  H
  H7       1.0000 0.38740  0.01660  0.52040  Biso   1.000  H
  H8       1.0000 0.11260  0.51660  0.97960  Biso   1.000  H
  C29      1.0000 0.14630  0.21670  0.67440  Biso   1.000  C
  C30      1.0000 0.35370  0.71670  0.82560  Biso   1.000  C
  C31      1.0000 0.85370  0.78330  0.32560  Biso   1.000  C
  C32      1.0000 0.64630  0.28330  0.17440  Biso   1.000  C
  H9       1.0000 0.17700  0.26610  0.62810  Biso   1.000  H
  H10      1.0000 0.32300  0.76610  0.87190  Biso   1.000  H
  H11      1.0000 0.82300  0.73390  0.37190  Biso   1.000  H
  H12      1.0000 0.67700  0.23390  0.12810  Biso   1.000  H
  H13      1.0000 0.21450  0.17150  0.70150  Biso   1.000  H
  H14      1.0000 0.28550  0.67150  0.79850  Biso   1.000  H
  H15      1.0000 0.78550  0.82850  0.29850  Biso   1.000  H
  H16      1.0000 0.71450  0.32850  0.20150  Biso   1.000  H
  C33      1.0000 0.91970  0.09660  0.27370  Biso   1.000  C
  C34      1.0000 0.58030  0.59660  0.22630  Biso   1.000  C
  C35      1.0000 0.08030  0.90340  0.72630  Biso   1.000  C
  C36      1.0000 0.41970  0.40340  0.77370  Biso   1.000  C
  H17      1.0000 0.98650  0.12230  0.24440  Biso   1.000  H
  H18      1.0000 0.51350  0.62230  0.25560  Biso   1.000  H
  H19      1.0000 0.01350  0.87770  0.75560  Biso   1.000  H
  H20      1.0000 0.48650  0.37770  0.74440  Biso   1.000  H
  C37      1.0000 0.82420  0.05460  0.19270  Biso   1.000  C
  C38      1.0000 0.67580  0.55460  0.30730  Biso   1.000  C
  C39      1.0000 0.17580  0.94540  0.80730  Biso   1.000  C
  C40      1.0000 0.32420  0.44540  0.69270  Biso   1.000  C
  H21      1.0000 0.82700  0.05200  0.11010  Biso   1.000  H
  H22      1.0000 0.67300  0.55200  0.38990  Biso   1.000  H
  H23      1.0000 0.17300  0.94800  0.88990  Biso   1.000  H
  H24      1.0000 0.32700  0.44800  0.61010  Biso   1.000  H
  C41      1.0000 0.75220  0.83830  0.87220  Biso   1.000  C
  C42      1.0000 0.74780  0.33830  0.62780  Biso   1.000  C
  C43      1.0000 0.24780  0.16170  0.12780  Biso   1.000  C
  C44      1.0000 0.25220  0.66170  0.37220  Biso   1.000  C
  C45      1.0000 0.14550  0.17460  0.42830  Biso   1.000  C
  C46      1.0000 0.35450  0.67460  0.07170  Biso   1.000  C
  C47      1.0000 0.85450  0.82540  0.57170  Biso   1.000  C
  C48      1.0000 0.64550  0.32540  0.92830  Biso   1.000  C
  H25      1.0000 0.21020  0.20420  0.49020  Biso   1.000  H
  H26      1.0000 0.28980  0.70420  0.00980  Biso   1.000  H
  H27      1.0000 0.78980  0.79580  0.50980  Biso   1.000  H
  H28      1.0000 0.71020  0.29580  0.99020  Biso   1.000  H
  H29      1.0000 0.11880  0.21740  0.36060  Biso   1.000  H
  H30      1.0000 0.38120  0.71740  0.13940  Biso   1.000  H
  H31      1.0000 0.88120  0.78260  0.63940  Biso   1.000  H
  H32      1.0000 0.61880  0.28260  0.86060  Biso   1.000  H
  H33      1.0000 0.17910  0.11810  0.40000  Biso   1.000  H
  H34      1.0000 0.32090  0.61810  0.10000  Biso   1.000  H
  H35      1.0000 0.82090  0.88190  0.60000  Biso   1.000  H
  H36      1.0000 0.67910  0.38190  0.90000  Biso   1.000  H
  C49      1.0000 0.10730  0.25850  0.78290  Biso   1.000  C
  C50      1.0000 0.39270  0.75850  0.71710  Biso   1.000  C
  C51      1.0000 0.89270  0.74150  0.21710  Biso   1.000  C
  C52      1.0000 0.60730  0.24150  0.28290  Biso   1.000  C
  H37      1.0000 0.18280  0.27450  0.84510  Biso   1.000  H
  H38      1.0000 0.31720  0.77450  0.65490  Biso   1.000  H
  H39      1.0000 0.81720  0.72550  0.15490  Biso   1.000  H
  H40      1.0000 0.68280  0.22550  0.34510  Biso   1.000  H
  H41      1.0000 0.06040  0.31650  0.75830  Biso   1.000  H
  H42      1.0000 0.43960  0.81650  0.74170  Biso   1.000  H
  H43      1.0000 0.93960  0.68350  0.24170  Biso   1.000  H
  H44      1.0000 0.56040  0.18350  0.25830  Biso   1.000  H
  C53      1.0000 0.97660  0.23750  0.93150  Biso   1.000  C
  C54      1.0000 0.52340  0.73750  0.56850  Biso   1.000  C
  C55      1.0000 0.02340  0.76250  0.06850  Biso   1.000  C
  C56      1.0000 0.47660  0.26250  0.43150  Biso   1.000  C
  H45      1.0000 0.92690  0.19140  0.96300  Biso   1.000  H
  H46      1.0000 0.57310  0.69140  0.53700  Biso   1.000  H
  H47      1.0000 0.07310  0.80860  0.03700  Biso   1.000  H
  H48      1.0000 0.42690  0.30860  0.46300  Biso   1.000  H
  H49      1.0000 0.92350  0.29000  0.89820  Biso   1.000  H
  H50      1.0000 0.57650  0.79000  0.60180  Biso   1.000  H
  H51      1.0000 0.07650  0.71000  0.10180  Biso   1.000  H
  H52      1.0000 0.42350  0.21000  0.39820  Biso   1.000  H
  H53      1.0000 0.04460  0.25920  0.99660  Biso   1.000  H
  H54      1.0000 0.45540  0.75920  0.50340  Biso   1.000  H
  H55      1.0000 0.95540  0.74080  0.00340  Biso   1.000  H
  H56      1.0000 0.54460  0.24080  0.49660  Biso   1.000  H
  C57      1.0000 0.51750  0.93480  0.19130  Biso   1.000  C
  C58      1.0000 0.98250  0.43480  0.30870  Biso   1.000  C
  C59      1.0000 0.48250  0.06520  0.80870  Biso   1.000  C
  C60      1.0000 0.01750  0.56520  0.69130  Biso   1.000  C
  H57      1.0000 0.45040  0.90640  0.13600  Biso   1.000  H
  H58      1.0000 0.04960  0.40640  0.36400  Biso   1.000  H
  H59      1.0000 0.54960  0.09360  0.86400  Biso   1.000  H
  H60      1.0000 0.95040  0.59360  0.63600  Biso   1.000  H
  C61      1.0000 0.51510  0.93970  0.31530  Biso   1.000  C
  C62      1.0000 0.98490  0.43970  0.18470  Biso   1.000  C
  C63      1.0000 0.48490  0.06030  0.68470  Biso   1.000  C
  C64      1.0000 0.01510  0.56030  0.81530  Biso   1.000  C
  H61      1.0000 0.44640  0.91510  0.34260  Biso   1.000  H
  H62      1.0000 0.05360  0.41510  0.15740  Biso   1.000  H
  H63      1.0000 0.55360  0.08490  0.65740  Biso   1.000  H
  H64      1.0000 0.94640  0.58490  0.84260  Biso   1.000  H
  C65      1.0000 0.61650  0.97080  0.15070  Biso   1.000  C
  C66      1.0000 0.88350  0.47080  0.34930  Biso   1.000  C
  C67      1.0000 0.38350  0.02920  0.84930  Biso   1.000  C
  C68      1.0000 0.11650  0.52920  0.65070  Biso   1.000  C
  H65      1.0000 0.61640  0.96670  0.06750  Biso   1.000  H
  H66      1.0000 0.88360  0.46670  0.43250  Biso   1.000  H
  H67      1.0000 0.38360  0.03330  0.93250  Biso   1.000  H
  H68      1.0000 0.11640  0.53330  0.56750  Biso   1.000  H
