data_image0
_cell_length_a       10.2698
_cell_length_b       12.1204
_cell_length_c       14.0994
_cell_angle_alpha    90
_cell_angle_beta     92.772
_cell_angle_gamma    90

_symmetry_space_group_name_H-M    "P 1"
_symmetry_int_tables_number       1

loop_
  _symmetry_equiv_pos_as_xyz
  'x, y, z'

loop_
  _atom_site_label
  _atom_site_occupancy
  _atom_site_fract_x
  _atom_site_fract_y
  _atom_site_fract_z
  _atom_site_thermal_displace_type
  _atom_site_B_iso_or_equiv
  _atom_site_type_symbol
  Cu1      1.0000 0.56920  0.05972  0.61296  Biso   1.000  Cu
  Cu2      1.0000 0.43080  0.55972  0.88704  Biso   1.000  Cu
  Cu3      1.0000 0.43080  0.94028  0.38704  Biso   1.000  Cu
  Cu4      1.0000 0.56920  0.44028  0.11296  Biso   1.000  Cu
  O1       1.0000 0.41318  0.14290  0.60218  Biso   1.000  O
  O2       1.0000 0.58682  0.64290  0.89782  Biso   1.000  O
  O3       1.0000 0.58682  0.85710  0.39782  Biso   1.000  O
  O4       1.0000 0.41318  0.35710  0.10218  Biso   1.000  O
  N1       1.0000 0.50050  0.96375  0.70974  Biso   1.000  N
  N2       1.0000 0.49950  0.46375  0.79026  Biso   1.000  N
  N3       1.0000 0.49950  0.03625  0.29026  Biso   1.000  N
  N4       1.0000 0.50050  0.53625  0.20974  Biso   1.000  N
  N5       1.0000 0.70870  0.94330  0.59990  Biso   1.000  N
  N6       1.0000 0.29130  0.44330  0.90010  Biso   1.000  N
  N7       1.0000 0.29130  0.05670  0.40010  Biso   1.000  N
  N8       1.0000 0.70870  0.55670  0.09990  Biso   1.000  N
  C1       1.0000 0.30050  0.06170  0.73081  Biso   1.000  C
  C2       1.0000 0.69950  0.56170  0.76919  Biso   1.000  C
  C3       1.0000 0.69950  0.93830  0.26919  Biso   1.000  C
  C4       1.0000 0.30050  0.43830  0.23081  Biso   1.000  C
  N9       1.0000 0.67610  0.16150  0.74740  Biso   1.000  N
  N10      1.0000 0.32390  0.66150  0.75260  Biso   1.000  N
  N11      1.0000 0.32390  0.83850  0.25260  Biso   1.000  N
  N12      1.0000 0.67610  0.33850  0.24740  Biso   1.000  N
  C5       1.0000 0.31260  0.13520  0.65421  Biso   1.000  C
  C6       1.0000 0.68740  0.63520  0.84579  Biso   1.000  C
  C7       1.0000 0.68740  0.86480  0.34579  Biso   1.000  C
  C8       1.0000 0.31260  0.36480  0.15421  Biso   1.000  C
  C9       1.0000 0.21730  0.28920  0.55870  Biso   1.000  C
  C10      1.0000 0.78270  0.78920  0.94130  Biso   1.000  C
  C11      1.0000 0.78270  0.71080  0.44130  Biso   1.000  C
  C12      1.0000 0.21730  0.21080  0.05870  Biso   1.000  C
  H1       1.0000 0.29530  0.29610  0.52840  Biso   1.000  H
  H2       1.0000 0.70470  0.79610  0.97160  Biso   1.000  H
  H3       1.0000 0.70470  0.70390  0.47160  Biso   1.000  H
  H4       1.0000 0.29530  0.20390  0.02840  Biso   1.000  H
  C13      1.0000 0.18100  0.06210  0.77840  Biso   1.000  C
  C14      1.0000 0.81900  0.56210  0.72160  Biso   1.000  C
  C15      1.0000 0.81900  0.93790  0.22160  Biso   1.000  C
  C16      1.0000 0.18100  0.43790  0.27840  Biso   1.000  C
  H5       1.0000 0.17250  0.01380  0.82900  Biso   1.000  H
  H6       1.0000 0.82750  0.51380  0.67100  Biso   1.000  H
  H7       1.0000 0.82750  0.98620  0.17100  Biso   1.000  H
  H8       1.0000 0.17250  0.48620  0.32900  Biso   1.000  H
  C17      1.0000 0.59710  0.87890  0.73700  Biso   1.000  C
  C18      1.0000 0.40290  0.37890  0.76300  Biso   1.000  C
  C19      1.0000 0.40290  0.12110  0.26300  Biso   1.000  C
  C20      1.0000 0.59710  0.62110  0.23700  Biso   1.000  C
  H9       1.0000 0.55470  0.81620  0.76520  Biso   1.000  H
  H10      1.0000 0.44530  0.31620  0.73480  Biso   1.000  H
  H11      1.0000 0.44530  0.18380  0.23480  Biso   1.000  H
  H12      1.0000 0.55470  0.68380  0.26520  Biso   1.000  H
  H13      1.0000 0.66110  0.90840  0.78310  Biso   1.000  H
  H14      1.0000 0.33890  0.40840  0.71690  Biso   1.000  H
  H15      1.0000 0.33890  0.09160  0.21690  Biso   1.000  H
  H16      1.0000 0.66110  0.59160  0.28310  Biso   1.000  H
  C21      1.0000 0.40220  0.98290  0.76105  Biso   1.000  C
  C22      1.0000 0.59780  0.48290  0.73895  Biso   1.000  C
  C23      1.0000 0.59780  0.01710  0.23895  Biso   1.000  C
  C24      1.0000 0.40220  0.51710  0.26105  Biso   1.000  C
  C25      1.0000 0.08870  0.20500  0.67870  Biso   1.000  C
  C26      1.0000 0.91130  0.70500  0.82130  Biso   1.000  C
  C27      1.0000 0.91130  0.79500  0.32130  Biso   1.000  C
  C28      1.0000 0.08870  0.29500  0.17870  Biso   1.000  C
  C29      1.0000 0.20600  0.20980  0.63057  Biso   1.000  C
  C30      1.0000 0.79400  0.70980  0.86943  Biso   1.000  C
  C31      1.0000 0.79400  0.79020  0.36943  Biso   1.000  C
  C32      1.0000 0.20600  0.29020  0.13057  Biso   1.000  C
  C33      1.0000 0.08010  0.12830  0.75410  Biso   1.000  C
  C34      1.0000 0.91990  0.62830  0.74590  Biso   1.000  C
  C35      1.0000 0.91990  0.87170  0.24590  Biso   1.000  C
  C36      1.0000 0.08010  0.37170  0.25410  Biso   1.000  C
  H17      1.0000 0.00400  0.12390  0.78700  Biso   1.000  H
  H18      1.0000 0.99600  0.62390  0.71300  Biso   1.000  H
  H19      1.0000 0.99600  0.87610  0.21300  Biso   1.000  H
  H20      1.0000 0.00400  0.37610  0.28700  Biso   1.000  H
  C37      1.0000 0.84180  0.97880  0.63050  Biso   1.000  C
  C38      1.0000 0.15820  0.47880  0.86950  Biso   1.000  C
  C39      1.0000 0.15820  0.02120  0.36950  Biso   1.000  C
  C40      1.0000 0.84180  0.52120  0.13050  Biso   1.000  C
  H21      1.0000 0.84750  0.98280  0.69920  Biso   1.000  H
  H22      1.0000 0.15250  0.48280  0.80080  Biso   1.000  H
  H23      1.0000 0.15250  0.01720  0.30080  Biso   1.000  H
  H24      1.0000 0.84750  0.51720  0.19920  Biso   1.000  H
  H25      1.0000 0.85580  0.05260  0.60640  Biso   1.000  H
  H26      1.0000 0.14420  0.55260  0.89360  Biso   1.000  H
  H27      1.0000 0.14420  0.94740  0.39360  Biso   1.000  H
  H28      1.0000 0.85580  0.44740  0.10640  Biso   1.000  H
  C41      1.0000 0.66210  0.84410  0.64870  Biso   1.000  C
  C42      1.0000 0.33790  0.34410  0.85130  Biso   1.000  C
  C43      1.0000 0.33790  0.15590  0.35130  Biso   1.000  C
  C44      1.0000 0.66210  0.65590  0.14870  Biso   1.000  C
  H29      1.0000 0.73500  0.79570  0.66520  Biso   1.000  H
  H30      1.0000 0.26500  0.29570  0.83480  Biso   1.000  H
  H31      1.0000 0.26500  0.20430  0.33480  Biso   1.000  H
  H32      1.0000 0.73500  0.70430  0.16520  Biso   1.000  H
  H33      1.0000 0.60080  0.80410  0.60710  Biso   1.000  H
  H34      1.0000 0.39920  0.30410  0.89290  Biso   1.000  H
  H35      1.0000 0.39920  0.19590  0.39290  Biso   1.000  H
  H36      1.0000 0.60080  0.69590  0.10710  Biso   1.000  H
  C45      1.0000 0.39170  0.92540  0.85510  Biso   1.000  C
  C46      1.0000 0.60830  0.42540  0.64490  Biso   1.000  C
  C47      1.0000 0.60830  0.07460  0.14490  Biso   1.000  C
  C48      1.0000 0.39170  0.57460  0.35510  Biso   1.000  C
  H37      1.0000 0.46440  0.87640  0.86560  Biso   1.000  H
  H38      1.0000 0.53560  0.37640  0.63440  Biso   1.000  H
  H39      1.0000 0.53560  0.12360  0.13440  Biso   1.000  H
  H40      1.0000 0.46440  0.62360  0.36560  Biso   1.000  H
  H41      1.0000 0.31200  0.88400  0.85460  Biso   1.000  H
  H42      1.0000 0.68800  0.38400  0.64540  Biso   1.000  H
  H43      1.0000 0.68800  0.11600  0.14540  Biso   1.000  H
  H44      1.0000 0.31200  0.61600  0.35460  Biso   1.000  H
  H45      1.0000 0.39200  0.97930  0.90500  Biso   1.000  H
  H46      1.0000 0.60800  0.47930  0.59500  Biso   1.000  H
  H47      1.0000 0.60800  0.02070  0.09500  Biso   1.000  H
  H48      1.0000 0.39200  0.52070  0.40500  Biso   1.000  H
  C49      1.0000 0.11490  0.35640  0.53290  Biso   1.000  C
  C50      1.0000 0.88510  0.85640  0.96710  Biso   1.000  C
  C51      1.0000 0.88510  0.64360  0.46710  Biso   1.000  C
  C52      1.0000 0.11490  0.14360  0.03290  Biso   1.000  C
  H49      1.0000 0.12380  0.40910  0.48570  Biso   1.000  H
  H50      1.0000 0.87620  0.90910  0.01430  Biso   1.000  H
  H51      1.0000 0.87620  0.59090  0.51430  Biso   1.000  H
  H52      1.0000 0.12380  0.09090  0.98570  Biso   1.000  H
  C53      1.0000 0.98470  0.27460  0.64900  Biso   1.000  C
  C54      1.0000 0.01530  0.77460  0.85100  Biso   1.000  C
  C55      1.0000 0.01530  0.72540  0.35100  Biso   1.000  C
  C56      1.0000 0.98470  0.22540  0.14900  Biso   1.000  C
  H53      1.0000 0.90650  0.27100  0.67950  Biso   1.000  H
  H54      1.0000 0.09350  0.77100  0.82050  Biso   1.000  H
  H55      1.0000 0.09350  0.72900  0.32050  Biso   1.000  H
  H56      1.0000 0.90650  0.22900  0.17950  Biso   1.000  H
  C57      1.0000 0.99690  0.34640  0.57710  Biso   1.000  C
  C58      1.0000 0.00310  0.84640  0.92290  Biso   1.000  C
  C59      1.0000 0.00310  0.65360  0.42290  Biso   1.000  C
  C60      1.0000 0.99690  0.15360  0.07710  Biso   1.000  C
  H57      1.0000 0.92620  0.38970  0.55680  Biso   1.000  H
  H58      1.0000 0.07380  0.88970  0.94320  Biso   1.000  H
  H59      1.0000 0.07380  0.61030  0.44320  Biso   1.000  H
  H60      1.0000 0.92620  0.11030  0.05680  Biso   1.000  H
  C61      1.0000 0.95020  0.90520  0.59860  Biso   1.000  C
  C62      1.0000 0.04980  0.40520  0.90140  Biso   1.000  C
  C63      1.0000 0.04980  0.09480  0.40140  Biso   1.000  C
  C64      1.0000 0.95020  0.59480  0.09860  Biso   1.000  C
  H61      1.0000 0.03270  0.93390  0.62220  Biso   1.000  H
  H62      1.0000 0.96730  0.43390  0.87780  Biso   1.000  H
  H63      1.0000 0.96730  0.06610  0.37780  Biso   1.000  H
  H64      1.0000 0.03270  0.56610  0.12220  Biso   1.000  H
  H65      1.0000 0.94820  0.90290  0.53050  Biso   1.000  H
  H66      1.0000 0.05180  0.40290  0.96950  Biso   1.000  H
  H67      1.0000 0.05180  0.09710  0.46950  Biso   1.000  H
  H68      1.0000 0.94820  0.59710  0.03050  Biso   1.000  H
  H69      1.0000 0.93870  0.83200  0.62290  Biso   1.000  H
  H70      1.0000 0.06130  0.33200  0.87710  Biso   1.000  H
  H71      1.0000 0.06130  0.16800  0.37710  Biso   1.000  H
  H72      1.0000 0.93870  0.66800  0.12290  Biso   1.000  H
  C65      1.0000 0.69340  0.18950  0.82200  Biso   1.000  C
  C66      1.0000 0.30660  0.68950  0.67800  Biso   1.000  C
  C67      1.0000 0.30660  0.81050  0.17800  Biso   1.000  C
  C68      1.0000 0.69340  0.31050  0.32200  Biso   1.000  C
  C69      1.0000 0.67700  0.28730  0.96020  Biso   1.000  C
  C70      1.0000 0.32300  0.78730  0.53980  Biso   1.000  C
  C71      1.0000 0.32300  0.71270  0.03980  Biso   1.000  C
  C72      1.0000 0.67700  0.21270  0.46020  Biso   1.000  C
  N13      1.0000 0.72530  0.21170  0.90850  Biso   1.000  N
  N14      1.0000 0.27470  0.71170  0.59150  Biso   1.000  N
  N15      1.0000 0.27470  0.78830  0.09150  Biso   1.000  N
  N16      1.0000 0.72530  0.28830  0.40850  Biso   1.000  N
  N17      1.0000 0.64390  0.34860  0.01277  Biso   1.000  N
  N18      1.0000 0.35610  0.84860  0.48723  Biso   1.000  N
  N19      1.0000 0.35610  0.65140  0.98723  Biso   1.000  N
  N20      1.0000 0.64390  0.15140  0.51277  Biso   1.000  N
  H73      1.0000 0.71600  0.93300  0.53900  Biso   1.000  H
  H74      1.0000 0.28400  0.43300  0.96100  Biso   1.000  H
  H75      1.0000 0.28400  0.06700  0.46100  Biso   1.000  H
  H76      1.0000 0.71600  0.56700  0.03900  Biso   1.000  H
