data_image0
_cell_length_a       13.831
_cell_length_b       13.831
_cell_length_c       27.458
_cell_angle_alpha    90
_cell_angle_beta     90
_cell_angle_gamma    90

_symmetry_space_group_name_H-M    "P 1"
_symmetry_int_tables_number       1

loop_
  _symmetry_equiv_pos_as_xyz
  'x, y, z'

loop_
  _atom_site_label
  _atom_site_occupancy
  _atom_site_fract_x
  _atom_site_fract_y
  _atom_site_fract_z
  _atom_site_thermal_displace_type
  _atom_site_B_iso_or_equiv
  _atom_site_type_symbol
  Cu1      1.0000 0.16097  0.08903  0.12500  Biso   1.000  Cu
  Cu2      1.0000 0.33903  0.91097  0.62500  Biso   1.000  Cu
  Cu3      1.0000 0.16097  0.91097  0.37500  Biso   1.000  Cu
  Cu4      1.0000 0.33903  0.08903  0.87500  Biso   1.000  Cu
  Cu5      1.0000 0.66097  0.58903  0.62500  Biso   1.000  Cu
  Cu6      1.0000 0.83903  0.41097  0.12500  Biso   1.000  Cu
  Cu7      1.0000 0.66097  0.41097  0.87500  Biso   1.000  Cu
  Cu8      1.0000 0.83903  0.58903  0.37500  Biso   1.000  Cu
  Cu9      1.0000 0.83903  0.91097  0.87500  Biso   1.000  Cu
  Cu10     1.0000 0.66097  0.08903  0.37500  Biso   1.000  Cu
  Cu11     1.0000 0.33903  0.58903  0.12500  Biso   1.000  Cu
  Cu12     1.0000 0.16097  0.41097  0.62500  Biso   1.000  Cu
  Cu13     1.0000 0.66097  0.91097  0.12500  Biso   1.000  Cu
  Cu14     1.0000 0.83903  0.08903  0.62500  Biso   1.000  Cu
  Cu15     1.0000 0.16097  0.58903  0.87500  Biso   1.000  Cu
  Cu16     1.0000 0.33903  0.41097  0.37500  Biso   1.000  Cu
  O1       1.0000 0.30240  0.08847  0.11696  Biso   1.000  O
  O2       1.0000 0.19760  0.91153  0.61696  Biso   1.000  O
  O3       1.0000 0.16153  0.05240  0.36696  Biso   1.000  O
  O4       1.0000 0.33847  0.94760  0.86696  Biso   1.000  O
  O5       1.0000 0.19760  0.08847  0.88304  Biso   1.000  O
  O6       1.0000 0.30240  0.91153  0.38304  Biso   1.000  O
  O7       1.0000 0.33847  0.05240  0.63304  Biso   1.000  O
  O8       1.0000 0.16153  0.94760  0.13304  Biso   1.000  O
  O9       1.0000 0.80240  0.58847  0.61696  Biso   1.000  O
  O10      1.0000 0.69760  0.41153  0.11696  Biso   1.000  O
  O11      1.0000 0.66153  0.55240  0.86696  Biso   1.000  O
  O12      1.0000 0.83847  0.44760  0.36696  Biso   1.000  O
  O13      1.0000 0.69760  0.58847  0.38304  Biso   1.000  O
  O14      1.0000 0.80240  0.41153  0.88304  Biso   1.000  O
  O15      1.0000 0.83847  0.55240  0.13304  Biso   1.000  O
  O16      1.0000 0.66153  0.44760  0.63304  Biso   1.000  O
  O17      1.0000 0.69760  0.91153  0.88304  Biso   1.000  O
  O18      1.0000 0.80240  0.08847  0.38304  Biso   1.000  O
  O19      1.0000 0.33847  0.44760  0.13304  Biso   1.000  O
  O20      1.0000 0.16153  0.55240  0.63304  Biso   1.000  O
  O21      1.0000 0.80240  0.91153  0.11696  Biso   1.000  O
  O22      1.0000 0.69760  0.08847  0.61696  Biso   1.000  O
  O23      1.0000 0.16153  0.44760  0.86696  Biso   1.000  O
  O24      1.0000 0.33847  0.55240  0.36696  Biso   1.000  O
  O25      1.0000 0.19760  0.41153  0.38304  Biso   1.000  O
  O26      1.0000 0.30240  0.58847  0.88304  Biso   1.000  O
  O27      1.0000 0.83847  0.94760  0.63304  Biso   1.000  O
  O28      1.0000 0.66153  0.05240  0.13304  Biso   1.000  O
  O29      1.0000 0.30240  0.41153  0.61696  Biso   1.000  O
  O30      1.0000 0.19760  0.58847  0.11696  Biso   1.000  O
  O31      1.0000 0.66153  0.94760  0.36696  Biso   1.000  O
  O32      1.0000 0.83847  0.05240  0.86696  Biso   1.000  O
  C1       1.0000 0.33820  0.92800  0.09852  Biso   1.000  C
  C2       1.0000 0.16180  0.07200  0.59852  Biso   1.000  C
  C3       1.0000 0.32200  0.08820  0.34852  Biso   1.000  C
  C4       1.0000 0.17800  0.91180  0.84852  Biso   1.000  C
  C5       1.0000 0.16180  0.92800  0.90148  Biso   1.000  C
  C6       1.0000 0.33820  0.07200  0.40148  Biso   1.000  C
  C7       1.0000 0.17800  0.08820  0.65148  Biso   1.000  C
  C8       1.0000 0.32200  0.91180  0.15148  Biso   1.000  C
  C9       1.0000 0.83820  0.42800  0.59852  Biso   1.000  C
  C10      1.0000 0.66180  0.57200  0.09852  Biso   1.000  C
  C11      1.0000 0.82200  0.58820  0.84852  Biso   1.000  C
  C12      1.0000 0.67800  0.41180  0.34852  Biso   1.000  C
  C13      1.0000 0.66180  0.42800  0.40148  Biso   1.000  C
  C14      1.0000 0.83820  0.57200  0.90148  Biso   1.000  C
  C15      1.0000 0.67800  0.58820  0.15148  Biso   1.000  C
  C16      1.0000 0.82200  0.41180  0.65148  Biso   1.000  C
  C17      1.0000 0.66180  0.07200  0.90148  Biso   1.000  C
  C18      1.0000 0.83820  0.92800  0.40148  Biso   1.000  C
  C19      1.0000 0.17800  0.41180  0.15148  Biso   1.000  C
  C20      1.0000 0.32200  0.58820  0.65148  Biso   1.000  C
  C21      1.0000 0.83820  0.07200  0.09852  Biso   1.000  C
  C22      1.0000 0.66180  0.92800  0.59852  Biso   1.000  C
  C23      1.0000 0.32200  0.41180  0.84852  Biso   1.000  C
  C24      1.0000 0.17800  0.58820  0.34852  Biso   1.000  C
  C25      1.0000 0.16180  0.57200  0.40148  Biso   1.000  C
  C26      1.0000 0.33820  0.42800  0.90148  Biso   1.000  C
  C27      1.0000 0.67800  0.91180  0.65148  Biso   1.000  C
  C28      1.0000 0.82200  0.08820  0.15148  Biso   1.000  C
  C29      1.0000 0.33820  0.57200  0.59852  Biso   1.000  C
  C30      1.0000 0.16180  0.42800  0.09852  Biso   1.000  C
  C31      1.0000 0.82200  0.91180  0.34852  Biso   1.000  C
  C32      1.0000 0.67800  0.08820  0.84852  Biso   1.000  C
  N1       1.0000 0.33210  0.02110  0.08409  Biso   1.000  N
  N2       1.0000 0.16790  0.97890  0.58409  Biso   1.000  N
  N3       1.0000 0.22890  0.08210  0.33409  Biso   1.000  N
  N4       1.0000 0.27110  0.91790  0.83409  Biso   1.000  N
  N5       1.0000 0.16790  0.02110  0.91591  Biso   1.000  N
  N6       1.0000 0.33210  0.97890  0.41591  Biso   1.000  N
  N7       1.0000 0.27110  0.08210  0.66591  Biso   1.000  N
  N8       1.0000 0.22890  0.91790  0.16591  Biso   1.000  N
  N9       1.0000 0.83210  0.52110  0.58409  Biso   1.000  N
  N10      1.0000 0.66790  0.47890  0.08409  Biso   1.000  N
  N11      1.0000 0.72890  0.58210  0.83409  Biso   1.000  N
  N12      1.0000 0.77110  0.41790  0.33409  Biso   1.000  N
  N13      1.0000 0.66790  0.52110  0.41591  Biso   1.000  N
  N14      1.0000 0.83210  0.47890  0.91591  Biso   1.000  N
  N15      1.0000 0.77110  0.58210  0.16591  Biso   1.000  N
  N16      1.0000 0.72890  0.41790  0.66591  Biso   1.000  N
  N17      1.0000 0.66790  0.97890  0.91591  Biso   1.000  N
  N18      1.0000 0.83210  0.02110  0.41591  Biso   1.000  N
  N19      1.0000 0.27110  0.41790  0.16591  Biso   1.000  N
  N20      1.0000 0.22890  0.58210  0.66591  Biso   1.000  N
  N21      1.0000 0.83210  0.97890  0.08409  Biso   1.000  N
  N22      1.0000 0.66790  0.02110  0.58409  Biso   1.000  N
  N23      1.0000 0.22890  0.41790  0.83409  Biso   1.000  N
  N24      1.0000 0.27110  0.58210  0.33409  Biso   1.000  N
  N25      1.0000 0.16790  0.47890  0.41591  Biso   1.000  N
  N26      1.0000 0.33210  0.52110  0.91591  Biso   1.000  N
  N27      1.0000 0.77110  0.91790  0.66591  Biso   1.000  N
  N28      1.0000 0.72890  0.08210  0.16591  Biso   1.000  N
  N29      1.0000 0.33210  0.47890  0.58409  Biso   1.000  N
  N30      1.0000 0.16790  0.52110  0.08409  Biso   1.000  N
  N31      1.0000 0.72890  0.91790  0.33409  Biso   1.000  N
  N32      1.0000 0.77110  0.08210  0.83409  Biso   1.000  N
  C33      1.0000 0.35810  0.85660  0.06403  Biso   1.000  C
  C34      1.0000 0.14190  0.14340  0.56403  Biso   1.000  C
  C35      1.0000 0.39340  0.10810  0.31403  Biso   1.000  C
  C36      1.0000 0.10660  0.89190  0.81403  Biso   1.000  C
  C37      1.0000 0.14190  0.85660  0.93597  Biso   1.000  C
  C38      1.0000 0.35810  0.14340  0.43597  Biso   1.000  C
  C39      1.0000 0.10660  0.10810  0.68597  Biso   1.000  C
  C40      1.0000 0.39340  0.89190  0.18597  Biso   1.000  C
  C41      1.0000 0.85810  0.35660  0.56403  Biso   1.000  C
  C42      1.0000 0.64190  0.64340  0.06403  Biso   1.000  C
  C43      1.0000 0.89340  0.60810  0.81403  Biso   1.000  C
  C44      1.0000 0.60660  0.39190  0.31403  Biso   1.000  C
  C45      1.0000 0.64190  0.35660  0.43597  Biso   1.000  C
  C46      1.0000 0.85810  0.64340  0.93597  Biso   1.000  C
  C47      1.0000 0.60660  0.60810  0.18597  Biso   1.000  C
  C48      1.0000 0.89340  0.39190  0.68597  Biso   1.000  C
  C49      1.0000 0.64190  0.14340  0.93597  Biso   1.000  C
  C50      1.0000 0.85810  0.85660  0.43597  Biso   1.000  C
  C51      1.0000 0.10660  0.39190  0.18597  Biso   1.000  C
  C52      1.0000 0.39340  0.60810  0.68597  Biso   1.000  C
  C53      1.0000 0.85810  0.14340  0.06403  Biso   1.000  C
  C54      1.0000 0.64190  0.85660  0.56403  Biso   1.000  C
  C55      1.0000 0.39340  0.39190  0.81403  Biso   1.000  C
  C56      1.0000 0.10660  0.60810  0.31403  Biso   1.000  C
  C57      1.0000 0.14190  0.64340  0.43597  Biso   1.000  C
  C58      1.0000 0.35810  0.35660  0.93597  Biso   1.000  C
  C59      1.0000 0.60660  0.89190  0.68597  Biso   1.000  C
  C60      1.0000 0.89340  0.10810  0.18597  Biso   1.000  C
  C61      1.0000 0.35810  0.64340  0.56403  Biso   1.000  C
  C62      1.0000 0.14190  0.35660  0.06403  Biso   1.000  C
  C63      1.0000 0.89340  0.89190  0.31403  Biso   1.000  C
  C64      1.0000 0.60660  0.10810  0.81403  Biso   1.000  C
  C65      1.0000 0.37950  0.88490  0.01682  Biso   1.000  C
  C66      1.0000 0.12050  0.11510  0.51682  Biso   1.000  C
  C67      1.0000 0.36510  0.12950  0.26682  Biso   1.000  C
  C68      1.0000 0.13490  0.87050  0.76682  Biso   1.000  C
  C69      1.0000 0.12050  0.88490  0.98318  Biso   1.000  C
  C70      1.0000 0.37950  0.11510  0.48318  Biso   1.000  C
  C71      1.0000 0.13490  0.12950  0.73318  Biso   1.000  C
  C72      1.0000 0.36510  0.87050  0.23318  Biso   1.000  C
  C73      1.0000 0.87950  0.38490  0.51682  Biso   1.000  C
  C74      1.0000 0.62050  0.61510  0.01682  Biso   1.000  C
  C75      1.0000 0.86510  0.62950  0.76682  Biso   1.000  C
  C76      1.0000 0.63490  0.37050  0.26682  Biso   1.000  C
  C77      1.0000 0.62050  0.38490  0.48318  Biso   1.000  C
  C78      1.0000 0.87950  0.61510  0.98318  Biso   1.000  C
  C79      1.0000 0.63490  0.62950  0.23318  Biso   1.000  C
  C80      1.0000 0.86510  0.37050  0.73318  Biso   1.000  C
  C81      1.0000 0.62050  0.11510  0.98318  Biso   1.000  C
  C82      1.0000 0.87950  0.88490  0.48318  Biso   1.000  C
  C83      1.0000 0.13490  0.37050  0.23318  Biso   1.000  C
  C84      1.0000 0.36510  0.62950  0.73318  Biso   1.000  C
  C85      1.0000 0.87950  0.11510  0.01682  Biso   1.000  C
  C86      1.0000 0.62050  0.88490  0.51682  Biso   1.000  C
  C87      1.0000 0.36510  0.37050  0.76682  Biso   1.000  C
  C88      1.0000 0.13490  0.62950  0.26682  Biso   1.000  C
  C89      1.0000 0.12050  0.61510  0.48318  Biso   1.000  C
  C90      1.0000 0.37950  0.38490  0.98318  Biso   1.000  C
  C91      1.0000 0.63490  0.87050  0.73318  Biso   1.000  C
  C92      1.0000 0.86510  0.12950  0.23318  Biso   1.000  C
  C93      1.0000 0.37950  0.61510  0.51682  Biso   1.000  C
  C94      1.0000 0.12050  0.38490  0.01682  Biso   1.000  C
  C95      1.0000 0.86510  0.87050  0.26682  Biso   1.000  C
  C96      1.0000 0.63490  0.12950  0.76682  Biso   1.000  C
  H1       1.0000 0.39400  0.83860  0.99330  Biso   1.000  H
  H2       1.0000 0.10600  0.16140  0.49330  Biso   1.000  H
  H3       1.0000 0.41140  0.14400  0.24330  Biso   1.000  H
  H4       1.0000 0.08860  0.85600  0.74330  Biso   1.000  H
  H5       1.0000 0.10600  0.83860  0.00670  Biso   1.000  H
  H6       1.0000 0.39400  0.16140  0.50670  Biso   1.000  H
  H7       1.0000 0.08860  0.14400  0.75670  Biso   1.000  H
  H8       1.0000 0.41140  0.85600  0.25670  Biso   1.000  H
  H9       1.0000 0.89400  0.33860  0.49330  Biso   1.000  H
  H10      1.0000 0.60600  0.66140  0.99330  Biso   1.000  H
  H11      1.0000 0.91140  0.64400  0.74330  Biso   1.000  H
  H12      1.0000 0.58860  0.35600  0.24330  Biso   1.000  H
  H13      1.0000 0.60600  0.33860  0.50670  Biso   1.000  H
  H14      1.0000 0.89400  0.66140  0.00670  Biso   1.000  H
  H15      1.0000 0.58860  0.64400  0.25670  Biso   1.000  H
  H16      1.0000 0.91140  0.35600  0.75670  Biso   1.000  H
  H17      1.0000 0.60600  0.16140  0.00670  Biso   1.000  H
  H18      1.0000 0.89400  0.83860  0.50670  Biso   1.000  H
  H19      1.0000 0.08860  0.35600  0.25670  Biso   1.000  H
  H20      1.0000 0.41140  0.64400  0.75670  Biso   1.000  H
  H21      1.0000 0.89400  0.16140  0.99330  Biso   1.000  H
  H22      1.0000 0.60600  0.83860  0.49330  Biso   1.000  H
  H23      1.0000 0.41140  0.35600  0.74330  Biso   1.000  H
  H24      1.0000 0.08860  0.64400  0.24330  Biso   1.000  H
  H25      1.0000 0.10600  0.66140  0.50670  Biso   1.000  H
  H26      1.0000 0.39400  0.33860  0.00670  Biso   1.000  H
  H27      1.0000 0.58860  0.85600  0.75670  Biso   1.000  H
  H28      1.0000 0.91140  0.14400  0.25670  Biso   1.000  H
  H29      1.0000 0.39400  0.66140  0.49330  Biso   1.000  H
  H30      1.0000 0.10600  0.33860  0.99330  Biso   1.000  H
  H31      1.0000 0.91140  0.85600  0.24330  Biso   1.000  H
  H32      1.0000 0.58860  0.14400  0.74330  Biso   1.000  H
  C97      1.0000 0.35310  0.04930  0.03843  Biso   1.000  C
  C98      1.0000 0.14690  0.95070  0.53843  Biso   1.000  C
  C99      1.0000 0.20070  0.10310  0.28843  Biso   1.000  C
  C100     1.0000 0.29930  0.89690  0.78843  Biso   1.000  C
  C101     1.0000 0.14690  0.04930  0.96157  Biso   1.000  C
  C102     1.0000 0.35310  0.95070  0.46157  Biso   1.000  C
  C103     1.0000 0.29930  0.10310  0.71157  Biso   1.000  C
  C104     1.0000 0.20070  0.89690  0.21157  Biso   1.000  C
  C105     1.0000 0.85310  0.54930  0.53843  Biso   1.000  C
  C106     1.0000 0.64690  0.45070  0.03843  Biso   1.000  C
  C107     1.0000 0.70070  0.60310  0.78843  Biso   1.000  C
  C108     1.0000 0.79930  0.39690  0.28843  Biso   1.000  C
  C109     1.0000 0.64690  0.54930  0.46157  Biso   1.000  C
  C110     1.0000 0.85310  0.45070  0.96157  Biso   1.000  C
  C111     1.0000 0.79930  0.60310  0.21157  Biso   1.000  C
  C112     1.0000 0.70070  0.39690  0.71157  Biso   1.000  C
  C113     1.0000 0.64690  0.95070  0.96157  Biso   1.000  C
  C114     1.0000 0.85310  0.04930  0.46157  Biso   1.000  C
  C115     1.0000 0.29930  0.39690  0.21157  Biso   1.000  C
  C116     1.0000 0.20070  0.60310  0.71157  Biso   1.000  C
  C117     1.0000 0.85310  0.95070  0.03843  Biso   1.000  C
  C118     1.0000 0.64690  0.04930  0.53843  Biso   1.000  C
  C119     1.0000 0.20070  0.39690  0.78843  Biso   1.000  C
  C120     1.0000 0.29930  0.60310  0.28843  Biso   1.000  C
  C121     1.0000 0.14690  0.45070  0.46157  Biso   1.000  C
  C122     1.0000 0.35310  0.54930  0.96157  Biso   1.000  C
  C123     1.0000 0.79930  0.89690  0.71157  Biso   1.000  C
  C124     1.0000 0.70070  0.10310  0.21157  Biso   1.000  C
  C125     1.0000 0.35310  0.45070  0.53843  Biso   1.000  C
  C126     1.0000 0.14690  0.54930  0.03843  Biso   1.000  C
  C127     1.0000 0.70070  0.89690  0.28843  Biso   1.000  C
  C128     1.0000 0.79930  0.10310  0.78843  Biso   1.000  C
  H33      1.0000 0.34990  0.11430  0.02990  Biso   1.000  H
  H34      1.0000 0.15010  0.88570  0.52990  Biso   1.000  H
  H35      1.0000 0.13570  0.09990  0.27990  Biso   1.000  H
  H36      1.0000 0.36430  0.90010  0.77990  Biso   1.000  H
  H37      1.0000 0.15010  0.11430  0.97010  Biso   1.000  H
  H38      1.0000 0.34990  0.88570  0.47010  Biso   1.000  H
  H39      1.0000 0.36430  0.09990  0.72010  Biso   1.000  H
  H40      1.0000 0.13570  0.90010  0.22010  Biso   1.000  H
  H41      1.0000 0.84990  0.61430  0.52990  Biso   1.000  H
  H42      1.0000 0.65010  0.38570  0.02990  Biso   1.000  H
  H43      1.0000 0.63570  0.59990  0.77990  Biso   1.000  H
  H44      1.0000 0.86430  0.40010  0.27990  Biso   1.000  H
  H45      1.0000 0.65010  0.61430  0.47010  Biso   1.000  H
  H46      1.0000 0.84990  0.38570  0.97010  Biso   1.000  H
  H47      1.0000 0.86430  0.59990  0.22010  Biso   1.000  H
  H48      1.0000 0.63570  0.40010  0.72010  Biso   1.000  H
  H49      1.0000 0.65010  0.88570  0.97010  Biso   1.000  H
  H50      1.0000 0.84990  0.11430  0.47010  Biso   1.000  H
  H51      1.0000 0.36430  0.40010  0.22010  Biso   1.000  H
  H52      1.0000 0.13570  0.59990  0.72010  Biso   1.000  H
  H53      1.0000 0.84990  0.88570  0.02990  Biso   1.000  H
  H54      1.0000 0.65010  0.11430  0.52990  Biso   1.000  H
  H55      1.0000 0.13570  0.40010  0.77990  Biso   1.000  H
  H56      1.0000 0.36430  0.59990  0.27990  Biso   1.000  H
  H57      1.0000 0.15010  0.38570  0.47010  Biso   1.000  H
  H58      1.0000 0.34990  0.61430  0.97010  Biso   1.000  H
  H59      1.0000 0.86430  0.90010  0.72010  Biso   1.000  H
  H60      1.0000 0.63570  0.09990  0.22010  Biso   1.000  H
  H61      1.0000 0.34990  0.38570  0.52990  Biso   1.000  H
  H62      1.0000 0.15010  0.61430  0.02990  Biso   1.000  H
  H63      1.0000 0.63570  0.90010  0.27990  Biso   1.000  H
  H64      1.0000 0.86430  0.09990  0.77990  Biso   1.000  H
  C129     1.0000 0.37930  0.98140  0.00464  Biso   1.000  C
  C130     1.0000 0.12070  0.01860  0.50464  Biso   1.000  C
  C131     1.0000 0.26860  0.12930  0.25464  Biso   1.000  C
  C132     1.0000 0.23140  0.87070  0.75464  Biso   1.000  C
  C133     1.0000 0.12070  0.98140  0.99536  Biso   1.000  C
  C134     1.0000 0.37930  0.01860  0.49536  Biso   1.000  C
  C135     1.0000 0.23140  0.12930  0.74536  Biso   1.000  C
  C136     1.0000 0.26860  0.87070  0.24536  Biso   1.000  C
  C137     1.0000 0.87930  0.48140  0.50464  Biso   1.000  C
  C138     1.0000 0.62070  0.51860  0.00464  Biso   1.000  C
  C139     1.0000 0.76860  0.62930  0.75464  Biso   1.000  C
  C140     1.0000 0.73140  0.37070  0.25464  Biso   1.000  C
  C141     1.0000 0.62070  0.48140  0.49536  Biso   1.000  C
  C142     1.0000 0.87930  0.51860  0.99536  Biso   1.000  C
  C143     1.0000 0.73140  0.62930  0.24536  Biso   1.000  C
  C144     1.0000 0.76860  0.37070  0.74536  Biso   1.000  C
  C145     1.0000 0.62070  0.01860  0.99536  Biso   1.000  C
  C146     1.0000 0.87930  0.98140  0.49536  Biso   1.000  C
  C147     1.0000 0.23140  0.37070  0.24536  Biso   1.000  C
  C148     1.0000 0.26860  0.62930  0.74536  Biso   1.000  C
  C149     1.0000 0.87930  0.01860  0.00464  Biso   1.000  C
  C150     1.0000 0.62070  0.98140  0.50464  Biso   1.000  C
  C151     1.0000 0.26860  0.37070  0.75464  Biso   1.000  C
  C152     1.0000 0.23140  0.62930  0.25464  Biso   1.000  C
  C153     1.0000 0.12070  0.51860  0.49536  Biso   1.000  C
  C154     1.0000 0.37930  0.48140  0.99536  Biso   1.000  C
  C155     1.0000 0.73140  0.87070  0.74536  Biso   1.000  C
  C156     1.0000 0.76860  0.12930  0.24536  Biso   1.000  C
  C157     1.0000 0.37930  0.51860  0.50464  Biso   1.000  C
  C158     1.0000 0.12070  0.48140  0.00464  Biso   1.000  C
  C159     1.0000 0.76860  0.87070  0.25464  Biso   1.000  C
  C160     1.0000 0.73140  0.12930  0.75464  Biso   1.000  C
  H65      1.0000 0.39690  0.00050  0.97340  Biso   1.000  H
  H66      1.0000 0.10310  0.99950  0.47340  Biso   1.000  H
  H67      1.0000 0.24950  0.14690  0.22340  Biso   1.000  H
  H68      1.0000 0.25050  0.85310  0.72340  Biso   1.000  H
  H69      1.0000 0.10310  0.00050  0.02660  Biso   1.000  H
  H70      1.0000 0.39690  0.99950  0.52660  Biso   1.000  H
  H71      1.0000 0.25050  0.14690  0.77660  Biso   1.000  H
  H72      1.0000 0.24950  0.85310  0.27660  Biso   1.000  H
  H73      1.0000 0.89690  0.50050  0.47340  Biso   1.000  H
  H74      1.0000 0.60310  0.49950  0.97340  Biso   1.000  H
  H75      1.0000 0.74950  0.64690  0.72340  Biso   1.000  H
  H76      1.0000 0.75050  0.35310  0.22340  Biso   1.000  H
  H77      1.0000 0.60310  0.50050  0.52660  Biso   1.000  H
  H78      1.0000 0.89690  0.49950  0.02660  Biso   1.000  H
  H79      1.0000 0.75050  0.64690  0.27660  Biso   1.000  H
  H80      1.0000 0.74950  0.35310  0.77660  Biso   1.000  H
  H81      1.0000 0.60310  0.99950  0.02660  Biso   1.000  H
  H82      1.0000 0.89690  0.00050  0.52660  Biso   1.000  H
  H83      1.0000 0.25050  0.35310  0.27660  Biso   1.000  H
  H84      1.0000 0.24950  0.64690  0.77660  Biso   1.000  H
  H85      1.0000 0.89690  0.99950  0.97340  Biso   1.000  H
  H86      1.0000 0.60310  0.00050  0.47340  Biso   1.000  H
  H87      1.0000 0.24950  0.35310  0.72340  Biso   1.000  H
  H88      1.0000 0.25050  0.64690  0.22340  Biso   1.000  H
  H89      1.0000 0.10310  0.49950  0.52660  Biso   1.000  H
  H90      1.0000 0.39690  0.50050  0.02660  Biso   1.000  H
  H91      1.0000 0.75050  0.85310  0.77660  Biso   1.000  H
  H92      1.0000 0.74950  0.14690  0.27660  Biso   1.000  H
  H93      1.0000 0.39690  0.49950  0.47340  Biso   1.000  H
  H94      1.0000 0.10310  0.50050  0.97340  Biso   1.000  H
  H95      1.0000 0.74950  0.85310  0.22340  Biso   1.000  H
  H96      1.0000 0.75050  0.14690  0.72340  Biso   1.000  H
  C161     1.0000 0.35350  0.75010  0.07630  Biso   1.000  C
  C162     1.0000 0.14650  0.24990  0.57630  Biso   1.000  C
  C163     1.0000 0.49990  0.10350  0.32630  Biso   1.000  C
  C164     1.0000 0.00010  0.89650  0.82630  Biso   1.000  C
  C165     1.0000 0.14650  0.75010  0.92370  Biso   1.000  C
  C166     1.0000 0.35350  0.24990  0.42370  Biso   1.000  C
  C167     1.0000 0.00010  0.10350  0.67370  Biso   1.000  C
  C168     1.0000 0.49990  0.89650  0.17370  Biso   1.000  C
  C169     1.0000 0.85350  0.25010  0.57630  Biso   1.000  C
  C170     1.0000 0.64650  0.74990  0.07630  Biso   1.000  C
  C171     1.0000 0.99990  0.60350  0.82630  Biso   1.000  C
  C172     1.0000 0.50010  0.39650  0.32630  Biso   1.000  C
  C173     1.0000 0.64650  0.25010  0.42370  Biso   1.000  C
  C174     1.0000 0.85350  0.74990  0.92370  Biso   1.000  C
  C175     1.0000 0.50010  0.60350  0.17370  Biso   1.000  C
  C176     1.0000 0.99990  0.39650  0.67370  Biso   1.000  C
  C177     1.0000 0.64650  0.24990  0.92370  Biso   1.000  C
  C178     1.0000 0.85350  0.75010  0.42370  Biso   1.000  C
  C179     1.0000 0.00010  0.39650  0.17370  Biso   1.000  C
  C180     1.0000 0.49990  0.60350  0.67370  Biso   1.000  C
  C181     1.0000 0.85350  0.24990  0.07630  Biso   1.000  C
  C182     1.0000 0.64650  0.75010  0.57630  Biso   1.000  C
  C183     1.0000 0.49990  0.39650  0.82630  Biso   1.000  C
  C184     1.0000 0.00010  0.60350  0.32630  Biso   1.000  C
  C185     1.0000 0.14650  0.74990  0.42370  Biso   1.000  C
  C186     1.0000 0.35350  0.25010  0.92370  Biso   1.000  C
  C187     1.0000 0.50010  0.89650  0.67370  Biso   1.000  C
  C188     1.0000 0.99990  0.10350  0.17370  Biso   1.000  C
  C189     1.0000 0.35350  0.74990  0.57630  Biso   1.000  C
  C190     1.0000 0.14650  0.25010  0.07630  Biso   1.000  C
  C191     1.0000 0.99990  0.89650  0.32630  Biso   1.000  C
  C192     1.0000 0.50010  0.10350  0.82630  Biso   1.000  C
  O33      1.0000 0.33627  0.72879  0.12061  Biso   1.000  O
  O34      1.0000 0.16373  0.27121  0.62061  Biso   1.000  O
  O35      1.0000 0.52121  0.08627  0.37061  Biso   1.000  O
  O36      1.0000 0.97879  0.91373  0.87061  Biso   1.000  O
  O37      1.0000 0.16373  0.72879  0.87939  Biso   1.000  O
  O38      1.0000 0.33627  0.27121  0.37939  Biso   1.000  O
  O39      1.0000 0.97879  0.08627  0.62939  Biso   1.000  O
  O40      1.0000 0.52121  0.91373  0.12939  Biso   1.000  O
  O41      1.0000 0.83627  0.22879  0.62061  Biso   1.000  O
  O42      1.0000 0.66373  0.77121  0.12061  Biso   1.000  O
  O43      1.0000 0.02121  0.58627  0.87061  Biso   1.000  O
  O44      1.0000 0.47879  0.41373  0.37061  Biso   1.000  O
  O45      1.0000 0.66373  0.22879  0.37939  Biso   1.000  O
  O46      1.0000 0.83627  0.77121  0.87939  Biso   1.000  O
  O47      1.0000 0.47879  0.58627  0.12939  Biso   1.000  O
  O48      1.0000 0.02121  0.41373  0.62939  Biso   1.000  O
  O49      1.0000 0.66373  0.27121  0.87939  Biso   1.000  O
  O50      1.0000 0.83627  0.72879  0.37939  Biso   1.000  O
  O51      1.0000 0.97879  0.41373  0.12939  Biso   1.000  O
  O52      1.0000 0.52121  0.58627  0.62939  Biso   1.000  O
  O53      1.0000 0.83627  0.27121  0.12061  Biso   1.000  O
  O54      1.0000 0.66373  0.72879  0.62061  Biso   1.000  O
  O55      1.0000 0.52121  0.41373  0.87061  Biso   1.000  O
  O56      1.0000 0.97879  0.58627  0.37061  Biso   1.000  O
  O57      1.0000 0.16373  0.77121  0.37939  Biso   1.000  O
  O58      1.0000 0.33627  0.22879  0.87939  Biso   1.000  O
  O59      1.0000 0.47879  0.91373  0.62939  Biso   1.000  O
  O60      1.0000 0.02121  0.08627  0.12939  Biso   1.000  O
  O61      1.0000 0.33627  0.77121  0.62061  Biso   1.000  O
  O62      1.0000 0.16373  0.22879  0.12061  Biso   1.000  O
  O63      1.0000 0.02121  0.91373  0.37061  Biso   1.000  O
  O64      1.0000 0.47879  0.08627  0.87061  Biso   1.000  O
  O65      1.0000 0.36570  0.69080  0.04386  Biso   1.000  O
  O66      1.0000 0.13430  0.30920  0.54386  Biso   1.000  O
  O67      1.0000 0.55920  0.11570  0.29386  Biso   1.000  O
  O68      1.0000 0.94080  0.88430  0.79386  Biso   1.000  O
  O69      1.0000 0.13430  0.69080  0.95614  Biso   1.000  O
  O70      1.0000 0.36570  0.30920  0.45614  Biso   1.000  O
  O71      1.0000 0.94080  0.11570  0.70614  Biso   1.000  O
  O72      1.0000 0.55920  0.88430  0.20614  Biso   1.000  O
  O73      1.0000 0.86570  0.19080  0.54386  Biso   1.000  O
  O74      1.0000 0.63430  0.80920  0.04386  Biso   1.000  O
  O75      1.0000 0.05920  0.61570  0.79386  Biso   1.000  O
  O76      1.0000 0.44080  0.38430  0.29386  Biso   1.000  O
  O77      1.0000 0.63430  0.19080  0.45614  Biso   1.000  O
  O78      1.0000 0.86570  0.80920  0.95614  Biso   1.000  O
  O79      1.0000 0.44080  0.61570  0.20614  Biso   1.000  O
  O80      1.0000 0.05920  0.38430  0.70614  Biso   1.000  O
  O81      1.0000 0.63430  0.30920  0.95614  Biso   1.000  O
  O82      1.0000 0.86570  0.69080  0.45614  Biso   1.000  O
  O83      1.0000 0.94080  0.38430  0.20614  Biso   1.000  O
  O84      1.0000 0.55920  0.61570  0.70614  Biso   1.000  O
  O85      1.0000 0.86570  0.30920  0.04386  Biso   1.000  O
  O86      1.0000 0.63430  0.69080  0.54386  Biso   1.000  O
  O87      1.0000 0.55920  0.38430  0.79386  Biso   1.000  O
  O88      1.0000 0.94080  0.61570  0.29386  Biso   1.000  O
  O89      1.0000 0.13430  0.80920  0.45614  Biso   1.000  O
  O90      1.0000 0.36570  0.19080  0.95614  Biso   1.000  O
  O91      1.0000 0.44080  0.88430  0.70614  Biso   1.000  O
  O92      1.0000 0.05920  0.11570  0.20614  Biso   1.000  O
  O93      1.0000 0.36570  0.80920  0.54386  Biso   1.000  O
  O94      1.0000 0.13430  0.19080  0.04386  Biso   1.000  O
  O95      1.0000 0.05920  0.88430  0.29386  Biso   1.000  O
  O96      1.0000 0.44080  0.11570  0.79386  Biso   1.000  O
  O97      1.0000 0.50000  0.75000  0.90670  Biso   1.000  O
  O98      1.0000 0.00000  0.25000  0.40670  Biso   1.000  O
  O99      1.0000 0.50000  0.25000  0.15670  Biso   1.000  O
  O100     1.0000 0.00000  0.75000  0.65670  Biso   1.000  O
  O101     1.0000 0.00000  0.75000  0.09330  Biso   1.000  O
  O102     1.0000 0.50000  0.25000  0.59330  Biso   1.000  O
  O103     1.0000 0.00000  0.25000  0.84330  Biso   1.000  O
  O104     1.0000 0.50000  0.75000  0.34330  Biso   1.000  O
  O105     1.0000 0.50000  0.25000  0.09330  Biso   1.000  O
  O106     1.0000 0.00000  0.75000  0.59330  Biso   1.000  O
  O107     1.0000 0.00000  0.25000  0.34330  Biso   1.000  O
  O108     1.0000 0.50000  0.75000  0.84330  Biso   1.000  O
  O109     1.0000 0.00000  0.25000  0.90670  Biso   1.000  O
  O110     1.0000 0.50000  0.75000  0.40670  Biso   1.000  O
  O111     1.0000 0.50000  0.25000  0.65670  Biso   1.000  O
  O112     1.0000 0.00000  0.75000  0.15670  Biso   1.000  O
  H97      1.0000 0.43910  0.75530  0.90180  Biso   1.000  H
  H98      1.0000 0.06090  0.24470  0.40180  Biso   1.000  H
  H99      1.0000 0.49470  0.18910  0.15180  Biso   1.000  H
  H100     1.0000 0.00530  0.81090  0.65180  Biso   1.000  H
  H101     1.0000 0.06090  0.75530  0.09820  Biso   1.000  H
  H102     1.0000 0.43910  0.24470  0.59820  Biso   1.000  H
  H103     1.0000 0.00530  0.18910  0.84820  Biso   1.000  H
  H104     1.0000 0.49470  0.81090  0.34820  Biso   1.000  H
  H105     1.0000 0.93910  0.25530  0.40180  Biso   1.000  H
  H106     1.0000 0.56090  0.74470  0.90180  Biso   1.000  H
  H107     1.0000 0.99470  0.68910  0.65180  Biso   1.000  H
  H108     1.0000 0.50530  0.31090  0.15180  Biso   1.000  H
  H109     1.0000 0.56090  0.25530  0.59820  Biso   1.000  H
  H110     1.0000 0.93910  0.74470  0.09820  Biso   1.000  H
  H111     1.0000 0.50530  0.68910  0.34820  Biso   1.000  H
  H112     1.0000 0.99470  0.31090  0.84820  Biso   1.000  H
  H113     1.0000 0.56090  0.24470  0.09820  Biso   1.000  H
  H114     1.0000 0.93910  0.75530  0.59820  Biso   1.000  H
  H115     1.0000 0.00530  0.31090  0.34820  Biso   1.000  H
  H116     1.0000 0.49470  0.68910  0.84820  Biso   1.000  H
  H117     1.0000 0.93910  0.24470  0.90180  Biso   1.000  H
  H118     1.0000 0.56090  0.75530  0.40180  Biso   1.000  H
  H119     1.0000 0.49470  0.31090  0.65180  Biso   1.000  H
  H120     1.0000 0.00530  0.68910  0.15180  Biso   1.000  H
  H121     1.0000 0.06090  0.74470  0.59820  Biso   1.000  H
  H122     1.0000 0.43910  0.25530  0.09820  Biso   1.000  H
  H123     1.0000 0.50530  0.81090  0.84820  Biso   1.000  H
  H124     1.0000 0.99470  0.18910  0.34820  Biso   1.000  H
  H125     1.0000 0.43910  0.74470  0.40180  Biso   1.000  H
  H126     1.0000 0.06090  0.25530  0.90180  Biso   1.000  H
  H127     1.0000 0.99470  0.81090  0.15180  Biso   1.000  H
  H128     1.0000 0.50530  0.18910  0.65180  Biso   1.000  H
  H129     1.0000 0.44060  0.76300  0.83790  Biso   1.000  H
  H130     1.0000 0.05940  0.23700  0.33790  Biso   1.000  H
  H131     1.0000 0.48700  0.19060  0.08790  Biso   1.000  H
  H132     1.0000 0.01300  0.80940  0.58790  Biso   1.000  H
  H133     1.0000 0.05940  0.76300  0.16210  Biso   1.000  H
  H134     1.0000 0.44060  0.23700  0.66210  Biso   1.000  H
  H135     1.0000 0.01300  0.19060  0.91210  Biso   1.000  H
  H136     1.0000 0.48700  0.80940  0.41210  Biso   1.000  H
  H137     1.0000 0.94060  0.26300  0.33790  Biso   1.000  H
  H138     1.0000 0.55940  0.73700  0.83790  Biso   1.000  H
  H139     1.0000 0.98700  0.69060  0.58790  Biso   1.000  H
  H140     1.0000 0.51300  0.30940  0.08790  Biso   1.000  H
  H141     1.0000 0.55940  0.26300  0.66210  Biso   1.000  H
  H142     1.0000 0.94060  0.73700  0.16210  Biso   1.000  H
  H143     1.0000 0.51300  0.69060  0.41210  Biso   1.000  H
  H144     1.0000 0.98700  0.30940  0.91210  Biso   1.000  H
  H145     1.0000 0.55940  0.23700  0.16210  Biso   1.000  H
  H146     1.0000 0.94060  0.76300  0.66210  Biso   1.000  H
  H147     1.0000 0.01300  0.30940  0.41210  Biso   1.000  H
  H148     1.0000 0.48700  0.69060  0.91210  Biso   1.000  H
  H149     1.0000 0.94060  0.23700  0.83790  Biso   1.000  H
  H150     1.0000 0.55940  0.76300  0.33790  Biso   1.000  H
  H151     1.0000 0.48700  0.30940  0.58790  Biso   1.000  H
  H152     1.0000 0.01300  0.69060  0.08790  Biso   1.000  H
  H153     1.0000 0.05940  0.73700  0.66210  Biso   1.000  H
  H154     1.0000 0.44060  0.26300  0.16210  Biso   1.000  H
  H155     1.0000 0.51300  0.80940  0.91210  Biso   1.000  H
  H156     1.0000 0.98700  0.19060  0.41210  Biso   1.000  H
  H157     1.0000 0.44060  0.73700  0.33790  Biso   1.000  H
  H158     1.0000 0.05940  0.26300  0.83790  Biso   1.000  H
  H159     1.0000 0.98700  0.80940  0.08790  Biso   1.000  H
  H160     1.0000 0.51300  0.19060  0.58790  Biso   1.000  H
