data_image0
_cell_length_a       9.3132
_cell_length_b       11.557
_cell_length_c       16.118
_cell_angle_alpha    84.29
_cell_angle_beta     84.98
_cell_angle_gamma    79.92

_symmetry_space_group_name_H-M    "P 1"
_symmetry_int_tables_number       1

loop_
  _symmetry_equiv_pos_as_xyz
  'x, y, z'

loop_
  _atom_site_label
  _atom_site_occupancy
  _atom_site_fract_x
  _atom_site_fract_y
  _atom_site_fract_z
  _atom_site_thermal_displace_type
  _atom_site_B_iso_or_equiv
  _atom_site_type_symbol
  C1       1.0000 0.59800  0.31800  0.30000  Biso   1.000  C
  C2       1.0000 0.40200  0.68200  0.70000  Biso   1.000  C
  N1       1.0000 0.52390  0.12450  0.38720  Biso   1.000  N
  N2       1.0000 0.47610  0.87550  0.61280  Biso   1.000  N
  C3       1.0000 0.57910  0.23600  0.39170  Biso   1.000  C
  C4       1.0000 0.42090  0.76400  0.60830  Biso   1.000  C
  H1       1.0000 0.56170  0.26220  0.44820  Biso   1.000  H
  H2       1.0000 0.43830  0.73780  0.55180  Biso   1.000  H
  C5       1.0000 0.88690  0.93900  0.19970  Biso   1.000  C
  C6       1.0000 0.11310  0.06100  0.80030  Biso   1.000  C
  C7       1.0000 0.94840  0.85960  0.14220  Biso   1.000  C
  C8       1.0000 0.05160  0.14040  0.85780  Biso   1.000  C
  C9       1.0000 0.06560  0.87840  0.08820  Biso   1.000  C
  C10      1.0000 0.93440  0.12160  0.91180  Biso   1.000  C
  H3       1.0000 0.10460  0.82420  0.04980  Biso   1.000  H
  H4       1.0000 0.89540  0.17580  0.95020  Biso   1.000  H
  C11      1.0000 0.12640  0.98190  0.09170  Biso   1.000  C
  C12      1.0000 0.87360  0.01810  0.90830  Biso   1.000  C
  H5       1.0000 0.20690  0.99570  0.05610  Biso   1.000  H
  H6       1.0000 0.79310  0.00430  0.94390  Biso   1.000  H
  C13      1.0000 0.06650  0.06070  0.14740  Biso   1.000  C
  C14      1.0000 0.93350  0.93930  0.85260  Biso   1.000  C
  H7       1.0000 0.10710  0.12830  0.14920  Biso   1.000  H
  H8       1.0000 0.89290  0.87170  0.85080  Biso   1.000  H
  C15      1.0000 0.94580  0.04320  0.20190  Biso   1.000  C
  C16      1.0000 0.05420  0.95680  0.79810  Biso   1.000  C
  C17      1.0000 0.88960  0.13220  0.25730  Biso   1.000  C
  C18      1.0000 0.11040  0.86780  0.74270  Biso   1.000  C
  H9       1.0000 0.94160  0.19380  0.25810  Biso   1.000  H
  H10      1.0000 0.05840  0.80620  0.74190  Biso   1.000  H
  C19      1.0000 0.72970  0.22320  0.36450  Biso   1.000  C
  C20      1.0000 0.27030  0.77680  0.63550  Biso   1.000  C
  H11      1.0000 0.78730  0.20270  0.41280  Biso   1.000  H
  H12      1.0000 0.21270  0.79730  0.58720  Biso   1.000  H
  H13      1.0000 0.75070  0.29820  0.33810  Biso   1.000  H
  H14      1.0000 0.24930  0.70180  0.66190  Biso   1.000  H
  C21      1.0000 0.39130  0.11590  0.41280  Biso   1.000  C
  C22      1.0000 0.60870  0.88410  0.58720  Biso   1.000  C
  H15      1.0000 0.34050  0.17390  0.44550  Biso   1.000  H
  H16      1.0000 0.65950  0.82610  0.55450  Biso   1.000  H
  C23      1.0000 0.31470  0.02430  0.39530  Biso   1.000  C
  C24      1.0000 0.68530  0.97570  0.60470  Biso   1.000  C
  C25      1.0000 0.16430  0.03830  0.41830  Biso   1.000  C
  C26      1.0000 0.83570  0.96170  0.58170  Biso   1.000  C
  H17      1.0000 0.12010  0.10280  0.44690  Biso   1.000  H
  H18      1.0000 0.87990  0.89720  0.55310  Biso   1.000  H
  C27      1.0000 0.08140  0.95900  0.39950  Biso   1.000  C
  C28      1.0000 0.91860  0.04100  0.60050  Biso   1.000  C
  H19      1.0000 0.98160  0.97060  0.41460  Biso   1.000  H
  H20      1.0000 0.01840  0.02940  0.58540  Biso   1.000  H
  C29      1.0000 0.14560  0.86120  0.35790  Biso   1.000  C
  C30      1.0000 0.85440  0.13880  0.64210  Biso   1.000  C
  H21      1.0000 0.08930  0.80680  0.34590  Biso   1.000  H
  H22      1.0000 0.91070  0.19320  0.65410  Biso   1.000  H
  C31      1.0000 0.29280  0.84530  0.33460  Biso   1.000  C
  C32      1.0000 0.70720  0.15470  0.66540  Biso   1.000  C
  C33      1.0000 0.38080  0.92480  0.35450  Biso   1.000  C
  C34      1.0000 0.61920  0.07520  0.64550  Biso   1.000  C
  C35      1.0000 0.27670  0.67590  0.26310  Biso   1.000  C
  C36      1.0000 0.72330  0.32410  0.73690  Biso   1.000  C
  H23      1.0000 0.21450  0.64930  0.30900  Biso   1.000  H
  H24      1.0000 0.78550  0.35070  0.69100  Biso   1.000  H
  H25      1.0000 0.33900  0.60920  0.24090  Biso   1.000  H
  H26      1.0000 0.66100  0.39080  0.75910  Biso   1.000  H
  H27      1.0000 0.21790  0.71830  0.22030  Biso   1.000  H
  H28      1.0000 0.78210  0.28170  0.77970  Biso   1.000  H
  C37      1.0000 0.92360  0.68720  0.07750  Biso   1.000  C
  C38      1.0000 0.07640  0.31280  0.92250  Biso   1.000  C
  H29      1.0000 0.92000  0.73520  0.02530  Biso   1.000  H
  H30      1.0000 0.08000  0.26480  0.97470  Biso   1.000  H
  H31      1.0000 0.85750  0.63190  0.07870  Biso   1.000  H
  H32      1.0000 0.14250  0.36810  0.92130  Biso   1.000  H
  H33      1.0000 0.02120  0.64530  0.08310  Biso   1.000  H
  H34      1.0000 0.97880  0.35470  0.91690  Biso   1.000  H
  C39      1.0000 0.54970  0.56580  0.09680  Biso   1.000  C
  C40      1.0000 0.45030  0.43420  0.90320  Biso   1.000  C
  C41      1.0000 0.31620  0.46310  0.05390  Biso   1.000  C
  C42      1.0000 0.68380  0.53690  0.94610  Biso   1.000  C
  C43      1.0000 0.60360  0.34810  0.04180  Biso   1.000  C
  C44      1.0000 0.39640  0.65190  0.95820  Biso   1.000  C
  C45      1.0000 0.91030  0.62830  0.42550  Biso   1.000  C
  C46      1.0000 0.08970  0.37170  0.57450  Biso   1.000  C
  C47      1.0000 0.04920  0.40380  0.40680  Biso   1.000  C
  C48      1.0000 0.95080  0.59620  0.59320  Biso   1.000  C
  C49      1.0000 0.18870  0.54960  0.48090  Biso   1.000  C
  C50      1.0000 0.81130  0.45040  0.51910  Biso   1.000  C
  C51      1.0000 0.55250  0.86950  0.05740  Biso   1.000  C
  C52      1.0000 0.44750  0.13050  0.94260  Biso   1.000  C
  H35      1.0000 0.61970  0.91870  0.03140  Biso   1.000  H
  H36      1.0000 0.38030  0.08130  0.96860  Biso   1.000  H
  H37      1.0000 0.45660  0.89900  0.03910  Biso   1.000  H
  H38      1.0000 0.54340  0.10100  0.96090  Biso   1.000  H
  H39      1.0000 0.58360  0.79030  0.04210  Biso   1.000  H
  H40      1.0000 0.41640  0.20970  0.95790  Biso   1.000  H
  Cu1      1.0000 0.64460  0.02093  0.31309  Biso   1.000  Cu
  Cu2      1.0000 0.35540  0.97907  0.68691  Biso   1.000  Cu
  Fe1      1.0000 0.50000  0.50000  0.00000  Biso   1.000  Fe
  Fe2      1.0000 0.00000  0.50000  0.50000  Biso   1.000  Fe
  La1      1.0000 0.66224  0.73032  0.26097  Biso   1.000  La
  La2      1.0000 0.33776  0.26968  0.73903  Biso   1.000  La
  N3       1.0000 0.77320  0.13350  0.30600  Biso   1.000  N
  N4       1.0000 0.22680  0.86650  0.69400  Biso   1.000  N
  N5       1.0000 0.58240  0.60740  0.15280  Biso   1.000  N
  N6       1.0000 0.41760  0.39260  0.84720  Biso   1.000  N
  N7       1.0000 0.20830  0.43980  0.08230  Biso   1.000  N
  N8       1.0000 0.79170  0.56020  0.91770  Biso   1.000  N
  N9       1.0000 0.66570  0.25820  0.06830  Biso   1.000  N
  N10      1.0000 0.33430  0.74180  0.93170  Biso   1.000  N
  N11      1.0000 0.84950  0.69820  0.37900  Biso   1.000  N
  N12      1.0000 0.15050  0.30180  0.62100  Biso   1.000  N
  N13      1.0000 0.07750  0.34920  0.35000  Biso   1.000  N
  N14      1.0000 0.92250  0.65080  0.65000  Biso   1.000  N
  N15      1.0000 0.30330  0.57430  0.47040  Biso   1.000  N
  N16      1.0000 0.69670  0.42570  0.52960  Biso   1.000  N
  O1       1.0000 0.77500  0.91110  0.24990  Biso   1.000  O
  O2       1.0000 0.22500  0.08890  0.75010  Biso   1.000  O
  O3       1.0000 0.88220  0.76060  0.14480  Biso   1.000  O
  O4       1.0000 0.11780  0.23940  0.85520  Biso   1.000  O
  O5       1.0000 0.52480  0.89930  0.33140  Biso   1.000  O
  O6       1.0000 0.47520  0.10070  0.66860  Biso   1.000  O
  O7       1.0000 0.36520  0.75250  0.29180  Biso   1.000  O
  O8       1.0000 0.63480  0.24750  0.70820  Biso   1.000  O
  O9       1.0000 0.57040  0.61120  0.38940  Biso   1.000  O
  O10      1.0000 0.42960  0.38880  0.61060  Biso   1.000  O
  H41      1.0000 0.62770  0.56500  0.42110  Biso   1.000  H
  H42      1.0000 0.37230  0.43500  0.57890  Biso   1.000  H
  H43      1.0000 0.48400  0.62080  0.41280  Biso   1.000  H
  H44      1.0000 0.51600  0.37920  0.58720  Biso   1.000  H
  O11      1.0000 0.83280  0.53170  0.25560  Biso   1.000  O
  O12      1.0000 0.16720  0.46830  0.74440  Biso   1.000  O
  H45      1.0000 0.85880  0.49600  0.21110  Biso   1.000  H
  H46      1.0000 0.14120  0.50400  0.78890  Biso   1.000  H
  H47      1.0000 0.90290  0.51250  0.28810  Biso   1.000  H
  H48      1.0000 0.09710  0.48750  0.71190  Biso   1.000  H
  O13      1.0000 0.54910  0.87010  0.14390  Biso   1.000  O
  O14      1.0000 0.45090  0.12990  0.85610  Biso   1.000  O
  H49      1.0000 0.49200  0.93770  0.16320  Biso   1.000  H
  H50      1.0000 0.50800  0.06230  0.83680  Biso   1.000  H
  O15      1.0000 0.26670  0.24700  0.21520  Biso   1.000  O
  O16      1.0000 0.73330  0.75300  0.78480  Biso   1.000  O
  H51      1.0000 0.24830  0.30450  0.17800  Biso   1.000  H
  H52      1.0000 0.75170  0.69550  0.82200  Biso   1.000  H
  H53      1.0000 0.30660  0.27020  0.25480  Biso   1.000  H
  H54      1.0000 0.69340  0.72980  0.74520  Biso   1.000  H
  O17      1.0000 0.51990  0.09700  0.18190  Biso   1.000  O
  O18      1.0000 0.48010  0.90300  0.81810  Biso   1.000  O
  H55      1.0000 0.56870  0.12900  0.14060  Biso   1.000  H
  H56      1.0000 0.43130  0.87100  0.85940  Biso   1.000  H
  H57      1.0000 0.43130  0.13430  0.18220  Biso   1.000  H
  H58      1.0000 0.56870  0.86570  0.81780  Biso   1.000  H
  O19      1.0000 0.91310  0.38350  0.13580  Biso   1.000  O
  O20      1.0000 0.08690  0.61650  0.86420  Biso   1.000  O
  H59      1.0000 0.99730  0.39430  0.11460  Biso   1.000  H
  H60      1.0000 0.00270  0.60570  0.88540  Biso   1.000  H
  H61      1.0000 0.87700  0.34140  0.10630  Biso   1.000  H
  H62      1.0000 0.12300  0.65860  0.89370  Biso   1.000  H
  C53      1.0000 0.52000  0.33890  0.32410  Biso   1.000  C
  C54      1.0000 0.48000  0.66110  0.67590  Biso   1.000  C
