data_image0
_cell_length_a       9.3
_cell_length_b       11.475
_cell_length_c       15.985
_cell_angle_alpha    83.89
_cell_angle_beta     85.175
_cell_angle_gamma    79.795

_symmetry_space_group_name_H-M    "P 1"
_symmetry_int_tables_number       1

loop_
  _symmetry_equiv_pos_as_xyz
  'x, y, z'

loop_
  _atom_site_label
  _atom_site_occupancy
  _atom_site_fract_x
  _atom_site_fract_y
  _atom_site_fract_z
  _atom_site_thermal_displace_type
  _atom_site_B_iso_or_equiv
  _atom_site_type_symbol
  C1       1.0000 0.11840  0.58210  0.14660  Biso   1.000  C
  C2       1.0000 0.88160  0.41790  0.85340  Biso   1.000  C
  C3       1.0000 0.20690  0.66020  0.16700  Biso   1.000  C
  C4       1.0000 0.79310  0.33980  0.83300  Biso   1.000  C
  C5       1.0000 0.35390  0.64530  0.14370  Biso   1.000  C
  C6       1.0000 0.64610  0.35470  0.85630  Biso   1.000  C
  H1       1.0000 0.41070  0.69910  0.15680  Biso   1.000  H
  H2       1.0000 0.58930  0.30090  0.84320  Biso   1.000  H
  C7       1.0000 0.41620  0.54830  0.10030  Biso   1.000  C
  C8       1.0000 0.58380  0.45170  0.89970  Biso   1.000  C
  H3       1.0000 0.51540  0.53860  0.08340  Biso   1.000  H
  H4       1.0000 0.48460  0.46140  0.91660  Biso   1.000  H
  C9       1.0000 0.33710  0.46710  0.08180  Biso   1.000  C
  C10      1.0000 0.66290  0.53290  0.91820  Biso   1.000  C
  H5       1.0000 0.38240  0.40180  0.05400  Biso   1.000  H
  H6       1.0000 0.61760  0.59820  0.94600  Biso   1.000  H
  C11      1.0000 0.18440  0.48230  0.10520  Biso   1.000  C
  C12      1.0000 0.81560  0.51770  0.89480  Biso   1.000  C
  C13      1.0000 0.10850  0.38810  0.08750  Biso   1.000  C
  C14      1.0000 0.89150  0.61190  0.91250  Biso   1.000  C
  H7       1.0000 0.15970  0.32960  0.05510  Biso   1.000  H
  H8       1.0000 0.84030  0.67040  0.94490  Biso   1.000  H
  C15      1.0000 0.93210  0.26750  0.10630  Biso   1.000  C
  C16      1.0000 0.06790  0.73250  0.89370  Biso   1.000  C
  H9       1.0000 0.94210  0.24200  0.04920  Biso   1.000  H
  H10      1.0000 0.05790  0.75800  0.95080  Biso   1.000  H
  C17      1.0000 0.97900  0.17230  0.17340  Biso   1.000  C
  C18      1.0000 0.02100  0.82770  0.82660  Biso   1.000  C
  H11      1.0000 0.96180  0.20400  0.22720  Biso   1.000  H
  H12      1.0000 0.03820  0.79600  0.77280  Biso   1.000  H
  H13      1.0000 0.08120  0.14200  0.16360  Biso   1.000  H
  H14      1.0000 0.91880  0.85800  0.83640  Biso   1.000  H
  H15      1.0000 0.92370  0.10920  0.17280  Biso   1.000  H
  H16      1.0000 0.07630  0.89080  0.82720  Biso   1.000  H
  C19      1.0000 0.78630  0.26570  0.15070  Biso   1.000  C
  C20      1.0000 0.21370  0.73430  0.84930  Biso   1.000  C
  H17      1.0000 0.71830  0.25610  0.11020  Biso   1.000  H
  H18      1.0000 0.28170  0.74390  0.88980  Biso   1.000  H
  H19      1.0000 0.79300  0.19680  0.19200  Biso   1.000  H
  H20      1.0000 0.20700  0.80320  0.80800  Biso   1.000  H
  C21      1.0000 0.61350  0.37070  0.24190  Biso   1.000  C
  C22      1.0000 0.38650  0.62930  0.75810  Biso   1.000  C
  H21      1.0000 0.56180  0.30850  0.24110  Biso   1.000  H
  H22      1.0000 0.43820  0.69150  0.75890  Biso   1.000  H
  C23      1.0000 0.55710  0.46010  0.29880  Biso   1.000  C
  C24      1.0000 0.44290  0.53990  0.70120  Biso   1.000  C
  C25      1.0000 0.43260  0.44350  0.35340  Biso   1.000  C
  C26      1.0000 0.56740  0.55650  0.64660  Biso   1.000  C
  H23      1.0000 0.39080  0.37600  0.35200  Biso   1.000  H
  H24      1.0000 0.60920  0.62400  0.64800  Biso   1.000  H
  C27      1.0000 0.37400  0.52520  0.40760  Biso   1.000  C
  C28      1.0000 0.62600  0.47480  0.59240  Biso   1.000  C
  H25      1.0000 0.29090  0.51310  0.44170  Biso   1.000  H
  H26      1.0000 0.70910  0.48690  0.55830  Biso   1.000  H
  C29      1.0000 0.43440  0.62700  0.41380  Biso   1.000  C
  C30      1.0000 0.56560  0.37300  0.58620  Biso   1.000  C
  H27      1.0000 0.39610  0.68070  0.45290  Biso   1.000  H
  H28      1.0000 0.60390  0.31930  0.54710  Biso   1.000  H
  C31      1.0000 0.55340  0.64430  0.35900  Biso   1.000  C
  C32      1.0000 0.44660  0.35570  0.64100  Biso   1.000  C
  C33      1.0000 0.61630  0.56530  0.30100  Biso   1.000  C
  C34      1.0000 0.38370  0.43470  0.69900  Biso   1.000  C
  C35      1.0000 0.58320  0.81620  0.42510  Biso   1.000  C
  C36      1.0000 0.41680  0.18380  0.57490  Biso   1.000  C
  H29      1.0000 0.48460  0.85760  0.42030  Biso   1.000  H
  H30      1.0000 0.51540  0.14240  0.57970  Biso   1.000  H
  H31      1.0000 0.64830  0.87280  0.42310  Biso   1.000  H
  H32      1.0000 0.35170  0.12720  0.57690  Biso   1.000  H
  H33      1.0000 0.58950  0.76710  0.47760  Biso   1.000  H
  H34      1.0000 0.41050  0.23290  0.52240  Biso   1.000  H
  C37      1.0000 0.22370  0.82780  0.24020  Biso   1.000  C
  C38      1.0000 0.77630  0.17220  0.75980  Biso   1.000  C
  H35      1.0000 0.28300  0.78410  0.28330  Biso   1.000  H
  H36      1.0000 0.71700  0.21590  0.71670  Biso   1.000  H
  H37      1.0000 0.16210  0.89500  0.26280  Biso   1.000  H
  H38      1.0000 0.83790  0.10500  0.73720  Biso   1.000  H
  H39      1.0000 0.28580  0.85470  0.19390  Biso   1.000  H
  H40      1.0000 0.71420  0.14530  0.80610  Biso   1.000  H
  C39      1.0000 0.94910  0.93310  0.40350  Biso   1.000  C
  C40      1.0000 0.05090  0.06690  0.59650  Biso   1.000  C
  C41      1.0000 0.18460  0.03420  0.44490  Biso   1.000  C
  C42      1.0000 0.81540  0.96580  0.55510  Biso   1.000  C
  C43      1.0000 0.89700  0.15440  0.45650  Biso   1.000  C
  C44      1.0000 0.10300  0.84560  0.54350  Biso   1.000  C
  C45      1.0000 0.59080  0.87270  0.07600  Biso   1.000  C
  C46      1.0000 0.40920  0.12730  0.92400  Biso   1.000  C
  C47      1.0000 0.45170  0.09770  0.09320  Biso   1.000  C
  C48      1.0000 0.54830  0.90230  0.90680  Biso   1.000  C
  C49      1.0000 0.31150  0.94930  0.01980  Biso   1.000  C
  C50      1.0000 0.68850  0.05070  0.98020  Biso   1.000  C
  C51      1.0000 0.95820  0.62490  0.43930  Biso   1.000  C
  C52      1.0000 0.04180  0.37510  0.56070  Biso   1.000  C
  H41      1.0000 0.05280  0.63700  0.45280  Biso   1.000  H
  H42      1.0000 0.94720  0.36300  0.54720  Biso   1.000  H
  H43      1.0000 0.94060  0.54850  0.46430  Biso   1.000  H
  H44      1.0000 0.05940  0.45150  0.53570  Biso   1.000  H
  H45      1.0000 0.88430  0.68590  0.46090  Biso   1.000  H
  H46      1.0000 0.11570  0.31410  0.53910  Biso   1.000  H
  Cu1      1.0000 0.85691  0.48313  0.18659  Biso   1.000  Cu
  Cu2      1.0000 0.14309  0.51687  0.81341  Biso   1.000  Cu
  Fe1      1.0000 0.00000  0.00000  0.50000  Biso   1.000  Fe
  Fe2      1.0000 0.50000  0.00000  0.00000  Biso   1.000  Fe
  N1       1.0000 0.97800  0.38010  0.11300  Biso   1.000  N
  N2       1.0000 0.02200  0.61990  0.88700  Biso   1.000  N
  N3       1.0000 0.72720  0.37030  0.19320  Biso   1.000  N
  N4       1.0000 0.27280  0.62970  0.80680  Biso   1.000  N
  N5       1.0000 0.91610  0.88980  0.34770  Biso   1.000  N
  N6       1.0000 0.08390  0.11020  0.65230  Biso   1.000  N
  N7       1.0000 0.83620  0.24300  0.43000  Biso   1.000  N
  N8       1.0000 0.16380  0.75700  0.57000  Biso   1.000  N
  N9       1.0000 0.29460  0.05600  0.41550  Biso   1.000  N
  N10      1.0000 0.70540  0.94400  0.58450  Biso   1.000  N
  N11      1.0000 0.65530  0.80340  0.12400  Biso   1.000  N
  N12      1.0000 0.34470  0.19660  0.87600  Biso   1.000  N
  N13      1.0000 0.42510  0.15340  0.14890  Biso   1.000  N
  N14      1.0000 0.57490  0.84660  0.85110  Biso   1.000  N
  N15      1.0000 0.19570  0.92670  0.03110  Biso   1.000  N
  N16      1.0000 0.80430  0.07330  0.96890  Biso   1.000  N
  Nd1      1.0000 0.83974  0.77024  0.24024  Biso   1.000  Nd
  Nd2      1.0000 0.16026  0.22976  0.75975  Biso   1.000  Nd
  O1       1.0000 0.97530  0.60590  0.16970  Biso   1.000  O
  O2       1.0000 0.02470  0.39410  0.83030  Biso   1.000  O
  O3       1.0000 0.13490  0.75250  0.21170  Biso   1.000  O
  O4       1.0000 0.86510  0.24750  0.78830  Biso   1.000  O
  O5       1.0000 0.72850  0.59360  0.25020  Biso   1.000  O
  O6       1.0000 0.27150  0.40640  0.74980  Biso   1.000  O
  O7       1.0000 0.62370  0.74330  0.35680  Biso   1.000  O
  O8       1.0000 0.37630  0.25670  0.64320  Biso   1.000  O
  O9       1.0000 0.98250  0.40530  0.31780  Biso   1.000  O
  O10      1.0000 0.01750  0.59470  0.68220  Biso   1.000  O
  H47      1.0000 0.91850  0.40090  0.35870  Biso   1.000  H
  H48      1.0000 0.08150  0.59910  0.64130  Biso   1.000  H
  H49      1.0000 0.07150  0.37270  0.32150  Biso   1.000  H
  H50      1.0000 0.92850  0.62730  0.67850  Biso   1.000  H
  O11      1.0000 0.95370  0.62980  0.35480  Biso   1.000  O
  O12      1.0000 0.04630  0.37020  0.64520  Biso   1.000  O
  H51      1.0000 0.04300  0.63590  0.34390  Biso   1.000  H
  H52      1.0000 0.95700  0.36410  0.65610  Biso   1.000  H
  O13      1.0000 0.67320  0.96550  0.24480  Biso   1.000  O
  O14      1.0000 0.32680  0.03450  0.75520  Biso   1.000  O
  H53      1.0000 0.62050  0.00760  0.20810  Biso   1.000  H
  H54      1.0000 0.37950  0.99240  0.79190  Biso   1.000  H
  H55      1.0000 0.67090  0.01870  0.27830  Biso   1.000  H
  H56      1.0000 0.32910  0.98130  0.72170  Biso   1.000  H
  O15      1.0000 0.92970  0.88980  0.11520  Biso   1.000  O
  O16      1.0000 0.07030  0.11020  0.88480  Biso   1.000  O
  H57      1.0000 0.01890  0.89020  0.09860  Biso   1.000  H
  H58      1.0000 0.98110  0.10980  0.90140  Biso   1.000  H
  H59      1.0000 0.87730  0.93520  0.07980  Biso   1.000  H
  H60      1.0000 0.12270  0.06480  0.92020  Biso   1.000  H
  O17      1.0000 0.23620  0.25380  0.28430  Biso   1.000  O
  O18      1.0000 0.76380  0.74620  0.71570  Biso   1.000  O
  H61      1.0000 0.27750  0.21650  0.24310  Biso   1.000  H
  H62      1.0000 0.72250  0.78350  0.75690  Biso   1.000  H
  H63      1.0000 0.23310  0.20340  0.32710  Biso   1.000  H
  H64      1.0000 0.76690  0.79660  0.67290  Biso   1.000  H
  O19      1.0000 0.58820  0.11770  0.36260  Biso   1.000  O
  O20      1.0000 0.41180  0.88230  0.63740  Biso   1.000  O
  H65      1.0000 0.65540  0.15180  0.37660  Biso   1.000  H
  H66      1.0000 0.34460  0.84820  0.62340  Biso   1.000  H
  H67      1.0000 0.52510  0.11550  0.40410  Biso   1.000  H
  H68      1.0000 0.47490  0.88450  0.59590  Biso   1.000  H
  C53      1.0000 0.87200  0.30200  0.07670  Biso   1.000  C
  C54      1.0000 0.12800  0.69800  0.92330  Biso   1.000  C
  C55      1.0000 0.89900  0.17300  0.21410  Biso   1.000  C
  C56      1.0000 0.10100  0.82700  0.78590  Biso   1.000  C
  C57      1.0000 0.75400  0.30260  0.10850  Biso   1.000  C
  C58      1.0000 0.24600  0.69740  0.89150  Biso   1.000  C
