data_image0
_cell_length_a       9.317
_cell_length_b       11.4552
_cell_length_c       15.9053
_cell_angle_alpha    83.887
_cell_angle_beta     85.272
_cell_angle_gamma    79.802

_symmetry_space_group_name_H-M    "P 1"
_symmetry_int_tables_number       1

loop_
  _symmetry_equiv_pos_as_xyz
  'x, y, z'

loop_
  _atom_site_label
  _atom_site_occupancy
  _atom_site_fract_x
  _atom_site_fract_y
  _atom_site_fract_z
  _atom_site_thermal_displace_type
  _atom_site_B_iso_or_equiv
  _atom_site_type_symbol
  C1       1.0000 0.61720  0.08750  0.14690  Biso   1.000  C
  C2       1.0000 0.38280  0.91250  0.85310  Biso   1.000  C
  C3       1.0000 0.70580  0.16520  0.16830  Biso   1.000  C
  C4       1.0000 0.29420  0.83480  0.83170  Biso   1.000  C
  C5       1.0000 0.85300  0.14940  0.14550  Biso   1.000  C
  C6       1.0000 0.14700  0.85060  0.85450  Biso   1.000  C
  H1       1.0000 0.90970  0.20250  0.15980  Biso   1.000  H
  H2       1.0000 0.09030  0.79750  0.84020  Biso   1.000  H
  C7       1.0000 0.91590  0.05360  0.10110  Biso   1.000  C
  C8       1.0000 0.08410  0.94640  0.89890  Biso   1.000  C
  H3       1.0000 0.01490  0.04410  0.08400  Biso   1.000  H
  H4       1.0000 0.98510  0.95590  0.91600  Biso   1.000  H
  C9       1.0000 0.83500  0.97320  0.08200  Biso   1.000  C
  C10      1.0000 0.16500  0.02680  0.91800  Biso   1.000  C
  H5       1.0000 0.88010  0.90810  0.05360  Biso   1.000  H
  H6       1.0000 0.11990  0.09190  0.94640  Biso   1.000  H
  C11      1.0000 0.68330  0.98710  0.10470  Biso   1.000  C
  C12      1.0000 0.31670  0.01290  0.89530  Biso   1.000  C
  C13      1.0000 0.60830  0.89410  0.08640  Biso   1.000  C
  C14      1.0000 0.39170  0.10590  0.91360  Biso   1.000  C
  H7       1.0000 0.65960  0.83630  0.05320  Biso   1.000  H
  H8       1.0000 0.34040  0.16370  0.94680  Biso   1.000  H
  C15      1.0000 0.41990  0.77510  0.10030  Biso   1.000  C
  C16      1.0000 0.58010  0.22490  0.89970  Biso   1.000  C
  H9       1.0000 0.44360  0.74450  0.04470  Biso   1.000  H
  H10      1.0000 0.55640  0.25550  0.95530  Biso   1.000  H
  C17      1.0000 0.45450  0.68060  0.17950  Biso   1.000  C
  C18      1.0000 0.54550  0.31940  0.82050  Biso   1.000  C
  H11      1.0000 0.54340  0.69100  0.20200  Biso   1.000  H
  H12      1.0000 0.45660  0.30900  0.79800  Biso   1.000  H
  H13      1.0000 0.46540  0.60160  0.16210  Biso   1.000  H
  H14      1.0000 0.53460  0.39840  0.83790  Biso   1.000  H
  H15      1.0000 0.37570  0.69210  0.22220  Biso   1.000  H
  H16      1.0000 0.62430  0.30790  0.77780  Biso   1.000  H
  C19      1.0000 0.26890  0.78650  0.13050  Biso   1.000  C
  C20      1.0000 0.73110  0.21350  0.86950  Biso   1.000  C
  H17      1.0000 0.25010  0.70980  0.15670  Biso   1.000  H
  H18      1.0000 0.74990  0.29020  0.84330  Biso   1.000  H
  H19      1.0000 0.20840  0.80860  0.08260  Biso   1.000  H
  H20      1.0000 0.79160  0.19140  0.91740  Biso   1.000  H
  C21      1.0000 0.11140  0.87700  0.24190  Biso   1.000  C
  C22      1.0000 0.88860  0.12300  0.75810  Biso   1.000  C
  H21      1.0000 0.05870  0.81540  0.24120  Biso   1.000  H
  H22      1.0000 0.94130  0.18460  0.75880  Biso   1.000  H
  C23      1.0000 0.05710  0.96670  0.29880  Biso   1.000  C
  C24      1.0000 0.94290  0.03330  0.70120  Biso   1.000  C
  C25      1.0000 0.93490  0.95100  0.35350  Biso   1.000  C
  C26      1.0000 0.06510  0.04900  0.64650  Biso   1.000  C
  H23      1.0000 0.89220  0.88400  0.35130  Biso   1.000  H
  H24      1.0000 0.10780  0.11600  0.64870  Biso   1.000  H
  C27      1.0000 0.87720  0.03070  0.40940  Biso   1.000  C
  C28      1.0000 0.12280  0.96930  0.59060  Biso   1.000  C
  H25      1.0000 0.79610  0.01780  0.44500  Biso   1.000  H
  H26      1.0000 0.20390  0.98220  0.55500  Biso   1.000  H
  C29      1.0000 0.93890  0.13170  0.41390  Biso   1.000  C
  C30      1.0000 0.06110  0.86830  0.58610  Biso   1.000  C
  H27      1.0000 0.90040  0.18570  0.45300  Biso   1.000  H
  H28      1.0000 0.09960  0.81430  0.54700  Biso   1.000  H
  C31      1.0000 0.05740  0.15120  0.36000  Biso   1.000  C
  C32      1.0000 0.94260  0.84880  0.64000  Biso   1.000  C
  C33      1.0000 0.11770  0.07030  0.30110  Biso   1.000  C
  C34      1.0000 0.88230  0.92970  0.69890  Biso   1.000  C
  C35      1.0000 0.08910  0.32130  0.42670  Biso   1.000  C
  C36      1.0000 0.91090  0.67870  0.57330  Biso   1.000  C
  H29      1.0000 0.98990  0.36160  0.42330  Biso   1.000  H
  H30      1.0000 0.01010  0.63840  0.57670  Biso   1.000  H
  H31      1.0000 0.15290  0.37910  0.42380  Biso   1.000  H
  H32      1.0000 0.84710  0.62090  0.57620  Biso   1.000  H
  H33      1.0000 0.09850  0.27200  0.47940  Biso   1.000  H
  H34      1.0000 0.90150  0.72800  0.52060  Biso   1.000  H
  C37      1.0000 0.72100  0.33510  0.24200  Biso   1.000  C
  C38      1.0000 0.27900  0.66490  0.75800  Biso   1.000  C
  H35      1.0000 0.79150  0.28940  0.27870  Biso   1.000  H
  H36      1.0000 0.20850  0.71060  0.72130  Biso   1.000  H
  H37      1.0000 0.65940  0.39520  0.27240  Biso   1.000  H
  H38      1.0000 0.34060  0.60480  0.72760  Biso   1.000  H
  H39      1.0000 0.77080  0.37240  0.19410  Biso   1.000  H
  H40      1.0000 0.22920  0.62760  0.80590  Biso   1.000  H
  C39      1.0000 0.44720  0.43190  0.40260  Biso   1.000  C
  C40      1.0000 0.55280  0.56810  0.59740  Biso   1.000  C
  C41      1.0000 0.68280  0.53440  0.44340  Biso   1.000  C
  C42      1.0000 0.31720  0.46560  0.55660  Biso   1.000  C
  C43      1.0000 0.39770  0.65480  0.45620  Biso   1.000  C
  C44      1.0000 0.60230  0.34520  0.54380  Biso   1.000  C
  C45      1.0000 0.09450  0.37240  0.07740  Biso   1.000  C
  C46      1.0000 0.90550  0.62760  0.92260  Biso   1.000  C
  C47      1.0000 0.95080  0.59940  0.09340  Biso   1.000  C
  C48      1.0000 0.04920  0.40060  0.90660  Biso   1.000  C
  C49      1.0000 0.81050  0.44970  0.02010  Biso   1.000  C
  C50      1.0000 0.18950  0.55030  0.97990  Biso   1.000  C
  C51      1.0000 0.45040  0.12910  0.44400  Biso   1.000  C
  C52      1.0000 0.54960  0.87090  0.55600  Biso   1.000  C
  H41      1.0000 0.54090  0.14590  0.46030  Biso   1.000  H
  H42      1.0000 0.45910  0.85410  0.53970  Biso   1.000  H
  H43      1.0000 0.43750  0.05070  0.46780  Biso   1.000  H
  H44      1.0000 0.56250  0.94930  0.53220  Biso   1.000  H
  H45      1.0000 0.37090  0.18660  0.46450  Biso   1.000  H
  H46      1.0000 0.62910  0.81340  0.53550  Biso   1.000  H
  Cu1      1.0000 0.35577  0.98875  0.18523  Biso   1.000  Cu
  Cu2      1.0000 0.64423  0.01125  0.81477  Biso   1.000  Cu
  Fe1      1.0000 0.50000  0.50000  0.50000  Biso   1.000  Fe
  Fe2      1.0000 0.00000  0.50000  0.00000  Biso   1.000  Fe
  Gd1      1.0000 0.34054  0.27215  0.24076  Biso   1.000  Gd
  Gd2      1.0000 0.65946  0.72785  0.75924  Biso   1.000  Gd
  N1       1.0000 0.22670  0.87560  0.19200  Biso   1.000  N
  N2       1.0000 0.77330  0.12440  0.80800  Biso   1.000  N
  N3       1.0000 0.47770  0.88450  0.11180  Biso   1.000  N
  N4       1.0000 0.52230  0.11550  0.88820  Biso   1.000  N
  N5       1.0000 0.79170  0.55550  0.41290  Biso   1.000  N
  N6       1.0000 0.20830  0.44450  0.58710  Biso   1.000  N
  N7       1.0000 0.33680  0.74480  0.42940  Biso   1.000  N
  N8       1.0000 0.66320  0.25520  0.57060  Biso   1.000  N
  N9       1.0000 0.41450  0.38910  0.34650  Biso   1.000  N
  N10      1.0000 0.58550  0.61090  0.65350  Biso   1.000  N
  N11      1.0000 0.15910  0.30540  0.12520  Biso   1.000  N
  N12      1.0000 0.84090  0.69460  0.87480  Biso   1.000  N
  N13      1.0000 0.92280  0.65670  0.14890  Biso   1.000  N
  N14      1.0000 0.07720  0.34330  0.85110  Biso   1.000  N
  N15      1.0000 0.69590  0.42640  0.03120  Biso   1.000  N
  N16      1.0000 0.30410  0.57360  0.96880  Biso   1.000  N
  O1       1.0000 0.47380  0.11220  0.16847  Biso   1.000  O
  O2       1.0000 0.52620  0.88780  0.83153  Biso   1.000  O
  O3       1.0000 0.63290  0.25750  0.21335  Biso   1.000  O
  O4       1.0000 0.36710  0.74250  0.78665  Biso   1.000  O
  O5       1.0000 0.22890  0.09950  0.25032  Biso   1.000  O
  O6       1.0000 0.77110  0.90050  0.74968  Biso   1.000  O
  O7       1.0000 0.12800  0.24830  0.35730  Biso   1.000  O
  O8       1.0000 0.87200  0.75170  0.64270  Biso   1.000  O
  O9       1.0000 0.48420  0.90850  0.31750  Biso   1.000  O
  O10      1.0000 0.51580  0.09150  0.68250  Biso   1.000  O
  H47      1.0000 0.56540  0.86250  0.31000  Biso   1.000  H
  H48      1.0000 0.43460  0.13750  0.69000  Biso   1.000  H
  H49      1.0000 0.43210  0.87870  0.35770  Biso   1.000  H
  H50      1.0000 0.56790  0.12130  0.64230  Biso   1.000  H
  O11      1.0000 0.45290  0.13500  0.35280  Biso   1.000  O
  O12      1.0000 0.54710  0.86500  0.64720  Biso   1.000  O
  H51      1.0000 0.47270  0.06080  0.34790  Biso   1.000  H
  H52      1.0000 0.52730  0.93920  0.65210  Biso   1.000  H
  O13      1.0000 0.17890  0.46480  0.24400  Biso   1.000  O
  O14      1.0000 0.82110  0.53520  0.75600  Biso   1.000  O
  H53      1.0000 0.16660  0.51080  0.28350  Biso   1.000  H
  H54      1.0000 0.83340  0.48920  0.71650  Biso   1.000  H
  H55      1.0000 0.10330  0.47890  0.21560  Biso   1.000  H
  H56      1.0000 0.89670  0.52110  0.78440  Biso   1.000  H
  O15      1.0000 0.42810  0.39080  0.11820  Biso   1.000  O
  O16      1.0000 0.57190  0.60920  0.88180  Biso   1.000  O
  H57      1.0000 0.51240  0.40090  0.09730  Biso   1.000  H
  H58      1.0000 0.48760  0.59910  0.90270  Biso   1.000  H
  H59      1.0000 0.36340  0.43010  0.08670  Biso   1.000  H
  H60      1.0000 0.63660  0.56990  0.91330  Biso   1.000  H
  O17      1.0000 0.08960  0.62000  0.36070  Biso   1.000  O
  O18      1.0000 0.91040  0.38000  0.63930  Biso   1.000  O
  H61      1.0000 0.14350  0.65660  0.38520  Biso   1.000  H
  H62      1.0000 0.85650  0.34340  0.61480  Biso   1.000  H
  H63      1.0000 0.00930  0.61700  0.38970  Biso   1.000  H
  H64      1.0000 0.99070  0.38300  0.61030  Biso   1.000  H
  O19      1.0000 0.73860  0.75990  0.28540  Biso   1.000  O
  O20      1.0000 0.26140  0.24010  0.71460  Biso   1.000  O
  H65      1.0000 0.75130  0.69640  0.31880  Biso   1.000  H
  H66      1.0000 0.24870  0.30360  0.68120  Biso   1.000  H
  H67      1.0000 0.75070  0.74280  0.23430  Biso   1.000  H
  H68      1.0000 0.24930  0.25720  0.76570  Biso   1.000  H
