data_image0
_cell_length_a       7.409
_cell_length_b       9.245
_cell_length_c       12.679
_cell_angle_alpha    73.383
_cell_angle_beta     73.796
_cell_angle_gamma    73.199

_symmetry_space_group_name_H-M    "P 1"
_symmetry_int_tables_number       1

loop_
  _symmetry_equiv_pos_as_xyz
  'x, y, z'

loop_
  _atom_site_label
  _atom_site_occupancy
  _atom_site_fract_x
  _atom_site_fract_y
  _atom_site_fract_z
  _atom_site_thermal_displace_type
  _atom_site_B_iso_or_equiv
  _atom_site_type_symbol
  C1       1.0000 0.43050  0.41450  0.67840  Biso   1.000  C
  H1       1.0000 0.32360  0.41460  0.73810  Biso   1.000  H
  C2       1.0000 0.41500  0.40600  0.57620  Biso   1.000  C
  H2       1.0000 0.29690  0.40110  0.56660  Biso   1.000  H
  C3       1.0000 0.57000  0.40440  0.48680  Biso   1.000  C
  H3       1.0000 0.55830  0.39330  0.41860  Biso   1.000  H
  C4       1.0000 0.73700  0.41830  0.49650  Biso   1.000  C
  H4       1.0000 0.84010  0.42220  0.43450  Biso   1.000  H
  C5       1.0000 0.75870  0.42720  0.60080  Biso   1.000  C
  H5       1.0000 0.87690  0.43600  0.60710  Biso   1.000  H
  C6       1.0000 0.60740  0.42330  0.69500  Biso   1.000  C
  C7       1.0000 0.64140  0.42610  0.80340  Biso   1.000  C
  C8       1.0000 0.52210  0.41970  0.00270  Biso   1.000  C
  H6       1.0000 0.61390  0.48240  0.99420  Biso   1.000  H
  C9       1.0000 0.60820  0.24900  0.05710  Biso   1.000  C
  C10      1.0000 0.33010  0.48480  0.07790  Biso   1.000  C
  H7       1.0000 0.25640  0.57220  0.03220  Biso   1.000  H
  H8       1.0000 0.25560  0.40570  0.10870  Biso   1.000  H
  C11      1.0000 0.35920  0.53650  0.17410  Biso   1.000  C
  H9       1.0000 0.24190  0.54240  0.23230  Biso   1.000  H
  H10      1.0000 0.46190  0.46080  0.20670  Biso   1.000  H
  C12      1.0000 0.40990  0.69160  0.13370  Biso   1.000  C
  C13      1.0000 0.35670  0.06030  0.29100  Biso   1.000  C
  H11      1.0000 0.30620  0.14080  0.23620  Biso   1.000  H
  C14      1.0000 0.29620  0.07330  0.40090  Biso   1.000  C
  H12      1.0000 0.21040  0.16290  0.41880  Biso   1.000  H
  C15      1.0000 0.36220  0.95350  0.48570  Biso   1.000  C
  C16      1.0000 0.49250  0.82800  0.45130  Biso   1.000  C
  H13      1.0000 0.54290  0.74540  0.50500  Biso   1.000  H
  C17      1.0000 0.55110  0.82040  0.33990  Biso   1.000  C
  H14      1.0000 0.63830  0.73260  0.31970  Biso   1.000  H
  C18      1.0000 0.30140  0.96500  0.60480  Biso   1.000  C
  C19      1.0000 0.36040  0.84070  0.69020  Biso   1.000  C
  H15      1.0000 0.44280  0.74900  0.67390  Biso   1.000  H
  C20      1.0000 0.29200  0.85880  0.79920  Biso   1.000  C
  H16      1.0000 0.32660  0.77610  0.85750  Biso   1.000  H
  C21      1.0000 0.17700  0.99290  0.82460  Biso   1.000  C
  H17      1.0000 0.13220  0.00510  0.89840  Biso   1.000  H
  C22      1.0000 0.13100  0.10930  0.73520  Biso   1.000  C
  H18      1.0000 0.05350  0.20310  0.75030  Biso   1.000  H
  C23      1.0000 0.62170  0.02100  0.84990  Biso   1.000  C
  H19      1.0000 0.53430  0.10940  0.86900  Biso   1.000  H
  C24      1.0000 0.68000  0.01810  0.73750  Biso   1.000  C
  H20      1.0000 0.63660  0.10320  0.68310  Biso   1.000  H
  C25      1.0000 0.80530  0.88500  0.70680  Biso   1.000  C
  C26      1.0000 0.87050  0.76580  0.79300  Biso   1.000  C
  H21      1.0000 0.95910  0.67660  0.77650  Biso   1.000  H
  H22      1.0000 0.84910  0.97310  0.15630  Biso   1.000  H
  H23      1.0000 0.01910  0.88370  0.10940  Biso   1.000  H
  C27      1.0000 0.80340  0.78100  0.90200  Biso   1.000  C
  H24      1.0000 0.84560  0.69830  0.95820  Biso   1.000  H
  C28      1.0000 0.87870  0.87270  0.58640  Biso   1.000  C
  C29      1.0000 0.82210  0.99550  0.50290  Biso   1.000  C
  H25      1.0000 0.74320  0.08810  0.51970  Biso   1.000  H
  C30      1.0000 0.88300  0.97870  0.39650  Biso   1.000  C
  H26      1.0000 0.84220  0.06000  0.33920  Biso   1.000  H
  C31      1.0000 0.00300  0.84730  0.36960  Biso   1.000  C
  H27      1.0000 0.04730  0.83800  0.29500  Biso   1.000  H
  C32      1.0000 0.05800  0.72910  0.45540  Biso   1.000  C
  H28      1.0000 0.14000  0.63800  0.43770  Biso   1.000  H
  Cu1      1.0000 0.58602  0.92346  0.09553  Biso   1.000  Cu
  N1       1.0000 0.49380  0.42950  0.89260  Biso   1.000  N
  H29      1.0000 0.37970  0.43760  0.88420  Biso   1.000  H
  N2       1.0000 0.48330  0.93910  0.25920  Biso   1.000  N
  N3       1.0000 0.67980  0.90820  0.93340  Biso   1.000  N
  N4       1.0000 0.99940  0.73650  0.56480  Biso   1.000  N
  N5       1.0000 0.19010  0.09810  0.62700  Biso   1.000  N
  O1       1.0000 0.80570  0.41990  0.81110  Biso   1.000  O
  O2       1.0000 0.53240  0.15130  0.04500  Biso   1.000  O
  O3       1.0000 0.73490  0.22050  0.11110  Biso   1.000  O
  O4       1.0000 0.57350  0.70010  0.14230  Biso   1.000  O
  O5       1.0000 0.29450  0.80610  0.09640  Biso   1.000  O
  O6       1.0000 0.89530  0.90490  0.11500  Biso   1.000  O
  H30      1.0000 0.99520  0.42110  0.89490  Biso   1.000  H
  H31      1.0000 0.07990  0.29990  0.97060  Biso   1.000  H
  O7       1.0000 0.09210  0.39030  0.92840  Biso   1.000  O
  H32      1.0000 0.90110  0.38080  0.24940  Biso   1.000  H
  H33      1.0000 0.79920  0.50660  0.18490  Biso   1.000  H
  O8       1.0000 0.87640  0.41460  0.18090  Biso   1.000  O
