data_image0
_cell_length_a       7.7004
_cell_length_b       9.5195
_cell_length_c       11.112
_cell_angle_alpha    79.404
_cell_angle_beta     86.652
_cell_angle_gamma    80.058

_symmetry_space_group_name_H-M    "P 1"
_symmetry_int_tables_number       1

loop_
  _symmetry_equiv_pos_as_xyz
  'x, y, z'

loop_
  _atom_site_label
  _atom_site_occupancy
  _atom_site_fract_x
  _atom_site_fract_y
  _atom_site_fract_z
  _atom_site_thermal_displace_type
  _atom_site_B_iso_or_equiv
  _atom_site_type_symbol
  Cu1      1.0000 0.19701  0.25800  0.22442  Biso   1.000  Cu
  Cu2      1.0000 0.80299  0.74200  0.77558  Biso   1.000  Cu
  C1       1.0000 0.03920  0.99180  0.19840  Biso   1.000  C
  C2       1.0000 0.96080  0.00820  0.80160  Biso   1.000  C
  C3       1.0000 0.90620  0.99330  0.28840  Biso   1.000  C
  C4       1.0000 0.09380  0.00670  0.71160  Biso   1.000  C
  H1       1.0000 0.87750  0.06960  0.33140  Biso   1.000  H
  H2       1.0000 0.12250  0.93040  0.66860  Biso   1.000  H
  C5       1.0000 0.81980  0.87660  0.31040  Biso   1.000  C
  C6       1.0000 0.18020  0.12340  0.68960  Biso   1.000  C
  H3       1.0000 0.73180  0.87220  0.37130  Biso   1.000  H
  H4       1.0000 0.26820  0.12780  0.62870  Biso   1.000  H
  C7       1.0000 0.86130  0.76270  0.24270  Biso   1.000  C
  C8       1.0000 0.13870  0.23730  0.75730  Biso   1.000  C
  H5       1.0000 0.79850  0.68590  0.26050  Biso   1.000  H
  H6       1.0000 0.20150  0.31410  0.73950  Biso   1.000  H
  C9       1.0000 0.98830  0.76020  0.15320  Biso   1.000  C
  C10      1.0000 0.01170  0.23980  0.84680  Biso   1.000  C
  H7       1.0000 0.01270  0.68540  0.10830  Biso   1.000  H
  H8       1.0000 0.98730  0.31460  0.89170  Biso   1.000  H
  C11      1.0000 0.08070  0.87790  0.13240  Biso   1.000  C
  C12      1.0000 0.91930  0.12210  0.86760  Biso   1.000  C
  C13      1.0000 0.33740  0.81920  0.98500  Biso   1.000  C
  C14      1.0000 0.66260  0.18080  0.01500  Biso   1.000  C
  H9       1.0000 0.38860  0.88000  0.91730  Biso   1.000  H
  H10      1.0000 0.61140  0.12000  0.08270  Biso   1.000  H
  H11      1.0000 0.26940  0.75950  0.95140  Biso   1.000  H
  H12      1.0000 0.73060  0.24050  0.04860  Biso   1.000  H
  C15      1.0000 0.48290  0.72320  0.06130  Biso   1.000  C
  C16      1.0000 0.51710  0.27680  0.93870  Biso   1.000  C
  H13      1.0000 0.56350  0.66950  0.00910  Biso   1.000  H
  H14      1.0000 0.43650  0.33050  0.99090  Biso   1.000  H
  H15      1.0000 0.54860  0.78300  0.09670  Biso   1.000  H
  H16      1.0000 0.45140  0.21700  0.90330  Biso   1.000  H
  C17      1.0000 0.37320  0.63300  0.27890  Biso   1.000  C
  C18      1.0000 0.62680  0.36700  0.72110  Biso   1.000  C
  C19      1.0000 0.38920  0.73870  0.34800  Biso   1.000  C
  C20      1.0000 0.61080  0.26130  0.65200  Biso   1.000  C
  H17      1.0000 0.43790  0.82090  0.31540  Biso   1.000  H
  H18      1.0000 0.56210  0.17910  0.68460  Biso   1.000  H
  C21      1.0000 0.32820  0.71280  0.46650  Biso   1.000  C
  C22      1.0000 0.67180  0.28720  0.53350  Biso   1.000  C
  H19      1.0000 0.33560  0.77990  0.51640  Biso   1.000  H
  H20      1.0000 0.66440  0.22010  0.48360  Biso   1.000  H
  C23      1.0000 0.25460  0.58860  0.51600  Biso   1.000  C
  C24      1.0000 0.74540  0.41140  0.48400  Biso   1.000  C
  H21      1.0000 0.21830  0.57470  0.59800  Biso   1.000  H
  H22      1.0000 0.78170  0.42530  0.40200  Biso   1.000  H
  C25      1.0000 0.23490  0.48690  0.44650  Biso   1.000  C
  C26      1.0000 0.76510  0.51310  0.55350  Biso   1.000  C
  H23      1.0000 0.18290  0.40620  0.47850  Biso   1.000  H
  H24      1.0000 0.81710  0.59380  0.52150  Biso   1.000  H
  C27      1.0000 0.29700  0.51160  0.32620  Biso   1.000  C
  C28      1.0000 0.70300  0.48840  0.67380  Biso   1.000  C
  Cl1      1.0000 0.93213  0.38102  0.16815  Biso   1.000  Cl
  Cl2      1.0000 0.06787  0.61898  0.83185  Biso   1.000  Cl
  Cl3      1.0000 0.39500  0.12340  0.35137  Biso   1.000  Cl
  Cl4      1.0000 0.60500  0.87660  0.64863  Biso   1.000  Cl
  N1       1.0000 0.15830  0.08470  0.16010  Biso   1.000  N
  N2       1.0000 0.84170  0.91530  0.83990  Biso   1.000  N
  N3       1.0000 0.26790  0.03450  0.07690  Biso   1.000  N
  N4       1.0000 0.73210  0.96550  0.92310  Biso   1.000  N
  N5       1.0000 0.22140  0.91020  0.05850  Biso   1.000  N
  N6       1.0000 0.77860  0.08980  0.94150  Biso   1.000  N
  N7       1.0000 0.29380  0.43630  0.23190  Biso   1.000  N
  N8       1.0000 0.70620  0.56370  0.76810  Biso   1.000  N
  N9       1.0000 0.36250  0.50320  0.13210  Biso   1.000  N
  N10      1.0000 0.63750  0.49680  0.86790  Biso   1.000  N
  N11      1.0000 0.41320  0.62200  0.15890  Biso   1.000  N
  N12      1.0000 0.58680  0.37800  0.84110  Biso   1.000  N
