data_image0
_cell_length_a       9.615
_cell_length_b       22.5
_cell_length_c       14.261
_cell_angle_alpha    90
_cell_angle_beta     95.527
_cell_angle_gamma    90

_symmetry_space_group_name_H-M    "P 1"
_symmetry_int_tables_number       1

loop_
  _symmetry_equiv_pos_as_xyz
  'x, y, z'

loop_
  _atom_site_label
  _atom_site_occupancy
  _atom_site_fract_x
  _atom_site_fract_y
  _atom_site_fract_z
  _atom_site_thermal_displace_type
  _atom_site_B_iso_or_equiv
  _atom_site_type_symbol
  Cu1      1.0000 0.09312  0.16075  0.49904  Biso   1.000  Cu
  Cu2      1.0000 0.90688  0.66075  0.00096  Biso   1.000  Cu
  Cu3      1.0000 0.90688  0.83925  0.50096  Biso   1.000  Cu
  Cu4      1.0000 0.09312  0.33925  0.99904  Biso   1.000  Cu
  Na1      1.0000 0.99653  0.13740  0.71338  Biso   1.000  Na
  Na2      1.0000 0.00347  0.63740  0.78662  Biso   1.000  Na
  Na3      1.0000 0.00347  0.86260  0.28662  Biso   1.000  Na
  Na4      1.0000 0.99653  0.36260  0.21338  Biso   1.000  Na
  O1       1.0000 0.11090  0.09943  0.59204  Biso   1.000  O
  O2       1.0000 0.88910  0.59943  0.90796  Biso   1.000  O
  O3       1.0000 0.88910  0.90057  0.40796  Biso   1.000  O
  O4       1.0000 0.11090  0.40057  0.09204  Biso   1.000  O
  O5       1.0000 0.01090  0.20598  0.58989  Biso   1.000  O
  O6       1.0000 0.98910  0.70598  0.91011  Biso   1.000  O
  O7       1.0000 0.98910  0.79402  0.41011  Biso   1.000  O
  O8       1.0000 0.01090  0.29402  0.08989  Biso   1.000  O
  O9       1.0000 0.09490  0.03012  0.73290  Biso   1.000  O
  O10      1.0000 0.90510  0.53012  0.76710  Biso   1.000  O
  O11      1.0000 0.90510  0.96988  0.26710  Biso   1.000  O
  O12      1.0000 0.09490  0.46988  0.23290  Biso   1.000  O
  O13      1.0000 0.05820  0.31586  0.35000  Biso   1.000  O
  O14      1.0000 0.94180  0.81586  0.15000  Biso   1.000  O
  O15      1.0000 0.94180  0.68414  0.65000  Biso   1.000  O
  O16      1.0000 0.05820  0.18414  0.85000  Biso   1.000  O
  O17      1.0000 0.76380  0.11280  0.72220  Biso   1.000  O
  O18      1.0000 0.23620  0.61280  0.77780  Biso   1.000  O
  O19      1.0000 0.23620  0.88720  0.27780  Biso   1.000  O
  O20      1.0000 0.76380  0.38720  0.22220  Biso   1.000  O
  N1       1.0000 0.16330  0.11081  0.40320  Biso   1.000  N
  N2       1.0000 0.83670  0.61081  0.09680  Biso   1.000  N
  N3       1.0000 0.83670  0.88919  0.59680  Biso   1.000  N
  N4       1.0000 0.16330  0.38919  0.90320  Biso   1.000  N
  N5       1.0000 0.09510  0.22266  0.40840  Biso   1.000  N
  N6       1.0000 0.90490  0.72266  0.09160  Biso   1.000  N
  N7       1.0000 0.90490  0.77734  0.59160  Biso   1.000  N
  N8       1.0000 0.09510  0.27734  0.90840  Biso   1.000  N
  N9       1.0000 0.53430  0.10315  0.73980  Biso   1.000  N
  N10      1.0000 0.46570  0.60315  0.76020  Biso   1.000  N
  N11      1.0000 0.46570  0.89685  0.26020  Biso   1.000  N
  N12      1.0000 0.53430  0.39685  0.23980  Biso   1.000  N
  C1       1.0000 0.94690  0.25741  0.57170  Biso   1.000  C
  C2       1.0000 0.05310  0.75741  0.92830  Biso   1.000  C
  C3       1.0000 0.05310  0.74259  0.42830  Biso   1.000  C
  C4       1.0000 0.94690  0.24259  0.07170  Biso   1.000  C
  C5       1.0000 0.86290  0.27886  0.63990  Biso   1.000  C
  C6       1.0000 0.13710  0.77886  0.86010  Biso   1.000  C
  C7       1.0000 0.13710  0.72114  0.36010  Biso   1.000  C
  C8       1.0000 0.86290  0.22114  0.13990  Biso   1.000  C
  C9       1.0000 0.79020  0.33123  0.62780  Biso   1.000  C
  C10      1.0000 0.20980  0.83123  0.87220  Biso   1.000  C
  C11      1.0000 0.20980  0.66877  0.37220  Biso   1.000  C
  C12      1.0000 0.79020  0.16877  0.12780  Biso   1.000  C
  C13      1.0000 0.80020  0.36505  0.54870  Biso   1.000  C
  C14      1.0000 0.19980  0.86505  0.95130  Biso   1.000  C
  C15      1.0000 0.19980  0.63495  0.45130  Biso   1.000  C
  C16      1.0000 0.80020  0.13495  0.04870  Biso   1.000  C
  C17      1.0000 0.88240  0.34565  0.48210  Biso   1.000  C
  C18      1.0000 0.11760  0.84565  0.01790  Biso   1.000  C
  C19      1.0000 0.11760  0.65435  0.51790  Biso   1.000  C
  C20      1.0000 0.88240  0.15435  0.98210  Biso   1.000  C
  C21      1.0000 0.95810  0.29239  0.49060  Biso   1.000  C
  C22      1.0000 0.04190  0.79239  0.00940  Biso   1.000  C
  C23      1.0000 0.04190  0.70761  0.50940  Biso   1.000  C
  C24      1.0000 0.95810  0.20761  0.99060  Biso   1.000  C
  C25      1.0000 0.04250  0.27743  0.41090  Biso   1.000  C
  C26      1.0000 0.95750  0.77743  0.08910  Biso   1.000  C
  C27      1.0000 0.95750  0.72257  0.58910  Biso   1.000  C
  C28      1.0000 0.04250  0.22257  0.91090  Biso   1.000  C
  C29      1.0000 0.17750  0.20834  0.33050  Biso   1.000  C
  C30      1.0000 0.82250  0.70834  0.16950  Biso   1.000  C
  C31      1.0000 0.82250  0.79166  0.66950  Biso   1.000  C
  C32      1.0000 0.17750  0.29166  0.83050  Biso   1.000  C
  C33      1.0000 0.33000  0.22555  0.34820  Biso   1.000  C
  C34      1.0000 0.67000  0.72555  0.15180  Biso   1.000  C
  C35      1.0000 0.67000  0.77445  0.65180  Biso   1.000  C
  C36      1.0000 0.33000  0.27445  0.84820  Biso   1.000  C
  C37      1.0000 0.39870  0.22688  0.43690  Biso   1.000  C
  C38      1.0000 0.60130  0.72688  0.06310  Biso   1.000  C
  C39      1.0000 0.60130  0.77312  0.56310  Biso   1.000  C
  C40      1.0000 0.39870  0.27312  0.93690  Biso   1.000  C
  C41      1.0000 0.54300  0.23840  0.44820  Biso   1.000  C
  C42      1.0000 0.45700  0.73840  0.05180  Biso   1.000  C
  C43      1.0000 0.45700  0.76160  0.55180  Biso   1.000  C
  C44      1.0000 0.54300  0.26160  0.94820  Biso   1.000  C
  C45      1.0000 0.61460  0.24790  0.37100  Biso   1.000  C
  C46      1.0000 0.38540  0.74790  0.12900  Biso   1.000  C
  C47      1.0000 0.38540  0.75210  0.62900  Biso   1.000  C
  C48      1.0000 0.61460  0.25210  0.87100  Biso   1.000  C
  C49      1.0000 0.54570  0.24770  0.28480  Biso   1.000  C
  C50      1.0000 0.45430  0.74770  0.21520  Biso   1.000  C
  C51      1.0000 0.45430  0.75230  0.71520  Biso   1.000  C
  C52      1.0000 0.54570  0.25230  0.78480  Biso   1.000  C
  C53      1.0000 0.40420  0.23730  0.27280  Biso   1.000  C
  C54      1.0000 0.59580  0.73730  0.22720  Biso   1.000  C
  C55      1.0000 0.59580  0.76270  0.72720  Biso   1.000  C
  C56      1.0000 0.40420  0.26270  0.77280  Biso   1.000  C
  C57      1.0000 0.15770  0.14095  0.31090  Biso   1.000  C
  C58      1.0000 0.84230  0.64095  0.18910  Biso   1.000  C
  C59      1.0000 0.84230  0.85905  0.68910  Biso   1.000  C
  C60      1.0000 0.15770  0.35905  0.81090  Biso   1.000  C
  C61      1.0000 0.25070  0.11690  0.24110  Biso   1.000  C
  C62      1.0000 0.74930  0.61690  0.25890  Biso   1.000  C
  C63      1.0000 0.74930  0.88310  0.75890  Biso   1.000  C
  C64      1.0000 0.25070  0.38310  0.74110  Biso   1.000  C
  C65      1.0000 0.38300  0.09486  0.26560  Biso   1.000  C
  C66      1.0000 0.61700  0.59486  0.23440  Biso   1.000  C
  C67      1.0000 0.61700  0.90514  0.73440  Biso   1.000  C
  C68      1.0000 0.38300  0.40514  0.76560  Biso   1.000  C
  C69      1.0000 0.46590  0.07700  0.19700  Biso   1.000  C
  C70      1.0000 0.53410  0.57700  0.30300  Biso   1.000  C
  C71      1.0000 0.53410  0.92300  0.80300  Biso   1.000  C
  C72      1.0000 0.46590  0.42300  0.69700  Biso   1.000  C
  C73      1.0000 0.41930  0.08190  0.10460  Biso   1.000  C
  C74      1.0000 0.58070  0.58190  0.39540  Biso   1.000  C
  C75      1.0000 0.58070  0.91810  0.89540  Biso   1.000  C
  C76      1.0000 0.41930  0.41810  0.60460  Biso   1.000  C
  C77      1.0000 0.29060  0.10480  0.07890  Biso   1.000  C
  C78      1.0000 0.70940  0.60480  0.42110  Biso   1.000  C
  C79      1.0000 0.70940  0.89520  0.92110  Biso   1.000  C
  C80      1.0000 0.29060  0.39520  0.57890  Biso   1.000  C
  C81      1.0000 0.20520  0.12090  0.14720  Biso   1.000  C
  C82      1.0000 0.79480  0.62090  0.35280  Biso   1.000  C
  C83      1.0000 0.79480  0.87910  0.85280  Biso   1.000  C
  C84      1.0000 0.20520  0.37910  0.64720  Biso   1.000  C
  C85      1.0000 0.18470  0.05427  0.41080  Biso   1.000  C
  C86      1.0000 0.81530  0.55427  0.08920  Biso   1.000  C
  C87      1.0000 0.81530  0.94573  0.58920  Biso   1.000  C
  C88      1.0000 0.18470  0.44573  0.91080  Biso   1.000  C
  C89      1.0000 0.18370  0.02015  0.49410  Biso   1.000  C
  C90      1.0000 0.81630  0.52015  0.00590  Biso   1.000  C
  C91      1.0000 0.81630  0.97985  0.50590  Biso   1.000  C
  C92      1.0000 0.18370  0.47985  0.99410  Biso   1.000  C
  C93      1.0000 0.21750  0.95899  0.48970  Biso   1.000  C
  C94      1.0000 0.78250  0.45899  0.01030  Biso   1.000  C
  C95      1.0000 0.78250  0.04101  0.51030  Biso   1.000  C
  C96      1.0000 0.21750  0.54101  0.98970  Biso   1.000  C
  C97      1.0000 0.21840  0.92350  0.56490  Biso   1.000  C
  C98      1.0000 0.78160  0.42350  0.93510  Biso   1.000  C
  C99      1.0000 0.78160  0.07650  0.43510  Biso   1.000  C
  C100     1.0000 0.21840  0.57650  0.06490  Biso   1.000  C
  C101     1.0000 0.17870  0.94530  0.64850  Biso   1.000  C
  C102     1.0000 0.82130  0.44530  0.85150  Biso   1.000  C
  C103     1.0000 0.82130  0.05470  0.35150  Biso   1.000  C
  C104     1.0000 0.17870  0.55470  0.14850  Biso   1.000  C
  C105     1.0000 0.14110  0.00430  0.65490  Biso   1.000  C
  C106     1.0000 0.85890  0.50430  0.84510  Biso   1.000  C
  C107     1.0000 0.85890  0.99570  0.34510  Biso   1.000  C
  C108     1.0000 0.14110  0.49570  0.15490  Biso   1.000  C
  C109     1.0000 0.14390  0.04347  0.57840  Biso   1.000  C
  C110     1.0000 0.85610  0.54347  0.92160  Biso   1.000  C
  C111     1.0000 0.85610  0.95653  0.42160  Biso   1.000  C
  C112     1.0000 0.14390  0.45653  0.07840  Biso   1.000  C
  C113     1.0000 0.09080  0.99330  0.81450  Biso   1.000  C
  C114     1.0000 0.90920  0.49330  0.68550  Biso   1.000  C
  C115     1.0000 0.90920  0.00670  0.18550  Biso   1.000  C
  C116     1.0000 0.09080  0.50670  0.31450  Biso   1.000  C
  C117     1.0000 0.03200  0.02170  0.88020  Biso   1.000  C
  C118     1.0000 0.96800  0.52170  0.61980  Biso   1.000  C
  C119     1.0000 0.96800  0.97830  0.11980  Biso   1.000  C
  C120     1.0000 0.03200  0.47830  0.38020  Biso   1.000  C
  C121     1.0000 0.66540  0.10720  0.76770  Biso   1.000  C
  C122     1.0000 0.33460  0.60720  0.73230  Biso   1.000  C
  C123     1.0000 0.33460  0.89280  0.23230  Biso   1.000  C
  C124     1.0000 0.66540  0.39280  0.26770  Biso   1.000  C
  C125     1.0000 0.48620  0.10520  0.64300  Biso   1.000  C
  C126     1.0000 0.51380  0.60520  0.85700  Biso   1.000  C
  C127     1.0000 0.51380  0.89480  0.35700  Biso   1.000  C
  C128     1.0000 0.48620  0.39480  0.14300  Biso   1.000  C
  C129     1.0000 0.42570  0.09950  0.80350  Biso   1.000  C
  C130     1.0000 0.57430  0.59950  0.69650  Biso   1.000  C
  C131     1.0000 0.57430  0.90050  0.19650  Biso   1.000  C
  C132     1.0000 0.42570  0.40050  0.30350  Biso   1.000  C
  H1       1.0000 0.85630  0.25650  0.69580  Biso   1.000  H
  H2       1.0000 0.14370  0.75650  0.80420  Biso   1.000  H
  H3       1.0000 0.14370  0.74350  0.30420  Biso   1.000  H
  H4       1.0000 0.85630  0.24350  0.19580  Biso   1.000  H
  H5       1.0000 0.73280  0.34410  0.67440  Biso   1.000  H
  H6       1.0000 0.26720  0.84410  0.82560  Biso   1.000  H
  H7       1.0000 0.26720  0.65590  0.32560  Biso   1.000  H
  H8       1.0000 0.73280  0.15590  0.17440  Biso   1.000  H
  H9       1.0000 0.75080  0.40150  0.54060  Biso   1.000  H
  H10      1.0000 0.24920  0.90150  0.95940  Biso   1.000  H
  H11      1.0000 0.24920  0.59850  0.45940  Biso   1.000  H
  H12      1.0000 0.75080  0.09850  0.04060  Biso   1.000  H
  H13      1.0000 0.88830  0.36930  0.42740  Biso   1.000  H
  H14      1.0000 0.11170  0.86930  0.07260  Biso   1.000  H
  H15      1.0000 0.11170  0.63070  0.57260  Biso   1.000  H
  H16      1.0000 0.88830  0.13070  0.92740  Biso   1.000  H
  H17      1.0000 0.23980  0.94260  0.43160  Biso   1.000  H
  H18      1.0000 0.76020  0.44260  0.06840  Biso   1.000  H
  H19      1.0000 0.76020  0.05740  0.56840  Biso   1.000  H
  H20      1.0000 0.23980  0.55740  0.93160  Biso   1.000  H
  H21      1.0000 0.24690  0.88320  0.56080  Biso   1.000  H
  H22      1.0000 0.75310  0.38320  0.93920  Biso   1.000  H
  H23      1.0000 0.75310  0.11680  0.43920  Biso   1.000  H
  H24      1.0000 0.24690  0.61680  0.06080  Biso   1.000  H
  H25      1.0000 0.17690  0.91990  0.70150  Biso   1.000  H
  H26      1.0000 0.82310  0.41990  0.79850  Biso   1.000  H
  H27      1.0000 0.82310  0.08010  0.29850  Biso   1.000  H
  H28      1.0000 0.17690  0.58010  0.20150  Biso   1.000  H
  H29      1.0000 0.20310  0.03370  0.35520  Biso   1.000  H
  H30      1.0000 0.79690  0.53370  0.14480  Biso   1.000  H
  H31      1.0000 0.79690  0.96630  0.64480  Biso   1.000  H
  H32      1.0000 0.20310  0.46630  0.85520  Biso   1.000  H
  H33      1.0000 0.13860  0.22930  0.27640  Biso   1.000  H
  H34      1.0000 0.86140  0.72930  0.22360  Biso   1.000  H
  H35      1.0000 0.86140  0.77070  0.72360  Biso   1.000  H
  H36      1.0000 0.13860  0.27070  0.77640  Biso   1.000  H
  H37      1.0000 0.06470  0.13640  0.28280  Biso   1.000  H
  H38      1.0000 0.93530  0.63640  0.21720  Biso   1.000  H
  H39      1.0000 0.93530  0.86360  0.71720  Biso   1.000  H
  H40      1.0000 0.06470  0.36360  0.78280  Biso   1.000  H
  H41      1.0000 0.34930  0.22010  0.49050  Biso   1.000  H
  H42      1.0000 0.65070  0.72010  0.00950  Biso   1.000  H
  H43      1.0000 0.65070  0.77990  0.50950  Biso   1.000  H
  H44      1.0000 0.34930  0.27990  0.99050  Biso   1.000  H
  H45      1.0000 0.59140  0.23940  0.50940  Biso   1.000  H
  H46      1.0000 0.40860  0.73940  0.99060  Biso   1.000  H
  H47      1.0000 0.40860  0.76060  0.49060  Biso   1.000  H
  H48      1.0000 0.59140  0.26060  0.00940  Biso   1.000  H
  H49      1.0000 0.71260  0.25470  0.37830  Biso   1.000  H
  H50      1.0000 0.28740  0.75470  0.12170  Biso   1.000  H
  H51      1.0000 0.28740  0.74530  0.62170  Biso   1.000  H
  H52      1.0000 0.71260  0.24530  0.87830  Biso   1.000  H
  H53      1.0000 0.59500  0.25490  0.23130  Biso   1.000  H
  H54      1.0000 0.40500  0.75490  0.26870  Biso   1.000  H
  H55      1.0000 0.40500  0.74510  0.76870  Biso   1.000  H
  H56      1.0000 0.59500  0.24510  0.73130  Biso   1.000  H
  H57      1.0000 0.35680  0.23820  0.21120  Biso   1.000  H
  H58      1.0000 0.64320  0.73820  0.28880  Biso   1.000  H
  H59      1.0000 0.64320  0.76180  0.78880  Biso   1.000  H
  H60      1.0000 0.35680  0.26180  0.71120  Biso   1.000  H
  H61      1.0000 0.41740  0.09200  0.33020  Biso   1.000  H
  H62      1.0000 0.58260  0.59200  0.16980  Biso   1.000  H
  H63      1.0000 0.58260  0.90800  0.66980  Biso   1.000  H
  H64      1.0000 0.41740  0.40800  0.83020  Biso   1.000  H
  H65      1.0000 0.55600  0.06090  0.21470  Biso   1.000  H
  H66      1.0000 0.44400  0.56090  0.28530  Biso   1.000  H
  H67      1.0000 0.44400  0.93910  0.78530  Biso   1.000  H
  H68      1.0000 0.55600  0.43910  0.71470  Biso   1.000  H
  H69      1.0000 0.47690  0.06950  0.05770  Biso   1.000  H
  H70      1.0000 0.52310  0.56950  0.44230  Biso   1.000  H
  H71      1.0000 0.52310  0.93050  0.94230  Biso   1.000  H
  H72      1.0000 0.47690  0.43050  0.55770  Biso   1.000  H
  H73      1.0000 0.25940  0.10970  0.01410  Biso   1.000  H
  H74      1.0000 0.74060  0.60970  0.48590  Biso   1.000  H
  H75      1.0000 0.74060  0.89030  0.98590  Biso   1.000  H
  H76      1.0000 0.25940  0.39030  0.51410  Biso   1.000  H
  H77      1.0000 0.11340  0.13490  0.12860  Biso   1.000  H
  H78      1.0000 0.88660  0.63490  0.37140  Biso   1.000  H
  H79      1.0000 0.88660  0.86510  0.87140  Biso   1.000  H
  H80      1.0000 0.11340  0.36510  0.62860  Biso   1.000  H
  H81      1.0000 0.03830  0.95840  0.79780  Biso   1.000  H
  H82      1.0000 0.96170  0.45840  0.70220  Biso   1.000  H
  H83      1.0000 0.96170  0.04160  0.20220  Biso   1.000  H
  H84      1.0000 0.03830  0.54160  0.29780  Biso   1.000  H
  H85      1.0000 0.18330  0.98240  0.83760  Biso   1.000  H
  H86      1.0000 0.81670  0.48240  0.66240  Biso   1.000  H
  H87      1.0000 0.81670  0.01760  0.16240  Biso   1.000  H
  H88      1.0000 0.18330  0.51760  0.33760  Biso   1.000  H
  H89      1.0000 0.10140  0.04300  0.91860  Biso   1.000  H
  H90      1.0000 0.89860  0.54300  0.58140  Biso   1.000  H
  H91      1.0000 0.89860  0.95700  0.08140  Biso   1.000  H
  H92      1.0000 0.10140  0.45700  0.41860  Biso   1.000  H
  H93      1.0000 0.98740  0.99410  0.91790  Biso   1.000  H
  H94      1.0000 0.01260  0.49410  0.58210  Biso   1.000  H
  H95      1.0000 0.01260  0.00590  0.08210  Biso   1.000  H
  H96      1.0000 0.98740  0.50590  0.41790  Biso   1.000  H
  H97      1.0000 0.96470  0.04880  0.85200  Biso   1.000  H
  H98      1.0000 0.03530  0.54880  0.64800  Biso   1.000  H
  H99      1.0000 0.03530  0.95120  0.14800  Biso   1.000  H
  H100     1.0000 0.96470  0.45120  0.35200  Biso   1.000  H
  H101     1.0000 0.46650  0.14520  0.62480  Biso   1.000  H
  H102     1.0000 0.53350  0.64520  0.87520  Biso   1.000  H
  H103     1.0000 0.53350  0.85480  0.37520  Biso   1.000  H
  H104     1.0000 0.46650  0.35480  0.12480  Biso   1.000  H
  H105     1.0000 0.40370  0.08210  0.63190  Biso   1.000  H
  H106     1.0000 0.59630  0.58210  0.86810  Biso   1.000  H
  H107     1.0000 0.59630  0.91790  0.36810  Biso   1.000  H
  H108     1.0000 0.40370  0.41790  0.13190  Biso   1.000  H
  H109     1.0000 0.55620  0.08970  0.60710  Biso   1.000  H
  H110     1.0000 0.44380  0.58970  0.89290  Biso   1.000  H
  H111     1.0000 0.44380  0.91030  0.39290  Biso   1.000  H
  H112     1.0000 0.55620  0.41030  0.10710  Biso   1.000  H
  H113     1.0000 0.40840  0.05900  0.81720  Biso   1.000  H
  H114     1.0000 0.59160  0.55900  0.68280  Biso   1.000  H
  H115     1.0000 0.59160  0.94100  0.18280  Biso   1.000  H
  H116     1.0000 0.40840  0.44100  0.31720  Biso   1.000  H
  H117     1.0000 0.34250  0.11720  0.77480  Biso   1.000  H
  H118     1.0000 0.65750  0.61720  0.72520  Biso   1.000  H
  H119     1.0000 0.65750  0.88280  0.22520  Biso   1.000  H
  H120     1.0000 0.34250  0.38280  0.27480  Biso   1.000  H
  H121     1.0000 0.45520  0.12000  0.86020  Biso   1.000  H
  H122     1.0000 0.54480  0.62000  0.63980  Biso   1.000  H
  H123     1.0000 0.54480  0.88000  0.13980  Biso   1.000  H
  H124     1.0000 0.45520  0.38000  0.36020  Biso   1.000  H
  H125     1.0000 0.68780  0.10590  0.83400  Biso   1.000  H
  H126     1.0000 0.31220  0.60590  0.66600  Biso   1.000  H
  H127     1.0000 0.31220  0.89410  0.16600  Biso   1.000  H
  H128     1.0000 0.68780  0.39410  0.33400  Biso   1.000  H
