data_image0
_cell_length_a       14.876
_cell_length_b       21.275
_cell_length_c       15.392
_cell_angle_alpha    90
_cell_angle_beta     112.226
_cell_angle_gamma    90

_symmetry_space_group_name_H-M    "P 1"
_symmetry_int_tables_number       1

loop_
  _symmetry_equiv_pos_as_xyz
  'x, y, z'

loop_
  _atom_site_label
  _atom_site_occupancy
  _atom_site_fract_x
  _atom_site_fract_y
  _atom_site_fract_z
  _atom_site_thermal_displace_type
  _atom_site_B_iso_or_equiv
  _atom_site_type_symbol
  Cu1      1.0000 0.31681  0.19292  0.34237  Biso   1.000  Cu
  Cu2      1.0000 0.18319  0.69292  0.15763  Biso   1.000  Cu
  Cu3      1.0000 0.68319  0.80708  0.65763  Biso   1.000  Cu
  Cu4      1.0000 0.81681  0.30708  0.84237  Biso   1.000  Cu
  Cu5      1.0000 0.79421  0.72161  0.42160  Biso   1.000  Cu
  Cu6      1.0000 0.70579  0.22161  0.07840  Biso   1.000  Cu
  Cu7      1.0000 0.20579  0.27839  0.57840  Biso   1.000  Cu
  Cu8      1.0000 0.29421  0.77839  0.92160  Biso   1.000  Cu
  C1       1.0000 0.35080  0.31812  0.34970  Biso   1.000  C
  C2       1.0000 0.14920  0.81812  0.15030  Biso   1.000  C
  C3       1.0000 0.64920  0.68188  0.65030  Biso   1.000  C
  C4       1.0000 0.85080  0.18188  0.84970  Biso   1.000  C
  C5       1.0000 0.41980  0.37370  0.35440  Biso   1.000  C
  C6       1.0000 0.08020  0.87370  0.14560  Biso   1.000  C
  C7       1.0000 0.58020  0.62630  0.64560  Biso   1.000  C
  C8       1.0000 0.91980  0.12630  0.85440  Biso   1.000  C
  C9       1.0000 0.38670  0.43180  0.36380  Biso   1.000  C
  C10      1.0000 0.11330  0.93180  0.13620  Biso   1.000  C
  C11      1.0000 0.61330  0.56820  0.63620  Biso   1.000  C
  C12      1.0000 0.88670  0.06820  0.86380  Biso   1.000  C
  H1       1.0000 0.32490  0.43580  0.36500  Biso   1.000  H
  H2       1.0000 0.17510  0.93580  0.13500  Biso   1.000  H
  H3       1.0000 0.67510  0.56420  0.63500  Biso   1.000  H
  H4       1.0000 0.82490  0.06420  0.86500  Biso   1.000  H
  C13      1.0000 0.41020  0.54820  0.38500  Biso   1.000  C
  C14      1.0000 0.08980  0.04820  0.11500  Biso   1.000  C
  C15      1.0000 0.58980  0.45180  0.61500  Biso   1.000  C
  C16      1.0000 0.91020  0.95180  0.88500  Biso   1.000  C
  C17      1.0000 0.44410  0.48650  0.37190  Biso   1.000  C
  C18      1.0000 0.05590  0.98650  0.12810  Biso   1.000  C
  C19      1.0000 0.55590  0.51350  0.62810  Biso   1.000  C
  C20      1.0000 0.94410  0.01350  0.87190  Biso   1.000  C
  C21      1.0000 0.46740  0.60110  0.39970  Biso   1.000  C
  C22      1.0000 0.03260  0.10110  0.10030  Biso   1.000  C
  C23      1.0000 0.53260  0.39890  0.60030  Biso   1.000  C
  C24      1.0000 0.96740  0.89890  0.89970  Biso   1.000  C
  H5       1.0000 0.44450  0.63960  0.41130  Biso   1.000  H
  H6       1.0000 0.05550  0.13960  0.08870  Biso   1.000  H
  H7       1.0000 0.55550  0.36040  0.58870  Biso   1.000  H
  H8       1.0000 0.94450  0.86040  0.91130  Biso   1.000  H
  C25      1.0000 0.55880  0.59670  0.39730  Biso   1.000  C
  C26      1.0000 0.94120  0.09670  0.10270  Biso   1.000  C
  C27      1.0000 0.44120  0.40330  0.60270  Biso   1.000  C
  C28      1.0000 0.05880  0.90330  0.89730  Biso   1.000  C
  C29      1.0000 0.63210  0.65063  0.41300  Biso   1.000  C
  C30      1.0000 0.86790  0.15063  0.08700  Biso   1.000  C
  C31      1.0000 0.36790  0.34937  0.58700  Biso   1.000  C
  C32      1.0000 0.13210  0.84937  0.91300  Biso   1.000  C
  C33      1.0000 0.59590  0.53950  0.38360  Biso   1.000  C
  C34      1.0000 0.90410  0.03950  0.11640  Biso   1.000  C
  C35      1.0000 0.40410  0.46050  0.61640  Biso   1.000  C
  C36      1.0000 0.09590  0.96050  0.88360  Biso   1.000  C
  H9       1.0000 0.65790  0.53760  0.38240  Biso   1.000  H
  H10      1.0000 0.84210  0.03760  0.11760  Biso   1.000  H
  H11      1.0000 0.34210  0.46240  0.61760  Biso   1.000  H
  H12      1.0000 0.15790  0.96240  0.88240  Biso   1.000  H
  C37      1.0000 0.56980  0.42110  0.35770  Biso   1.000  C
  C38      1.0000 0.93020  0.92110  0.14230  Biso   1.000  C
  C39      1.0000 0.43020  0.57890  0.64230  Biso   1.000  C
  C40      1.0000 0.06980  0.07890  0.85770  Biso   1.000  C
  C41      1.0000 0.53900  0.48320  0.37130  Biso   1.000  C
  C42      1.0000 0.96100  0.98320  0.12870  Biso   1.000  C
  C43      1.0000 0.46100  0.51680  0.62870  Biso   1.000  C
  C44      1.0000 0.03900  0.01680  0.87130  Biso   1.000  C
  C45      1.0000 0.51470  0.36910  0.35150  Biso   1.000  C
  C46      1.0000 0.98530  0.86910  0.14850  Biso   1.000  C
  C47      1.0000 0.48530  0.63090  0.64850  Biso   1.000  C
  C48      1.0000 0.01470  0.13090  0.85150  Biso   1.000  C
  H13      1.0000 0.53900  0.32980  0.34530  Biso   1.000  H
  H14      1.0000 0.96100  0.82980  0.15470  Biso   1.000  H
  H15      1.0000 0.46100  0.67020  0.65470  Biso   1.000  H
  H16      1.0000 0.03900  0.17020  0.84530  Biso   1.000  H
  C49      1.0000 0.14630  0.13360  0.33360  Biso   1.000  C
  C50      1.0000 0.35370  0.63360  0.16640  Biso   1.000  C
  C51      1.0000 0.85370  0.86640  0.66640  Biso   1.000  C
  C52      1.0000 0.64630  0.36640  0.83360  Biso   1.000  C
  C53      1.0000 0.10470  0.06880  0.34780  Biso   1.000  C
  C54      1.0000 0.39530  0.56880  0.15220  Biso   1.000  C
  C55      1.0000 0.89530  0.93120  0.65220  Biso   1.000  C
  C56      1.0000 0.60470  0.43120  0.84780  Biso   1.000  C
  C57      1.0000 0.15240  0.01000  0.36140  Biso   1.000  C
  C58      1.0000 0.34760  0.51000  0.13860  Biso   1.000  C
  C59      1.0000 0.84760  0.99000  0.63860  Biso   1.000  C
  C60      1.0000 0.65240  0.49000  0.86140  Biso   1.000  C
  H17      1.0000 0.21470  0.00750  0.36110  Biso   1.000  H
  H18      1.0000 0.28530  0.50750  0.13890  Biso   1.000  H
  H19      1.0000 0.78530  0.99250  0.63890  Biso   1.000  H
  H20      1.0000 0.71470  0.49250  0.86110  Biso   1.000  H
  C61      1.0000 0.10750  0.95680  0.37500  Biso   1.000  C
  C62      1.0000 0.39250  0.45680  0.12500  Biso   1.000  C
  C63      1.0000 0.89250  0.04320  0.62500  Biso   1.000  C
  C64      1.0000 0.60750  0.54320  0.87500  Biso   1.000  C
  C65      1.0000 0.01160  0.95650  0.38110  Biso   1.000  C
  C66      1.0000 0.48840  0.45650  0.11890  Biso   1.000  C
  C67      1.0000 0.98840  0.04350  0.61890  Biso   1.000  C
  C68      1.0000 0.51160  0.54350  0.88110  Biso   1.000  C
  C69      1.0000 0.96440  0.90560  0.40130  Biso   1.000  C
  C70      1.0000 0.53560  0.40560  0.09870  Biso   1.000  C
  C71      1.0000 0.03560  0.09440  0.59870  Biso   1.000  C
  C72      1.0000 0.46440  0.59440  0.90130  Biso   1.000  C
  H21      1.0000 0.99480  0.86650  0.41130  Biso   1.000  H
  H22      1.0000 0.50520  0.36650  0.08870  Biso   1.000  H
  H23      1.0000 0.00520  0.13350  0.58870  Biso   1.000  H
  H24      1.0000 0.49480  0.63350  0.91130  Biso   1.000  H
  C73      1.0000 0.87460  0.91050  0.40710  Biso   1.000  C
  C74      1.0000 0.62540  0.41050  0.09290  Biso   1.000  C
  C75      1.0000 0.12540  0.08950  0.59290  Biso   1.000  C
  C76      1.0000 0.37460  0.58950  0.90710  Biso   1.000  C
  C77      1.0000 0.82870  0.96740  0.39460  Biso   1.000  C
  C78      1.0000 0.67130  0.46740  0.10540  Biso   1.000  C
  C79      1.0000 0.17130  0.03260  0.60540  Biso   1.000  C
  C80      1.0000 0.32870  0.53260  0.89460  Biso   1.000  C
  H25      1.0000 0.76880  0.97120  0.40010  Biso   1.000  H
  H26      1.0000 0.73120  0.47120  0.09990  Biso   1.000  H
  H27      1.0000 0.23120  0.02880  0.59990  Biso   1.000  H
  H28      1.0000 0.26880  0.52880  0.90010  Biso   1.000  H
  C81      1.0000 0.87270  0.01940  0.37360  Biso   1.000  C
  C82      1.0000 0.62730  0.51940  0.12640  Biso   1.000  C
  C83      1.0000 0.12730  0.98060  0.62640  Biso   1.000  C
  C84      1.0000 0.37270  0.48060  0.87360  Biso   1.000  C
  C85      1.0000 0.96330  0.01820  0.36510  Biso   1.000  C
  C86      1.0000 0.53670  0.51820  0.13490  Biso   1.000  C
  C87      1.0000 0.03670  0.98180  0.63490  Biso   1.000  C
  C88      1.0000 0.46330  0.48180  0.86510  Biso   1.000  C
  C89      1.0000 0.01270  0.07070  0.35100  Biso   1.000  C
  C90      1.0000 0.48730  0.57070  0.14900  Biso   1.000  C
  C91      1.0000 0.98730  0.92930  0.64900  Biso   1.000  C
  C92      1.0000 0.51270  0.42930  0.85100  Biso   1.000  C
  H29      1.0000 0.98190  0.10950  0.34320  Biso   1.000  H
  H30      1.0000 0.51810  0.60950  0.15680  Biso   1.000  H
  H31      1.0000 0.01810  0.89050  0.65680  Biso   1.000  H
  H32      1.0000 0.48190  0.39050  0.84320  Biso   1.000  H
  C93      1.0000 0.83380  0.85181  0.43150  Biso   1.000  C
  C94      1.0000 0.66620  0.35181  0.06850  Biso   1.000  C
  C95      1.0000 0.16620  0.14819  0.56850  Biso   1.000  C
  C96      1.0000 0.33380  0.64819  0.93150  Biso   1.000  C
  C97      1.0000 0.42010  0.06516  0.36030  Biso   1.000  C
  C98      1.0000 0.07990  0.56516  0.13970  Biso   1.000  C
  C99      1.0000 0.57990  0.93484  0.63970  Biso   1.000  C
  C100     1.0000 0.92010  0.43484  0.86030  Biso   1.000  C
  H33      1.0000 0.35690  0.05430  0.35220  Biso   1.000  H
  H34      1.0000 0.14310  0.55430  0.14780  Biso   1.000  H
  H35      1.0000 0.64310  0.94570  0.64780  Biso   1.000  H
  H36      1.0000 0.85690  0.44570  0.85220  Biso   1.000  H
  C101     1.0000 0.44960  0.95220  0.36520  Biso   1.000  C
  C102     1.0000 0.05040  0.45220  0.13480  Biso   1.000  C
  C103     1.0000 0.55040  0.04780  0.63480  Biso   1.000  C
  C104     1.0000 0.94960  0.54780  0.86520  Biso   1.000  C
  H37      1.0000 0.38250  0.95090  0.35750  Biso   1.000  H
  H38      1.0000 0.11750  0.45090  0.14250  Biso   1.000  H
  H39      1.0000 0.61750  0.04910  0.64250  Biso   1.000  H
  H40      1.0000 0.88250  0.54910  0.85750  Biso   1.000  H
  H41      1.0000 0.48790  0.92990  0.42130  Biso   1.000  H
  H42      1.0000 0.01210  0.42990  0.07870  Biso   1.000  H
  H43      1.0000 0.51210  0.07010  0.57870  Biso   1.000  H
  H44      1.0000 0.98790  0.57010  0.92130  Biso   1.000  H
  H45      1.0000 0.45720  0.93290  0.31200  Biso   1.000  H
  H46      1.0000 0.04280  0.43290  0.18800  Biso   1.000  H
  H47      1.0000 0.54280  0.06710  0.68800  Biso   1.000  H
  H48      1.0000 0.95720  0.56710  0.81200  Biso   1.000  H
  C105     1.0000 0.58160  0.03070  0.38880  Biso   1.000  C
  C106     1.0000 0.91840  0.53070  0.11120  Biso   1.000  C
  C107     1.0000 0.41840  0.96930  0.61120  Biso   1.000  C
  C108     1.0000 0.08160  0.46930  0.88880  Biso   1.000  C
  H49      1.0000 0.59310  0.07520  0.39360  Biso   1.000  H
  H50      1.0000 0.90690  0.57520  0.10640  Biso   1.000  H
  H51      1.0000 0.40690  0.92480  0.60640  Biso   1.000  H
  H52      1.0000 0.09310  0.42480  0.89360  Biso   1.000  H
  H53      1.0000 0.59610  0.01430  0.33740  Biso   1.000  H
  H54      1.0000 0.90390  0.51430  0.16260  Biso   1.000  H
  H55      1.0000 0.40390  0.98570  0.66260  Biso   1.000  H
  H56      1.0000 0.09610  0.48570  0.83740  Biso   1.000  H
  H57      1.0000 0.62240  0.01070  0.44600  Biso   1.000  H
  H58      1.0000 0.87760  0.51070  0.05400  Biso   1.000  H
  H59      1.0000 0.37760  0.98930  0.55400  Biso   1.000  H
  H60      1.0000 0.12240  0.48930  0.94600  Biso   1.000  H
  N1       1.0000 0.30680  0.55284  0.38270  Biso   1.000  N
  N2       1.0000 0.19320  0.05284  0.11730  Biso   1.000  N
  N3       1.0000 0.69320  0.44716  0.61730  Biso   1.000  N
  N4       1.0000 0.80680  0.94716  0.88270  Biso   1.000  N
  N5       1.0000 0.67140  0.41299  0.36090  Biso   1.000  N
  N6       1.0000 0.82860  0.91299  0.13910  Biso   1.000  N
  N7       1.0000 0.32860  0.58701  0.63910  Biso   1.000  N
  N8       1.0000 0.17140  0.08701  0.86090  Biso   1.000  N
  N9       1.0000 0.81540  0.08256  0.35130  Biso   1.000  N
  N10      1.0000 0.68460  0.58256  0.14870  Biso   1.000  N
  N11      1.0000 0.18460  0.91744  0.64870  Biso   1.000  N
  N12      1.0000 0.31540  0.41744  0.85130  Biso   1.000  N
  N13      1.0000 0.15890  0.89894  0.38830  Biso   1.000  N
  N14      1.0000 0.34110  0.39894  0.11170  Biso   1.000  N
  N15      1.0000 0.84110  0.10106  0.61170  Biso   1.000  N
  N16      1.0000 0.65890  0.60106  0.88830  Biso   1.000  N
  N17      1.0000 0.48250  0.01868  0.37290  Biso   1.000  N
  N18      1.0000 0.01750  0.51868  0.12710  Biso   1.000  N
  N19      1.0000 0.51750  0.98132  0.62710  Biso   1.000  N
  N20      1.0000 0.98250  0.48132  0.87290  Biso   1.000  N
  O1       1.0000 0.39790  0.26773  0.35367  Biso   1.000  O
  O2       1.0000 0.10210  0.76773  0.14633  Biso   1.000  O
  O3       1.0000 0.60210  0.73227  0.64633  Biso   1.000  O
  O4       1.0000 0.89790  0.23227  0.85367  Biso   1.000  O
  O5       1.0000 0.26470  0.32088  0.34182  Biso   1.000  O
  O6       1.0000 0.23530  0.82088  0.15818  Biso   1.000  O
  O7       1.0000 0.73530  0.67912  0.65818  Biso   1.000  O
  O8       1.0000 0.76470  0.17912  0.84182  Biso   1.000  O
  O9       1.0000 0.71640  0.64675  0.40993  Biso   1.000  O
  O10      1.0000 0.78360  0.14675  0.09007  Biso   1.000  O
  O11      1.0000 0.28360  0.35325  0.59007  Biso   1.000  O
  O12      1.0000 0.21640  0.85325  0.90993  Biso   1.000  O
  O13      1.0000 0.59218  0.69797  0.42808  Biso   1.000  O
  O14      1.0000 0.90782  0.19797  0.07192  Biso   1.000  O
  O15      1.0000 0.40782  0.30203  0.57192  Biso   1.000  O
  O16      1.0000 0.09218  0.80203  0.92808  Biso   1.000  O
  O17      1.0000 0.31690  0.59458  0.43680  Biso   1.000  O
  O18      1.0000 0.18310  0.09458  0.06320  Biso   1.000  O
  O19      1.0000 0.68310  0.40542  0.56320  Biso   1.000  O
  O20      1.0000 0.81690  0.90542  0.93680  Biso   1.000  O
  O21      1.0000 0.23170  0.53206  0.33160  Biso   1.000  O
  O22      1.0000 0.26830  0.03206  0.16840  Biso   1.000  O
  O23      1.0000 0.76830  0.46794  0.66840  Biso   1.000  O
  O24      1.0000 0.73170  0.96794  0.83160  Biso   1.000  O
  O25      1.0000 0.70550  0.45380  0.32670  Biso   1.000  O
  O26      1.0000 0.79450  0.95380  0.17330  Biso   1.000  O
  O27      1.0000 0.29450  0.54620  0.67330  Biso   1.000  O
  O28      1.0000 0.20550  0.04620  0.82670  Biso   1.000  O
  O29      1.0000 0.68630  0.35920  0.33730  Biso   1.000  O
  O30      1.0000 0.81370  0.85920  0.16270  Biso   1.000  O
  O31      1.0000 0.31370  0.64080  0.66270  Biso   1.000  O
  O32      1.0000 0.18630  0.14080  0.83730  Biso   1.000  O
  O33      1.0000 0.10639  0.18644  0.32569  Biso   1.000  O
  O34      1.0000 0.39361  0.68644  0.17431  Biso   1.000  O
  O35      1.0000 0.89361  0.81356  0.67431  Biso   1.000  O
  O36      1.0000 0.60639  0.31356  0.82569  Biso   1.000  O
  O37      1.0000 0.22700  0.12316  0.33271  Biso   1.000  O
  O38      1.0000 0.27300  0.62316  0.16729  Biso   1.000  O
  O39      1.0000 0.77300  0.87684  0.66729  Biso   1.000  O
  O40      1.0000 0.72700  0.37684  0.83271  Biso   1.000  O
  O41      1.0000 0.12890  0.84851  0.35940  Biso   1.000  O
  O42      1.0000 0.37110  0.34851  0.14060  Biso   1.000  O
  O43      1.0000 0.87110  0.15149  0.64060  Biso   1.000  O
  O44      1.0000 0.62890  0.65149  0.85940  Biso   1.000  O
  O45      1.0000 0.24910  0.90090  0.40140  Biso   1.000  O
  O46      1.0000 0.25090  0.40090  0.09860  Biso   1.000  O
  O47      1.0000 0.75090  0.09910  0.59860  Biso   1.000  O
  O48      1.0000 0.74910  0.59910  0.90140  Biso   1.000  O
  O49      1.0000 0.80720  0.10680  0.28590  Biso   1.000  O
  O50      1.0000 0.69280  0.60680  0.21410  Biso   1.000  O
  O51      1.0000 0.19280  0.89320  0.71410  Biso   1.000  O
  O52      1.0000 0.30720  0.39320  0.78590  Biso   1.000  O
  O53      1.0000 0.79280  0.09720  0.41920  Biso   1.000  O
  O54      1.0000 0.70720  0.59720  0.08080  Biso   1.000  O
  O55      1.0000 0.20720  0.90280  0.58080  Biso   1.000  O
  O56      1.0000 0.29280  0.40280  0.91920  Biso   1.000  O
  O57      1.0000 0.87210  0.79774  0.43590  Biso   1.000  O
  O58      1.0000 0.62790  0.29774  0.06410  Biso   1.000  O
  O59      1.0000 0.12790  0.20226  0.56410  Biso   1.000  O
  O60      1.0000 0.37210  0.70226  0.93590  Biso   1.000  O
  O61      1.0000 0.75866  0.86452  0.44376  Biso   1.000  O
  O62      1.0000 0.74134  0.36452  0.05624  Biso   1.000  O
  O63      1.0000 0.24134  0.13548  0.55624  Biso   1.000  O
  O64      1.0000 0.25866  0.63548  0.94376  Biso   1.000  O
  O65      1.0000 0.43789  0.12209  0.35842  Biso   1.000  O
  O66      1.0000 0.06211  0.62209  0.14158  Biso   1.000  O
  O67      1.0000 0.56211  0.87791  0.64158  Biso   1.000  O
  O68      1.0000 0.93789  0.37791  0.85842  Biso   1.000  O
  O69      1.0000 0.35117  0.19378  0.47931  Biso   1.000  O
  O70      1.0000 0.14883  0.69378  0.02069  Biso   1.000  O
  O71      1.0000 0.64883  0.80622  0.52069  Biso   1.000  O
  O72      1.0000 0.85117  0.30622  0.97931  Biso   1.000  O
  H61      1.0000 0.30800  0.17870  0.49800  Biso   1.000  H
  H62      1.0000 0.19200  0.67870  0.00200  Biso   1.000  H
  H63      1.0000 0.69200  0.82130  0.50200  Biso   1.000  H
  H64      1.0000 0.80800  0.32130  0.99800  Biso   1.000  H
  H65      1.0000 0.37500  0.22680  0.50900  Biso   1.000  H
  H66      1.0000 0.12500  0.72680  0.99100  Biso   1.000  H
  H67      1.0000 0.62500  0.77320  0.49100  Biso   1.000  H
  H68      1.0000 0.87500  0.27320  0.00900  Biso   1.000  H
  O73      1.0000 0.84496  0.71216  0.56084  Biso   1.000  O
  O74      1.0000 0.65504  0.21216  0.93916  Biso   1.000  O
  O75      1.0000 0.15504  0.28784  0.43916  Biso   1.000  O
  O76      1.0000 0.34496  0.78784  0.06084  Biso   1.000  O
  H69      1.0000 0.86200  0.74580  0.59300  Biso   1.000  H
  H70      1.0000 0.63800  0.24580  0.90700  Biso   1.000  H
  H71      1.0000 0.13800  0.25420  0.40700  Biso   1.000  H
  H72      1.0000 0.36200  0.75420  0.09300  Biso   1.000  H
  H73      1.0000 0.80700  0.69250  0.58300  Biso   1.000  H
  H74      1.0000 0.69300  0.19250  0.91700  Biso   1.000  H
  H75      1.0000 0.19300  0.30750  0.41700  Biso   1.000  H
  H76      1.0000 0.30700  0.80750  0.08300  Biso   1.000  H
  O77      1.0000 0.71760  0.74875  0.29158  Biso   1.000  O
  O78      1.0000 0.78240  0.24875  0.20842  Biso   1.000  O
  O79      1.0000 0.28240  0.25125  0.70842  Biso   1.000  O
  O80      1.0000 0.21760  0.75125  0.79158  Biso   1.000  O
  O81      1.0000 0.90917  0.66762  0.39972  Biso   1.000  O
  O82      1.0000 0.59083  0.16762  0.10028  Biso   1.000  O
  O83      1.0000 0.09083  0.33238  0.60028  Biso   1.000  O
  O84      1.0000 0.40917  0.83238  0.89972  Biso   1.000  O
  C109     1.0000 0.56060  0.81800  0.25760  Biso   1.000  C
  C110     1.0000 0.93940  0.31800  0.24240  Biso   1.000  C
  C111     1.0000 0.43940  0.18200  0.74240  Biso   1.000  C
  C112     1.0000 0.06060  0.68200  0.75760  Biso   1.000  C
  C113     1.0000 0.61150  0.77110  0.11870  Biso   1.000  C
  C114     1.0000 0.88850  0.27110  0.38130  Biso   1.000  C
  C115     1.0000 0.38850  0.22890  0.88130  Biso   1.000  C
  C116     1.0000 0.11150  0.72890  0.61870  Biso   1.000  C
  S1       1.0000 0.61997  0.74430  0.23630  Biso   1.000  S
  S2       1.0000 0.88003  0.24430  0.26370  Biso   1.000  S
  S3       1.0000 0.38003  0.25570  0.76370  Biso   1.000  S
  S4       1.0000 0.11997  0.75570  0.73630  Biso   1.000  S
  C117     1.0000 0.05350  0.62850  0.35590  Biso   1.000  C
  C118     1.0000 0.44650  0.12850  0.14410  Biso   1.000  C
  C119     1.0000 0.94650  0.37150  0.64410  Biso   1.000  C
  C120     1.0000 0.55350  0.87150  0.85590  Biso   1.000  C
  C121     1.0000 0.92630  0.71420  0.24620  Biso   1.000  C
  C122     1.0000 0.57370  0.21420  0.25380  Biso   1.000  C
  C123     1.0000 0.07370  0.28580  0.75380  Biso   1.000  C
  C124     1.0000 0.42630  0.78580  0.74620  Biso   1.000  C
  S5       1.0000 0.98535  0.69522  0.36801  Biso   1.000  S
  S6       1.0000 0.51465  0.19522  0.13199  Biso   1.000  S
  S7       1.0000 0.01465  0.30478  0.63199  Biso   1.000  S
  S8       1.0000 0.48535  0.80478  0.86801  Biso   1.000  S
  O85      1.0000 0.27068  0.20246  0.20570  Biso   1.000  O
  O86      1.0000 0.22932  0.70246  0.29430  Biso   1.000  O
  O87      1.0000 0.72932  0.79754  0.79430  Biso   1.000  O
  O88      1.0000 0.77068  0.29754  0.70570  Biso   1.000  O
  C125     1.0000 0.08410  0.29180  0.03260  Biso   1.000  C
  C126     1.0000 0.41590  0.79180  0.46740  Biso   1.000  C
  C127     1.0000 0.91590  0.70820  0.96740  Biso   1.000  C
  C128     1.0000 0.58410  0.20820  0.53260  Biso   1.000  C
  H77      1.0000 0.05220  0.29800  0.07580  Biso   1.000  H
  H78      1.0000 0.44780  0.79800  0.42420  Biso   1.000  H
  H79      1.0000 0.94780  0.70200  0.92420  Biso   1.000  H
  H80      1.0000 0.55220  0.20200  0.57580  Biso   1.000  H
  H81      1.0000 0.04070  0.27090  0.97750  Biso   1.000  H
  H82      1.0000 0.45930  0.77090  0.52250  Biso   1.000  H
  H83      1.0000 0.95930  0.72910  0.02250  Biso   1.000  H
  H84      1.0000 0.54070  0.22910  0.47750  Biso   1.000  H
  H85      1.0000 0.10230  0.33190  0.01550  Biso   1.000  H
  H86      1.0000 0.39770  0.83190  0.48450  Biso   1.000  H
  H87      1.0000 0.89770  0.66810  0.98450  Biso   1.000  H
  H88      1.0000 0.60230  0.16810  0.51550  Biso   1.000  H
  C129     1.0000 0.22830  0.23960  0.02110  Biso   1.000  C
  C130     1.0000 0.27170  0.73960  0.47890  Biso   1.000  C
  C131     1.0000 0.77170  0.76040  0.97890  Biso   1.000  C
  C132     1.0000 0.72830  0.26040  0.52110  Biso   1.000  C
  H89      1.0000 0.28290  0.21380  0.05660  Biso   1.000  H
  H90      1.0000 0.21710  0.71380  0.44340  Biso   1.000  H
  H91      1.0000 0.71710  0.78620  0.94340  Biso   1.000  H
  H92      1.0000 0.78290  0.28620  0.55660  Biso   1.000  H
  H93      1.0000 0.25110  0.27820  0.00450  Biso   1.000  H
  H94      1.0000 0.24890  0.77820  0.49550  Biso   1.000  H
  H95      1.0000 0.74890  0.72180  0.99550  Biso   1.000  H
  H96      1.0000 0.75110  0.22180  0.50450  Biso   1.000  H
  H97      1.0000 0.18870  0.21770  0.96520  Biso   1.000  H
  H98      1.0000 0.31130  0.71770  0.53480  Biso   1.000  H
  H99      1.0000 0.81130  0.78230  0.03480  Biso   1.000  H
  H100     1.0000 0.68870  0.28230  0.46520  Biso   1.000  H
  C133     1.0000 0.20090  0.23330  0.16820  Biso   1.000  C
  C134     1.0000 0.29910  0.73330  0.33180  Biso   1.000  C
  C135     1.0000 0.79910  0.76670  0.83180  Biso   1.000  C
  C136     1.0000 0.70090  0.26670  0.66820  Biso   1.000  C
  H101     1.0000 0.16380  0.24480  0.20250  Biso   1.000  H
  H102     1.0000 0.33620  0.74480  0.29750  Biso   1.000  H
  H103     1.0000 0.83620  0.75520  0.79750  Biso   1.000  H
  H104     1.0000 0.66380  0.25520  0.70250  Biso   1.000  H
  N21      1.0000 0.17150  0.25317  0.07730  Biso   1.000  N
  N22      1.0000 0.32850  0.75317  0.42270  Biso   1.000  N
  N23      1.0000 0.82850  0.74683  0.92270  Biso   1.000  N
  N24      1.0000 0.67150  0.24683  0.57730  Biso   1.000  N
  C137     1.0000 0.16400  0.23900  0.02500  Biso   1.000  C
  C138     1.0000 0.33600  0.73900  0.47500  Biso   1.000  C
  C139     1.0000 0.83600  0.76100  0.97500  Biso   1.000  C
  C140     1.0000 0.66400  0.26100  0.52500  Biso   1.000  C
  C141     1.0000 0.10500  0.29580  0.15000  Biso   1.000  C
  C142     1.0000 0.39500  0.79580  0.35000  Biso   1.000  C
  C143     1.0000 0.89500  0.70420  0.85000  Biso   1.000  C
  C144     1.0000 0.60500  0.20420  0.65000  Biso   1.000  C
  S9       1.0000 0.15040  0.22060  0.13220  Biso   1.000  S
  S10      1.0000 0.34960  0.72060  0.36780  Biso   1.000  S
  S11      1.0000 0.84960  0.77940  0.86780  Biso   1.000  S
  S12      1.0000 0.65040  0.27940  0.63220  Biso   1.000  S
  O89      1.0000 0.05200  0.46110  0.46520  Biso   1.000  O
  O90      1.0000 0.44800  0.96110  0.03480  Biso   1.000  O
  O91      1.0000 0.94800  0.53890  0.53480  Biso   1.000  O
  O92      1.0000 0.55200  0.03890  0.96520  Biso   1.000  O
  O93      1.0000 0.90500  0.49810  0.35400  Biso   1.000  O
  O94      1.0000 0.59500  0.99810  0.14600  Biso   1.000  O
  O95      1.0000 0.09500  0.50190  0.64600  Biso   1.000  O
  O96      1.0000 0.40500  0.00190  0.85400  Biso   1.000  O
  C145     1.0000 0.61520  0.46900  0.37820  Biso   1.000  C
  C146     1.0000 0.88480  0.96900  0.12180  Biso   1.000  C
  C147     1.0000 0.38480  0.53100  0.62180  Biso   1.000  C
  C148     1.0000 0.11520  0.03100  0.87820  Biso   1.000  C
  C149     1.0000 0.51760  0.45620  0.37080  Biso   1.000  C
  C150     1.0000 0.98240  0.95620  0.12920  Biso   1.000  C
  C151     1.0000 0.48240  0.54380  0.62920  Biso   1.000  C
  C152     1.0000 0.01760  0.04380  0.87080  Biso   1.000  C
  C153     1.0000 0.47580  0.39430  0.36380  Biso   1.000  C
  C154     1.0000 0.02420  0.89430  0.13620  Biso   1.000  C
  C155     1.0000 0.52420  0.60570  0.63620  Biso   1.000  C
  C156     1.0000 0.97580  0.10570  0.86380  Biso   1.000  C
  C157     1.0000 0.06280  0.09500  0.34160  Biso   1.000  C
  C158     1.0000 0.43720  0.59500  0.15840  Biso   1.000  C
  C159     1.0000 0.93720  0.90500  0.65840  Biso   1.000  C
  C160     1.0000 0.56280  0.40500  0.84160  Biso   1.000  C
  C161     1.0000 0.09380  0.03680  0.35980  Biso   1.000  C
  C162     1.0000 0.40620  0.53680  0.14020  Biso   1.000  C
  C163     1.0000 0.90620  0.96320  0.64020  Biso   1.000  C
  C164     1.0000 0.59380  0.46320  0.85980  Biso   1.000  C
  C165     1.0000 0.05800  0.92550  0.39610  Biso   1.000  C
  C166     1.0000 0.44200  0.42550  0.10390  Biso   1.000  C
  C167     1.0000 0.94200  0.07450  0.60390  Biso   1.000  C
  C168     1.0000 0.55800  0.57450  0.89610  Biso   1.000  C
  C169     1.0000 0.02930  0.98670  0.37740  Biso   1.000  C
  C170     1.0000 0.47070  0.48670  0.12260  Biso   1.000  C
  C171     1.0000 0.97070  0.01330  0.62260  Biso   1.000  C
  C172     1.0000 0.52930  0.51330  0.87740  Biso   1.000  C
  C173     1.0000 0.99400  0.88310  0.40940  Biso   1.000  C
  C174     1.0000 0.50600  0.38310  0.09060  Biso   1.000  C
  C175     1.0000 0.00600  0.11690  0.59060  Biso   1.000  C
  C176     1.0000 0.49400  0.61690  0.90940  Biso   1.000  C
  C177     1.0000 0.90510  0.89950  0.41330  Biso   1.000  C
  C178     1.0000 0.59490  0.39950  0.08670  Biso   1.000  C
  C179     1.0000 0.09490  0.10050  0.58670  Biso   1.000  C
  C180     1.0000 0.40510  0.60050  0.91330  Biso   1.000  C
  C181     1.0000 0.38370  0.38660  0.35740  Biso   1.000  C
  C182     1.0000 0.11630  0.88660  0.14260  Biso   1.000  C
  C183     1.0000 0.61630  0.61340  0.64260  Biso   1.000  C
  C184     1.0000 0.88370  0.11340  0.85740  Biso   1.000  C
  C185     1.0000 0.87480  0.96130  0.39330  Biso   1.000  C
  C186     1.0000 0.62520  0.46130  0.10670  Biso   1.000  C
  C187     1.0000 0.12520  0.03870  0.60670  Biso   1.000  C
  C188     1.0000 0.37480  0.53870  0.89330  Biso   1.000  C
  C189     1.0000 0.90980  0.06910  0.35370  Biso   1.000  C
  C190     1.0000 0.59020  0.56910  0.14630  Biso   1.000  C
  C191     1.0000 0.09020  0.93090  0.64630  Biso   1.000  C
  C192     1.0000 0.40980  0.43090  0.85370  Biso   1.000  C
  C193     1.0000 0.93650  0.00610  0.37490  Biso   1.000  C
  C194     1.0000 0.56350  0.50610  0.12510  Biso   1.000  C
  C195     1.0000 0.06350  0.99390  0.62510  Biso   1.000  C
  C196     1.0000 0.43650  0.49390  0.87490  Biso   1.000  C
  C197     1.0000 0.96980  0.11300  0.33660  Biso   1.000  C
  C198     1.0000 0.53020  0.61300  0.16340  Biso   1.000  C
  C199     1.0000 0.03020  0.88700  0.66340  Biso   1.000  C
  C200     1.0000 0.46980  0.38700  0.83660  Biso   1.000  C
  C201     1.0000 0.32620  0.43890  0.36000  Biso   1.000  C
  C202     1.0000 0.17380  0.93890  0.14000  Biso   1.000  C
  C203     1.0000 0.67380  0.56110  0.64000  Biso   1.000  C
  C204     1.0000 0.82620  0.06110  0.86000  Biso   1.000  C
  C205     1.0000 0.36640  0.49680  0.37270  Biso   1.000  C
  C206     1.0000 0.13360  0.99680  0.12730  Biso   1.000  C
  C207     1.0000 0.63360  0.50320  0.62730  Biso   1.000  C
  C208     1.0000 0.86640  0.00320  0.87270  Biso   1.000  C
  C209     1.0000 0.46130  0.50980  0.37950  Biso   1.000  C
  C210     1.0000 0.03870  0.00980  0.12050  Biso   1.000  C
  C211     1.0000 0.53870  0.49020  0.62050  Biso   1.000  C
  C212     1.0000 0.96130  0.99020  0.87950  Biso   1.000  C
  C213     1.0000 0.50520  0.57090  0.39340  Biso   1.000  C
  C214     1.0000 0.99480  0.07090  0.10660  Biso   1.000  C
  C215     1.0000 0.49480  0.42910  0.60660  Biso   1.000  C
  C216     1.0000 0.00520  0.92910  0.89340  Biso   1.000  C
  C217     1.0000 0.59740  0.57940  0.40080  Biso   1.000  C
  C218     1.0000 0.90260  0.07940  0.09920  Biso   1.000  C
  C219     1.0000 0.40260  0.42060  0.59920  Biso   1.000  C
  C220     1.0000 0.09740  0.92060  0.90080  Biso   1.000  C
  C221     1.0000 0.65350  0.52660  0.39060  Biso   1.000  C
  C222     1.0000 0.84650  0.02660  0.10940  Biso   1.000  C
  C223     1.0000 0.34650  0.47340  0.60940  Biso   1.000  C
  C224     1.0000 0.15350  0.97340  0.89060  Biso   1.000  C
  H105     1.0000 0.51300  0.35920  0.36370  Biso   1.000  H
  H106     1.0000 0.98700  0.85920  0.13630  Biso   1.000  H
  H107     1.0000 0.48700  0.64080  0.63630  Biso   1.000  H
  H108     1.0000 0.01300  0.14080  0.86370  Biso   1.000  H
  H109     1.0000 0.15520  0.02610  0.36190  Biso   1.000  H
  H110     1.0000 0.34480  0.52610  0.13810  Biso   1.000  H
  H111     1.0000 0.84480  0.97390  0.63810  Biso   1.000  H
  H112     1.0000 0.65520  0.47390  0.86190  Biso   1.000  H
  H113     1.0000 0.01150  0.84090  0.41620  Biso   1.000  H
  H114     1.0000 0.48850  0.34090  0.08380  Biso   1.000  H
  H115     1.0000 0.98850  0.15910  0.58380  Biso   1.000  H
  H116     1.0000 0.51150  0.65910  0.91620  Biso   1.000  H
  H117     1.0000 0.81420  0.97350  0.39200  Biso   1.000  H
  H118     1.0000 0.68580  0.47350  0.10800  Biso   1.000  H
  H119     1.0000 0.18580  0.02650  0.60800  Biso   1.000  H
  H120     1.0000 0.31420  0.52650  0.89200  Biso   1.000  H
  H121     1.0000 0.94880  0.15420  0.32190  Biso   1.000  H
  H122     1.0000 0.55120  0.65420  0.17810  Biso   1.000  H
  H123     1.0000 0.05120  0.84580  0.67810  Biso   1.000  H
  H124     1.0000 0.44880  0.34580  0.82190  Biso   1.000  H
  H125     1.0000 0.26180  0.43350  0.35310  Biso   1.000  H
  H126     1.0000 0.23820  0.93350  0.14690  Biso   1.000  H
  H127     1.0000 0.73820  0.56650  0.64690  Biso   1.000  H
  H128     1.0000 0.76180  0.06650  0.85310  Biso   1.000  H
  H129     1.0000 0.46890  0.60560  0.39740  Biso   1.000  H
  H130     1.0000 0.03110  0.10560  0.10260  Biso   1.000  H
  H131     1.0000 0.53110  0.39440  0.60260  Biso   1.000  H
  H132     1.0000 0.96890  0.89440  0.89740  Biso   1.000  H
  H133     1.0000 0.71620  0.53270  0.39270  Biso   1.000  H
  H134     1.0000 0.78380  0.03270  0.10730  Biso   1.000  H
  H135     1.0000 0.28380  0.46730  0.60730  Biso   1.000  H
  H136     1.0000 0.21620  0.96730  0.89270  Biso   1.000  H
  O97      1.0000 0.22640  0.93290  0.44070  Biso   1.000  O
  O98      1.0000 0.27360  0.43290  0.05930  Biso   1.000  O
  O99      1.0000 0.77360  0.06710  0.55930  Biso   1.000  O
  O100     1.0000 0.72640  0.56710  0.94070  Biso   1.000  O
  O101     1.0000 0.73680  0.06270  0.28970  Biso   1.000  O
  O102     1.0000 0.76320  0.56270  0.21030  Biso   1.000  O
  O103     1.0000 0.26320  0.93730  0.71030  Biso   1.000  O
  O104     1.0000 0.23680  0.43730  0.78970  Biso   1.000  O
  O105     1.0000 0.81110  0.13510  0.38750  Biso   1.000  O
  O106     1.0000 0.68890  0.63510  0.11250  Biso   1.000  O
  O107     1.0000 0.18890  0.86490  0.61250  Biso   1.000  O
  O108     1.0000 0.31110  0.36490  0.88750  Biso   1.000  O
  O109     1.0000 0.99900  0.49880  0.45300  Biso   1.000  O
  O110     1.0000 0.50100  0.99880  0.04700  Biso   1.000  O
  O111     1.0000 0.00100  0.50120  0.54700  Biso   1.000  O
  O112     1.0000 0.49900  0.00120  0.95300  Biso   1.000  O
  O113     1.0000 0.97200  0.49600  0.45900  Biso   1.000  O
  O114     1.0000 0.52800  0.99600  0.04100  Biso   1.000  O
  O115     1.0000 0.02800  0.50400  0.54100  Biso   1.000  O
  O116     1.0000 0.47200  0.00400  0.95900  Biso   1.000  O
  O117     1.0000 0.75710  0.42830  0.41500  Biso   1.000  O
  O118     1.0000 0.74290  0.92830  0.08500  Biso   1.000  O
  O119     1.0000 0.24290  0.57170  0.58500  Biso   1.000  O
  O120     1.0000 0.25710  0.07170  0.91500  Biso   1.000  O
  O121     1.0000 0.64100  0.37330  0.31360  Biso   1.000  O
  O122     1.0000 0.85900  0.87330  0.18640  Biso   1.000  O
  O123     1.0000 0.35900  0.62670  0.68640  Biso   1.000  O
  O124     1.0000 0.14100  0.12670  0.81360  Biso   1.000  O
  S13      1.0000 0.21500  0.26300  0.14350  Biso   1.000  S
  S14      1.0000 0.28500  0.76300  0.35650  Biso   1.000  S
  S15      1.0000 0.78500  0.73700  0.85650  Biso   1.000  S
  S16      1.0000 0.71500  0.23700  0.64350  Biso   1.000  S
  S17      1.0000 0.66198  0.80556  0.24007  Biso   1.000  S
  S18      1.0000 0.83802  0.30556  0.25993  Biso   1.000  S
  S19      1.0000 0.33802  0.19444  0.75993  Biso   1.000  S
  S20      1.0000 0.16198  0.69444  0.74007  Biso   1.000  S
  S21      1.0000 0.95730  0.65420  0.32890  Biso   1.000  S
  S22      1.0000 0.54270  0.15420  0.17110  Biso   1.000  S
  S23      1.0000 0.04270  0.34580  0.67110  Biso   1.000  S
  S24      1.0000 0.45730  0.84580  0.82890  Biso   1.000  S
