data_image0
_cell_length_a       7.948
_cell_length_b       11.892
_cell_length_c       10.207
_cell_angle_alpha    90
_cell_angle_beta     101.15
_cell_angle_gamma    90

_symmetry_space_group_name_H-M    "P 1"
_symmetry_int_tables_number       1

loop_
  _symmetry_equiv_pos_as_xyz
  'x, y, z'

loop_
  _atom_site_label
  _atom_site_occupancy
  _atom_site_fract_x
  _atom_site_fract_y
  _atom_site_fract_z
  _atom_site_thermal_displace_type
  _atom_site_B_iso_or_equiv
  _atom_site_type_symbol
  C1       1.0000 0.29320  0.01560  0.85080  Biso   1.000  C
  C2       1.0000 0.20680  0.51560  0.64920  Biso   1.000  C
  C3       1.0000 0.70680  0.98440  0.14920  Biso   1.000  C
  C4       1.0000 0.79320  0.48440  0.35080  Biso   1.000  C
  C5       1.0000 0.40070  0.11270  0.82590  Biso   1.000  C
  C6       1.0000 0.09930  0.61270  0.67410  Biso   1.000  C
  C7       1.0000 0.59930  0.88730  0.17410  Biso   1.000  C
  C8       1.0000 0.90070  0.38730  0.32590  Biso   1.000  C
  C9       1.0000 0.42500  0.20210  0.93360  Biso   1.000  C
  C10      1.0000 0.07500  0.70210  0.56640  Biso   1.000  C
  C11      1.0000 0.57500  0.79790  0.06640  Biso   1.000  C
  C12      1.0000 0.92500  0.29790  0.43360  Biso   1.000  C
  C13      1.0000 0.29180  0.36700  0.02080  Biso   1.000  C
  C14      1.0000 0.20820  0.86700  0.47920  Biso   1.000  C
  C15      1.0000 0.70820  0.63300  0.97920  Biso   1.000  C
  C16      1.0000 0.79180  0.13300  0.52080  Biso   1.000  C
  C17      1.0000 0.40260  0.35250  0.15850  Biso   1.000  C
  C18      1.0000 0.09740  0.85250  0.34150  Biso   1.000  C
  C19      1.0000 0.59740  0.64750  0.84150  Biso   1.000  C
  C20      1.0000 0.90260  0.14750  0.65850  Biso   1.000  C
  C21      1.0000 0.34080  0.26440  0.24200  Biso   1.000  C
  C22      1.0000 0.15920  0.76440  0.25800  Biso   1.000  C
  C23      1.0000 0.65920  0.73560  0.75800  Biso   1.000  C
  C24      1.0000 0.84080  0.23560  0.74200  Biso   1.000  C
  Cu1      1.0000 0.08286  0.16430  0.00977  Biso   1.000  Cu
  Cu2      1.0000 0.41714  0.66430  0.49023  Biso   1.000  Cu
  Cu3      1.0000 0.91714  0.83570  0.99023  Biso   1.000  Cu
  Cu4      1.0000 0.58286  0.33570  0.50977  Biso   1.000  Cu
  H1       1.0000 0.52200  0.33100  0.15200  Biso   1.000  H
  H2       1.0000 0.97800  0.83100  0.34800  Biso   1.000  H
  H3       1.0000 0.47800  0.66900  0.84800  Biso   1.000  H
  H4       1.0000 0.02200  0.16900  0.65200  Biso   1.000  H
  H5       1.0000 0.17800  0.39800  0.02500  Biso   1.000  H
  H6       1.0000 0.32200  0.89800  0.47500  Biso   1.000  H
  H7       1.0000 0.82200  0.60200  0.97500  Biso   1.000  H
  H8       1.0000 0.67800  0.10200  0.52500  Biso   1.000  H
  H9       1.0000 0.50600  0.25400  0.91400  Biso   1.000  H
  H10      1.0000 0.99400  0.75400  0.58600  Biso   1.000  H
  H11      1.0000 0.49400  0.74600  0.08600  Biso   1.000  H
  H12      1.0000 0.00600  0.24600  0.41400  Biso   1.000  H
  H13      1.0000 0.46800  0.16600  0.02200  Biso   1.000  H
  H14      1.0000 0.03200  0.66600  0.47800  Biso   1.000  H
  H15      1.0000 0.53200  0.83400  0.97800  Biso   1.000  H
  H16      1.0000 0.96800  0.33400  0.52200  Biso   1.000  H
  H17      1.0000 0.35100  0.14700  0.74100  Biso   1.000  H
  H18      1.0000 0.14900  0.64700  0.75900  Biso   1.000  H
  H19      1.0000 0.64900  0.85300  0.25900  Biso   1.000  H
  H20      1.0000 0.85100  0.35300  0.24100  Biso   1.000  H
  H21      1.0000 0.51100  0.08700  0.82200  Biso   1.000  H
  H22      1.0000 0.98900  0.58700  0.67800  Biso   1.000  H
  H23      1.0000 0.48900  0.91300  0.17800  Biso   1.000  H
  H24      1.0000 0.01100  0.41300  0.32200  Biso   1.000  H
  H25      1.0000 0.40200  0.41800  0.19900  Biso   1.000  H
  H26      1.0000 0.09800  0.91800  0.30100  Biso   1.000  H
  H27      1.0000 0.59800  0.58200  0.80100  Biso   1.000  H
  H28      1.0000 0.90200  0.08200  0.69900  Biso   1.000  H
  H29      1.0000 0.35500  0.42100  0.97100  Biso   1.000  H
  H30      1.0000 0.14500  0.92100  0.52900  Biso   1.000  H
  H31      1.0000 0.64500  0.57900  0.02900  Biso   1.000  H
  H32      1.0000 0.85500  0.07900  0.47100  Biso   1.000  H
  H33      1.0000 0.22100  0.28300  0.86600  Biso   1.000  H
  H34      1.0000 0.27900  0.78300  0.63400  Biso   1.000  H
  H35      1.0000 0.77900  0.71700  0.13400  Biso   1.000  H
  H36      1.0000 0.72100  0.21700  0.36600  Biso   1.000  H
  N1       1.0000 0.16890  0.01863  0.92310  Biso   1.000  N
  N2       1.0000 0.33110  0.51863  0.57690  Biso   1.000  N
  N3       1.0000 0.83110  0.98137  0.07690  Biso   1.000  N
  N4       1.0000 0.66890  0.48137  0.42310  Biso   1.000  N
  N5       1.0000 0.10610  0.91291  0.91590  Biso   1.000  N
  N6       1.0000 0.39390  0.41291  0.58410  Biso   1.000  N
  N7       1.0000 0.89390  0.08709  0.08410  Biso   1.000  N
  N8       1.0000 0.60610  0.58709  0.41590  Biso   1.000  N
  N9       1.0000 0.30690  0.91300  0.80070  Biso   1.000  N
  N10      1.0000 0.19310  0.41300  0.69930  Biso   1.000  N
  N11      1.0000 0.69310  0.08700  0.19930  Biso   1.000  N
  N12      1.0000 0.80690  0.58700  0.30070  Biso   1.000  N
  N13      1.0000 0.18760  0.85040  0.84400  Biso   1.000  N
  N14      1.0000 0.31240  0.35040  0.65600  Biso   1.000  N
  N15      1.0000 0.81240  0.14960  0.15600  Biso   1.000  N
  N16      1.0000 0.68760  0.64960  0.34400  Biso   1.000  N
  N17      1.0000 0.26310  0.25990  0.94270  Biso   1.000  N
  N18      1.0000 0.23690  0.75990  0.55730  Biso   1.000  N
  N19      1.0000 0.73690  0.74010  0.05730  Biso   1.000  N
  N20      1.0000 0.76310  0.24010  0.44270  Biso   1.000  N
  N21      1.0000 0.22610  0.18514  0.19820  Biso   1.000  N
  N22      1.0000 0.27390  0.68514  0.30180  Biso   1.000  N
  N23      1.0000 0.77390  0.81486  0.80180  Biso   1.000  N
  N24      1.0000 0.72610  0.31486  0.69820  Biso   1.000  N
  N25      1.0000 0.40110  0.25030  0.37240  Biso   1.000  N
  N26      1.0000 0.09890  0.75030  0.12760  Biso   1.000  N
  N27      1.0000 0.59890  0.74970  0.62760  Biso   1.000  N
  N28      1.0000 0.90110  0.24970  0.87240  Biso   1.000  N
  N29      1.0000 0.32250  0.15710  0.40850  Biso   1.000  N
  N30      1.0000 0.17750  0.65710  0.09150  Biso   1.000  N
  N31      1.0000 0.67750  0.84290  0.59150  Biso   1.000  N
  N32      1.0000 0.82250  0.34290  0.90850  Biso   1.000  N
  N33      1.0000 0.21720  0.11790  0.30450  Biso   1.000  N
  N34      1.0000 0.28280  0.61790  0.19550  Biso   1.000  N
  N35      1.0000 0.78280  0.88210  0.69550  Biso   1.000  N
  N36      1.0000 0.71720  0.38210  0.80450  Biso   1.000  N
