data_image0
_cell_length_a       7.5215
_cell_length_b       18.9245
_cell_length_c       18.8994
_cell_angle_alpha    90
_cell_angle_beta     97.361
_cell_angle_gamma    90

_symmetry_space_group_name_H-M    "P 1"
_symmetry_int_tables_number       1

loop_
  _symmetry_equiv_pos_as_xyz
  'x, y, z'

loop_
  _atom_site_label
  _atom_site_occupancy
  _atom_site_fract_x
  _atom_site_fract_y
  _atom_site_fract_z
  _atom_site_thermal_displace_type
  _atom_site_B_iso_or_equiv
  _atom_site_type_symbol
  Cu1      1.0000 0.47528  0.72061  0.45476  Biso   1.000  Cu
  Cu2      1.0000 0.52472  0.22061  0.04524  Biso   1.000  Cu
  Cu3      1.0000 0.52472  0.27939  0.54524  Biso   1.000  Cu
  Cu4      1.0000 0.47528  0.77939  0.95476  Biso   1.000  Cu
  Cu5      1.0000 0.75239  0.49156  0.24695  Biso   1.000  Cu
  Cu6      1.0000 0.24761  0.99156  0.25305  Biso   1.000  Cu
  Cu7      1.0000 0.24761  0.50844  0.75305  Biso   1.000  Cu
  Cu8      1.0000 0.75239  0.00844  0.74695  Biso   1.000  Cu
  O1       1.0000 0.74150  0.51295  0.34484  Biso   1.000  O
  O2       1.0000 0.25850  0.01295  0.15516  Biso   1.000  O
  O3       1.0000 0.25850  0.48705  0.65516  Biso   1.000  O
  O4       1.0000 0.74150  0.98705  0.84484  Biso   1.000  O
  O5       1.0000 0.54100  0.59855  0.31984  Biso   1.000  O
  O6       1.0000 0.45900  0.09855  0.18016  Biso   1.000  O
  O7       1.0000 0.45900  0.40145  0.68016  Biso   1.000  O
  O8       1.0000 0.54100  0.90145  0.81984  Biso   1.000  O
  O9       1.0000 0.39540  0.82037  0.44812  Biso   1.000  O
  O10      1.0000 0.60460  0.32037  0.05188  Biso   1.000  O
  O11      1.0000 0.60460  0.17963  0.55188  Biso   1.000  O
  O12      1.0000 0.39540  0.67963  0.94812  Biso   1.000  O
  O13      1.0000 0.31520  0.83107  0.33118  Biso   1.000  O
  O14      1.0000 0.68480  0.33107  0.16882  Biso   1.000  O
  O15      1.0000 0.68480  0.16893  0.66882  Biso   1.000  O
  O16      1.0000 0.31520  0.66893  0.83118  Biso   1.000  O
  O17      1.0000 0.47320  0.46606  0.22601  Biso   1.000  O
  O18      1.0000 0.52680  0.96606  0.27399  Biso   1.000  O
  O19      1.0000 0.52680  0.53394  0.77399  Biso   1.000  O
  O20      1.0000 0.47320  0.03394  0.72601  Biso   1.000  O
  O21      1.0000 0.44980  0.55586  0.15243  Biso   1.000  O
  O22      1.0000 0.55020  0.05586  0.34757  Biso   1.000  O
  O23      1.0000 0.55020  0.44414  0.84757  Biso   1.000  O
  O24      1.0000 0.44980  0.94414  0.65243  Biso   1.000  O
  O25      1.0000 0.21270  0.49961  0.17488  Biso   1.000  O
  O26      1.0000 0.78730  0.99961  0.32512  Biso   1.000  O
  O27      1.0000 0.78730  0.50039  0.82512  Biso   1.000  O
  O28      1.0000 0.21270  0.00039  0.67488  Biso   1.000  O
  O29      1.0000 0.20140  0.64030  0.57969  Biso   1.000  O
  O30      1.0000 0.79860  0.14030  0.92031  Biso   1.000  O
  O31      1.0000 0.79860  0.35970  0.42031  Biso   1.000  O
  O32      1.0000 0.20140  0.85970  0.07969  Biso   1.000  O
  O33      1.0000 0.94750  0.68800  0.54460  Biso   1.000  O
  O34      1.0000 0.05250  0.18800  0.95540  Biso   1.000  O
  O35      1.0000 0.05250  0.31200  0.45540  Biso   1.000  O
  O36      1.0000 0.94750  0.81200  0.04460  Biso   1.000  O
  O37      1.0000 0.15610  0.69060  0.47760  Biso   1.000  O
  O38      1.0000 0.84390  0.19060  0.02240  Biso   1.000  O
  O39      1.0000 0.84390  0.30940  0.52240  Biso   1.000  O
  O40      1.0000 0.15610  0.80940  0.97760  Biso   1.000  O
  O41      1.0000 0.75250  0.74770  0.41420  Biso   1.000  O
  O42      1.0000 0.24750  0.24770  0.08580  Biso   1.000  O
  O43      1.0000 0.24750  0.25230  0.58580  Biso   1.000  O
  O44      1.0000 0.75250  0.75230  0.91420  Biso   1.000  O
  H1       1.0000 0.83800  0.73500  0.44400  Biso   1.000  H
  H2       1.0000 0.16200  0.23500  0.05600  Biso   1.000  H
  H3       1.0000 0.16200  0.26500  0.55600  Biso   1.000  H
  H4       1.0000 0.83800  0.76500  0.94400  Biso   1.000  H
  H5       1.0000 0.79700  0.78000  0.39300  Biso   1.000  H
  H6       1.0000 0.20300  0.28000  0.10700  Biso   1.000  H
  H7       1.0000 0.20300  0.22000  0.60700  Biso   1.000  H
  H8       1.0000 0.79700  0.72000  0.89300  Biso   1.000  H
  O45      1.0000 0.35880  0.69774  0.36100  Biso   1.000  O
  O46      1.0000 0.64120  0.19774  0.13900  Biso   1.000  O
  O47      1.0000 0.64120  0.30226  0.63900  Biso   1.000  O
  O48      1.0000 0.35880  0.80226  0.86100  Biso   1.000  O
  H9       1.0000 0.33000  0.73300  0.33800  Biso   1.000  H
  H10      1.0000 0.67000  0.23300  0.16200  Biso   1.000  H
  H11      1.0000 0.67000  0.26700  0.66200  Biso   1.000  H
  H12      1.0000 0.33000  0.76700  0.83800  Biso   1.000  H
  H13      1.0000 0.44100  0.68000  0.34400  Biso   1.000  H
  H14      1.0000 0.55900  0.18000  0.15600  Biso   1.000  H
  H15      1.0000 0.55900  0.32000  0.65600  Biso   1.000  H
  H16      1.0000 0.44100  0.82000  0.84400  Biso   1.000  H
  O49      1.0000 0.84120  0.39308  0.28173  Biso   1.000  O
  O50      1.0000 0.15880  0.89308  0.21827  Biso   1.000  O
  O51      1.0000 0.15880  0.60692  0.71827  Biso   1.000  O
  O52      1.0000 0.84120  0.10692  0.78173  Biso   1.000  O
  H17      1.0000 0.82200  0.38200  0.32140  Biso   1.000  H
  H18      1.0000 0.17800  0.88200  0.17860  Biso   1.000  H
  H19      1.0000 0.17800  0.61800  0.67860  Biso   1.000  H
  H20      1.0000 0.82200  0.11800  0.82140  Biso   1.000  H
  H21      1.0000 0.78600  0.36900  0.25250  Biso   1.000  H
  H22      1.0000 0.21400  0.86900  0.24750  Biso   1.000  H
  H23      1.0000 0.21400  0.63100  0.74750  Biso   1.000  H
  H24      1.0000 0.78600  0.13100  0.75250  Biso   1.000  H
  O53      1.0000 0.87790  0.85409  0.32560  Biso   1.000  O
  O54      1.0000 0.12210  0.35409  0.17440  Biso   1.000  O
  O55      1.0000 0.12210  0.14591  0.67440  Biso   1.000  O
  O56      1.0000 0.87790  0.64591  0.82560  Biso   1.000  O
  H25      1.0000 0.84800  0.89640  0.31900  Biso   1.000  H
  H26      1.0000 0.15200  0.39640  0.18100  Biso   1.000  H
  H27      1.0000 0.15200  0.10360  0.68100  Biso   1.000  H
  H28      1.0000 0.84800  0.60360  0.81900  Biso   1.000  H
  H29      1.0000 0.95400  0.85000  0.29800  Biso   1.000  H
  H30      1.0000 0.04600  0.35000  0.20200  Biso   1.000  H
  H31      1.0000 0.04600  0.15000  0.70200  Biso   1.000  H
  H32      1.0000 0.95400  0.65000  0.79800  Biso   1.000  H
  N1       1.0000 0.37720  0.50830  0.18380  Biso   1.000  N
  N2       1.0000 0.62280  0.00830  0.31620  Biso   1.000  N
  N3       1.0000 0.62280  0.49170  0.81620  Biso   1.000  N
  N4       1.0000 0.37720  0.99170  0.68380  Biso   1.000  N
  N5       1.0000 0.10100  0.67230  0.53361  Biso   1.000  N
  N6       1.0000 0.89900  0.17230  0.96639  Biso   1.000  N
  N7       1.0000 0.89900  0.32770  0.46639  Biso   1.000  N
  N8       1.0000 0.10100  0.82770  0.03361  Biso   1.000  N
  N9       1.0000 0.53560  0.72691  0.55960  Biso   1.000  N
  N10      1.0000 0.46440  0.22691  0.94040  Biso   1.000  N
  N11      1.0000 0.46440  0.27309  0.44040  Biso   1.000  N
  N12      1.0000 0.53560  0.77309  0.05960  Biso   1.000  N
  N13      1.0000 0.57990  0.62386  0.47461  Biso   1.000  N
  N14      1.0000 0.42010  0.12386  0.02539  Biso   1.000  N
  N15      1.0000 0.42010  0.37614  0.52539  Biso   1.000  N
  N16      1.0000 0.57990  0.87614  0.97461  Biso   1.000  N
  N17      1.0000 0.13120  0.08207  0.27585  Biso   1.000  N
  N18      1.0000 0.86880  0.58207  0.22415  Biso   1.000  N
  N19      1.0000 0.86880  0.91793  0.72415  Biso   1.000  N
  N20      1.0000 0.13120  0.41793  0.77585  Biso   1.000  N
  N21      1.0000 0.21760  0.97367  0.35543  Biso   1.000  N
  N22      1.0000 0.78240  0.47367  0.14457  Biso   1.000  N
  N23      1.0000 0.78240  0.02633  0.64457  Biso   1.000  N
  N24      1.0000 0.21760  0.52633  0.85543  Biso   1.000  N
  C1       1.0000 0.50000  0.78290  0.59950  Biso   1.000  C
  C2       1.0000 0.50000  0.28290  0.90050  Biso   1.000  C
  C3       1.0000 0.50000  0.21710  0.40050  Biso   1.000  C
  C4       1.0000 0.50000  0.71710  0.09950  Biso   1.000  C
  H33      1.0000 0.45830  0.82530  0.57600  Biso   1.000  H
  H34      1.0000 0.54170  0.32530  0.92400  Biso   1.000  H
  H35      1.0000 0.54170  0.17470  0.42400  Biso   1.000  H
  H36      1.0000 0.45830  0.67470  0.07600  Biso   1.000  H
  C5       1.0000 0.52150  0.78120  0.67320  Biso   1.000  C
  C6       1.0000 0.47850  0.28120  0.82680  Biso   1.000  C
  C7       1.0000 0.47850  0.21880  0.32680  Biso   1.000  C
  C8       1.0000 0.52150  0.71880  0.17320  Biso   1.000  C
  H37      1.0000 0.49740  0.82170  0.70020  Biso   1.000  H
  H38      1.0000 0.50260  0.32170  0.79980  Biso   1.000  H
  H39      1.0000 0.50260  0.17830  0.29980  Biso   1.000  H
  H40      1.0000 0.49740  0.67830  0.20020  Biso   1.000  H
  C9       1.0000 0.57880  0.71930  0.70620  Biso   1.000  C
  C10      1.0000 0.42120  0.21930  0.79380  Biso   1.000  C
  C11      1.0000 0.42120  0.28070  0.29380  Biso   1.000  C
  C12      1.0000 0.57880  0.78070  0.20620  Biso   1.000  C
  H41      1.0000 0.59540  0.71680  0.75680  Biso   1.000  H
  H42      1.0000 0.40460  0.21680  0.74320  Biso   1.000  H
  H43      1.0000 0.40460  0.28320  0.24320  Biso   1.000  H
  H44      1.0000 0.59540  0.78320  0.25680  Biso   1.000  H
  C13      1.0000 0.61290  0.66030  0.66660  Biso   1.000  C
  C14      1.0000 0.38710  0.16030  0.83340  Biso   1.000  C
  C15      1.0000 0.38710  0.33970  0.33340  Biso   1.000  C
  C16      1.0000 0.61290  0.83970  0.16660  Biso   1.000  C
  H45      1.0000 0.64890  0.61670  0.68890  Biso   1.000  H
  H46      1.0000 0.35110  0.11670  0.81110  Biso   1.000  H
  H47      1.0000 0.35110  0.38330  0.31110  Biso   1.000  H
  H48      1.0000 0.64890  0.88330  0.18890  Biso   1.000  H
  C17      1.0000 0.59200  0.66770  0.59280  Biso   1.000  C
  C18      1.0000 0.40800  0.16770  0.90720  Biso   1.000  C
  C19      1.0000 0.40800  0.33230  0.40720  Biso   1.000  C
  C20      1.0000 0.59200  0.83230  0.09280  Biso   1.000  C
  N25      1.0000 0.62510  0.61181  0.54623  Biso   1.000  N
  N26      1.0000 0.37490  0.11181  0.95377  Biso   1.000  N
  N27      1.0000 0.37490  0.38819  0.45377  Biso   1.000  N
  N28      1.0000 0.62510  0.88819  0.04623  Biso   1.000  N
  C21      1.0000 0.71700  0.54940  0.55790  Biso   1.000  C
  C22      1.0000 0.28300  0.04940  0.94210  Biso   1.000  C
  C23      1.0000 0.28300  0.45060  0.44210  Biso   1.000  C
  C24      1.0000 0.71700  0.95060  0.05790  Biso   1.000  C
  C25      1.0000 0.79060  0.51950  0.62880  Biso   1.000  C
  C26      1.0000 0.20940  0.01950  0.87120  Biso   1.000  C
  C27      1.0000 0.20940  0.48050  0.37120  Biso   1.000  C
  C28      1.0000 0.79060  0.98050  0.12880  Biso   1.000  C
  H49      1.0000 0.85810  0.47630  0.62190  Biso   1.000  H
  H50      1.0000 0.14190  0.97630  0.87810  Biso   1.000  H
  H51      1.0000 0.14190  0.52370  0.37810  Biso   1.000  H
  H52      1.0000 0.85810  0.02370  0.12190  Biso   1.000  H
  H53      1.0000 0.69170  0.50840  0.65610  Biso   1.000  H
  H54      1.0000 0.30830  0.00840  0.84390  Biso   1.000  H
  H55      1.0000 0.30830  0.49160  0.34390  Biso   1.000  H
  H56      1.0000 0.69170  0.99160  0.15610  Biso   1.000  H
  H57      1.0000 0.87030  0.55420  0.65510  Biso   1.000  H
  H58      1.0000 0.12970  0.05420  0.84490  Biso   1.000  H
  H59      1.0000 0.12970  0.44580  0.34490  Biso   1.000  H
  H60      1.0000 0.87030  0.94580  0.15510  Biso   1.000  H
  C29      1.0000 0.73090  0.52160  0.49210  Biso   1.000  C
  C30      1.0000 0.26910  0.02160  0.00790  Biso   1.000  C
  C31      1.0000 0.26910  0.47840  0.50790  Biso   1.000  C
  C32      1.0000 0.73090  0.97840  0.99210  Biso   1.000  C
  H61      1.0000 0.78680  0.47830  0.48240  Biso   1.000  H
  H62      1.0000 0.21320  0.97830  0.01760  Biso   1.000  H
  H63      1.0000 0.21320  0.52170  0.51760  Biso   1.000  H
  H64      1.0000 0.78680  0.02170  0.98240  Biso   1.000  H
  C33      1.0000 0.64710  0.56890  0.44200  Biso   1.000  C
  C34      1.0000 0.35290  0.06890  0.05800  Biso   1.000  C
  C35      1.0000 0.35290  0.43110  0.55800  Biso   1.000  C
  C36      1.0000 0.64710  0.93110  0.94200  Biso   1.000  C
  C37      1.0000 0.63810  0.56110  0.36250  Biso   1.000  C
  C38      1.0000 0.36190  0.06110  0.13750  Biso   1.000  C
  C39      1.0000 0.36190  0.43890  0.63750  Biso   1.000  C
  C40      1.0000 0.63810  0.93890  0.86250  Biso   1.000  C
  C41      1.0000 0.07000  0.13290  0.22880  Biso   1.000  C
  C42      1.0000 0.93000  0.63290  0.27120  Biso   1.000  C
  C43      1.0000 0.93000  0.86710  0.77120  Biso   1.000  C
  C44      1.0000 0.07000  0.36710  0.72880  Biso   1.000  C
  H65      1.0000 0.07820  0.12590  0.17950  Biso   1.000  H
  H66      1.0000 0.92180  0.62590  0.32050  Biso   1.000  H
  H67      1.0000 0.92180  0.87410  0.82050  Biso   1.000  H
  H68      1.0000 0.07820  0.37410  0.67950  Biso   1.000  H
  C45      1.0000 0.99610  0.19460  0.25000  Biso   1.000  C
  C46      1.0000 0.00390  0.69460  0.25000  Biso   1.000  C
  C47      1.0000 0.00390  0.80540  0.75000  Biso   1.000  C
  C48      1.0000 0.99610  0.30540  0.75000  Biso   1.000  C
  H69      1.0000 0.95770  0.23050  0.21630  Biso   1.000  H
  H70      1.0000 0.04230  0.73050  0.28370  Biso   1.000  H
  H71      1.0000 0.04230  0.76950  0.78370  Biso   1.000  H
  H72      1.0000 0.95770  0.26950  0.71630  Biso   1.000  H
  C49      1.0000 0.97910  0.20320  0.32050  Biso   1.000  C
  C50      1.0000 0.02090  0.70320  0.17950  Biso   1.000  C
  C51      1.0000 0.02090  0.79680  0.67950  Biso   1.000  C
  C52      1.0000 0.97910  0.29680  0.82050  Biso   1.000  C
  H73      1.0000 0.92630  0.24510  0.33600  Biso   1.000  H
  H74      1.0000 0.07370  0.74510  0.16400  Biso   1.000  H
  H75      1.0000 0.07370  0.75490  0.66400  Biso   1.000  H
  H76      1.0000 0.92630  0.25490  0.83600  Biso   1.000  H
  C53      1.0000 0.03820  0.15140  0.36960  Biso   1.000  C
  C54      1.0000 0.96180  0.65140  0.13040  Biso   1.000  C
  C55      1.0000 0.96180  0.84860  0.63040  Biso   1.000  C
  C56      1.0000 0.03820  0.34860  0.86960  Biso   1.000  C
  H77      1.0000 0.02700  0.15680  0.41880  Biso   1.000  H
  H78      1.0000 0.97300  0.65680  0.08120  Biso   1.000  H
  H79      1.0000 0.97300  0.84320  0.58120  Biso   1.000  H
  H80      1.0000 0.02700  0.34320  0.91880  Biso   1.000  H
  C57      1.0000 0.11300  0.09230  0.34450  Biso   1.000  C
  C58      1.0000 0.88700  0.59230  0.15550  Biso   1.000  C
  C59      1.0000 0.88700  0.90770  0.65550  Biso   1.000  C
  C60      1.0000 0.11300  0.40770  0.84450  Biso   1.000  C
  N29      1.0000 0.17830  0.03473  0.38881  Biso   1.000  N
  N30      1.0000 0.82170  0.53473  0.11119  Biso   1.000  N
  N31      1.0000 0.82170  0.96527  0.61119  Biso   1.000  N
  N32      1.0000 0.17830  0.46527  0.88881  Biso   1.000  N
  C61      1.0000 0.21660  0.02810  0.46150  Biso   1.000  C
  C62      1.0000 0.78340  0.52810  0.03850  Biso   1.000  C
  C63      1.0000 0.78340  0.97190  0.53850  Biso   1.000  C
  C64      1.0000 0.21660  0.47190  0.96150  Biso   1.000  C
  C65      1.0000 0.20190  0.08630  0.51370  Biso   1.000  C
  C66      1.0000 0.79810  0.58630  0.98630  Biso   1.000  C
  C67      1.0000 0.79810  0.91370  0.48630  Biso   1.000  C
  C68      1.0000 0.20190  0.41370  0.01370  Biso   1.000  C
  H81      1.0000 0.25010  0.07030  0.56160  Biso   1.000  H
  H82      1.0000 0.74990  0.57030  0.93840  Biso   1.000  H
  H83      1.0000 0.74990  0.92970  0.43840  Biso   1.000  H
  H84      1.0000 0.25010  0.42970  0.06160  Biso   1.000  H
  H85      1.0000 0.07570  0.09950  0.51300  Biso   1.000  H
  H86      1.0000 0.92430  0.59950  0.98700  Biso   1.000  H
  H87      1.0000 0.92430  0.90050  0.48700  Biso   1.000  H
  H88      1.0000 0.07570  0.40050  0.01300  Biso   1.000  H
  H89      1.0000 0.27020  0.12740  0.50070  Biso   1.000  H
  H90      1.0000 0.72980  0.62740  0.99930  Biso   1.000  H
  H91      1.0000 0.72980  0.87260  0.49930  Biso   1.000  H
  H92      1.0000 0.27020  0.37260  0.00070  Biso   1.000  H
  C69      1.0000 0.27950  0.96110  0.47360  Biso   1.000  C
  C70      1.0000 0.72050  0.46110  0.02640  Biso   1.000  C
  C71      1.0000 0.72050  0.03890  0.52640  Biso   1.000  C
  C72      1.0000 0.27950  0.53890  0.97360  Biso   1.000  C
  H93      1.0000 0.31690  0.94040  0.51890  Biso   1.000  H
  H94      1.0000 0.68310  0.44040  0.98110  Biso   1.000  H
  H95      1.0000 0.68310  0.05960  0.48110  Biso   1.000  H
  H96      1.0000 0.31690  0.55960  0.01890  Biso   1.000  H
  C73      1.0000 0.27870  0.92860  0.40730  Biso   1.000  C
  C74      1.0000 0.72130  0.42860  0.09270  Biso   1.000  C
  C75      1.0000 0.72130  0.07140  0.59270  Biso   1.000  C
  C76      1.0000 0.27870  0.57140  0.90730  Biso   1.000  C
  C77      1.0000 0.33100  0.85430  0.39360  Biso   1.000  C
  C78      1.0000 0.66900  0.35430  0.10640  Biso   1.000  C
  C79      1.0000 0.66900  0.14570  0.60640  Biso   1.000  C
  C80      1.0000 0.33100  0.64570  0.89360  Biso   1.000  C
  O57      1.0000 0.97000  0.70470  0.55030  Biso   1.000  O
  O58      1.0000 0.03000  0.20470  0.94970  Biso   1.000  O
  O59      1.0000 0.03000  0.29530  0.44970  Biso   1.000  O
  O60      1.0000 0.97000  0.79530  0.05030  Biso   1.000  O
  O61      1.0000 0.12300  0.66730  0.47020  Biso   1.000  O
  O62      1.0000 0.87700  0.16730  0.02980  Biso   1.000  O
  O63      1.0000 0.87700  0.33270  0.52980  Biso   1.000  O
  O64      1.0000 0.12300  0.83270  0.97020  Biso   1.000  O
