data_image0
_cell_length_a       10.015
_cell_length_b       20.943
_cell_length_c       13.889
_cell_angle_alpha    90
_cell_angle_beta     91.473
_cell_angle_gamma    90

_symmetry_space_group_name_H-M    "P 1"
_symmetry_int_tables_number       1

loop_
  _symmetry_equiv_pos_as_xyz
  'x, y, z'

loop_
  _atom_site_label
  _atom_site_occupancy
  _atom_site_fract_x
  _atom_site_fract_y
  _atom_site_fract_z
  _atom_site_thermal_displace_type
  _atom_site_B_iso_or_equiv
  _atom_site_type_symbol
  Mo1      1.0000 0.75000  0.17741  0.25000  Biso   1.000  Mo
  Mo2      1.0000 0.25000  0.82259  0.75000  Biso   1.000  Mo
  Cu1      1.0000 0.39682  0.14288  0.31069  Biso   1.000  Cu
  Cu2      1.0000 0.10318  0.14288  0.18931  Biso   1.000  Cu
  Cu3      1.0000 0.60318  0.85712  0.68931  Biso   1.000  Cu
  Cu4      1.0000 0.89682  0.85712  0.81069  Biso   1.000  Cu
  P1       1.0000 0.47780  0.20835  0.11508  Biso   1.000  P
  P2       1.0000 0.02220  0.20835  0.38492  Biso   1.000  P
  P3       1.0000 0.52220  0.79165  0.88492  Biso   1.000  P
  P4       1.0000 0.97780  0.79165  0.61508  Biso   1.000  P
  P5       1.0000 0.42158  0.71873  0.16734  Biso   1.000  P
  P6       1.0000 0.07842  0.71873  0.33266  Biso   1.000  P
  P7       1.0000 0.57842  0.28127  0.83266  Biso   1.000  P
  P8       1.0000 0.92158  0.28127  0.66734  Biso   1.000  P
  P9       1.0000 0.55322  0.25572  0.39740  Biso   1.000  P
  P10      1.0000 0.94678  0.25572  0.10260  Biso   1.000  P
  P11      1.0000 0.44678  0.74428  0.60260  Biso   1.000  P
  P12      1.0000 0.05322  0.74428  0.89740  Biso   1.000  P
  O1       1.0000 0.44270  0.18369  0.01340  Biso   1.000  O
  O2       1.0000 0.05730  0.18369  0.48660  Biso   1.000  O
  O3       1.0000 0.55730  0.81631  0.98660  Biso   1.000  O
  O4       1.0000 0.94270  0.81631  0.51340  Biso   1.000  O
  H1       1.0000 0.45490  0.21290  0.97320  Biso   1.000  H
  H2       1.0000 0.04510  0.21290  0.52680  Biso   1.000  H
  H3       1.0000 0.54510  0.78710  0.02680  Biso   1.000  H
  H4       1.0000 0.95490  0.78710  0.47320  Biso   1.000  H
  O5       1.0000 0.38180  0.17908  0.18450  Biso   1.000  O
  O6       1.0000 0.11820  0.17908  0.31550  Biso   1.000  O
  O7       1.0000 0.61820  0.82092  0.81550  Biso   1.000  O
  O8       1.0000 0.88180  0.82092  0.68450  Biso   1.000  O
  O9       1.0000 0.62480  0.19019  0.13810  Biso   1.000  O
  O10      1.0000 0.87520  0.19019  0.36190  Biso   1.000  O
  O11      1.0000 0.37520  0.80981  0.86190  Biso   1.000  O
  O12      1.0000 0.12480  0.80981  0.63810  Biso   1.000  O
  O13      1.0000 0.54620  0.74900  0.12920  Biso   1.000  O
  O14      1.0000 0.95380  0.74900  0.37080  Biso   1.000  O
  O15      1.0000 0.45380  0.25100  0.87080  Biso   1.000  O
  O16      1.0000 0.04620  0.25100  0.62920  Biso   1.000  O
  O17      1.0000 0.28980  0.74083  0.12440  Biso   1.000  O
  O18      1.0000 0.21020  0.74083  0.37560  Biso   1.000  O
  O19      1.0000 0.71020  0.25917  0.87560  Biso   1.000  O
  O20      1.0000 0.78980  0.25917  0.62440  Biso   1.000  O
  O21      1.0000 0.42890  0.73193  0.27890  Biso   1.000  O
  O22      1.0000 0.07110  0.73193  0.22110  Biso   1.000  O
  O23      1.0000 0.57110  0.26807  0.72110  Biso   1.000  O
  O24      1.0000 0.92890  0.26807  0.77890  Biso   1.000  O
  O25      1.0000 0.42110  0.22262  0.37740  Biso   1.000  O
  O26      1.0000 0.07890  0.22262  0.12260  Biso   1.000  O
  O27      1.0000 0.57890  0.77738  0.62260  Biso   1.000  O
  O28      1.0000 0.92110  0.77738  0.87740  Biso   1.000  O
  O29      1.0000 0.64810  0.25532  0.31400  Biso   1.000  O
  O30      1.0000 0.85190  0.25532  0.18600  Biso   1.000  O
  O31      1.0000 0.35190  0.74468  0.68600  Biso   1.000  O
  O32      1.0000 0.14810  0.74468  0.81400  Biso   1.000  O
  O33      1.0000 0.61590  0.22267  0.48870  Biso   1.000  O
  O34      1.0000 0.88410  0.22267  0.01130  Biso   1.000  O
  O35      1.0000 0.38410  0.77733  0.51130  Biso   1.000  O
  O36      1.0000 0.11590  0.77733  0.98870  Biso   1.000  O
  O37      1.0000 0.64500  0.12550  0.30810  Biso   1.000  O
  O38      1.0000 0.85500  0.12550  0.19190  Biso   1.000  O
  O39      1.0000 0.35500  0.87450  0.69190  Biso   1.000  O
  O40      1.0000 0.14500  0.87450  0.80810  Biso   1.000  O
  O41      1.0000 0.25000  0.19030  0.75000  Biso   1.000  O
  O42      1.0000 0.75000  0.80970  0.25000  Biso   1.000  O
  N1       1.0000 0.40980  0.05359  0.25580  Biso   1.000  N
  N2       1.0000 0.09020  0.05359  0.24420  Biso   1.000  N
  N3       1.0000 0.59020  0.94641  0.74420  Biso   1.000  N
  N4       1.0000 0.90980  0.94641  0.75580  Biso   1.000  N
  N5       1.0000 0.35360  0.09545  0.42900  Biso   1.000  N
  N6       1.0000 0.14640  0.09545  0.07100  Biso   1.000  N
  N7       1.0000 0.64640  0.90455  0.57100  Biso   1.000  N
  N8       1.0000 0.85360  0.90455  0.92900  Biso   1.000  N
  C1       1.0000 0.46730  0.29390  0.11780  Biso   1.000  C
  C2       1.0000 0.03270  0.29390  0.38220  Biso   1.000  C
  C3       1.0000 0.53270  0.70610  0.88220  Biso   1.000  C
  C4       1.0000 0.96730  0.70610  0.61780  Biso   1.000  C
  C5       1.0000 0.34810  0.32410  0.13920  Biso   1.000  C
  C6       1.0000 0.15190  0.32410  0.36080  Biso   1.000  C
  C7       1.0000 0.65190  0.67590  0.86080  Biso   1.000  C
  C8       1.0000 0.84810  0.67590  0.63920  Biso   1.000  C
  H5       1.0000 0.27120  0.29930  0.15220  Biso   1.000  H
  H6       1.0000 0.22880  0.29930  0.34780  Biso   1.000  H
  H7       1.0000 0.72880  0.70070  0.84780  Biso   1.000  H
  H8       1.0000 0.77120  0.70070  0.65220  Biso   1.000  H
  C9       1.0000 0.34100  0.39040  0.14160  Biso   1.000  C
  C10      1.0000 0.15900  0.39040  0.35840  Biso   1.000  C
  C11      1.0000 0.65900  0.60960  0.85840  Biso   1.000  C
  C12      1.0000 0.84100  0.60960  0.64160  Biso   1.000  C
  H9       1.0000 0.25870  0.41020  0.15600  Biso   1.000  H
  H10      1.0000 0.24130  0.41020  0.34400  Biso   1.000  H
  H11      1.0000 0.74130  0.58980  0.84400  Biso   1.000  H
  H12      1.0000 0.75870  0.58980  0.65600  Biso   1.000  H
  C13      1.0000 0.45190  0.42840  0.12330  Biso   1.000  C
  C14      1.0000 0.04810  0.42840  0.37670  Biso   1.000  C
  C15      1.0000 0.54810  0.57160  0.87670  Biso   1.000  C
  C16      1.0000 0.95190  0.57160  0.62330  Biso   1.000  C
  C17      1.0000 0.57010  0.39720  0.09990  Biso   1.000  C
  C18      1.0000 0.92990  0.39720  0.40010  Biso   1.000  C
  C19      1.0000 0.42990  0.60280  0.90010  Biso   1.000  C
  C20      1.0000 0.07010  0.60280  0.59990  Biso   1.000  C
  H13      1.0000 0.64680  0.42180  0.08560  Biso   1.000  H
  H14      1.0000 0.85320  0.42180  0.41440  Biso   1.000  H
  H15      1.0000 0.35320  0.57820  0.91440  Biso   1.000  H
  H16      1.0000 0.14680  0.57820  0.58560  Biso   1.000  H
  C21      1.0000 0.57780  0.33160  0.09730  Biso   1.000  C
  C22      1.0000 0.92220  0.33160  0.40270  Biso   1.000  C
  C23      1.0000 0.42220  0.66840  0.90270  Biso   1.000  C
  C24      1.0000 0.07780  0.66840  0.59730  Biso   1.000  C
  H17      1.0000 0.65950  0.31170  0.08120  Biso   1.000  H
  H18      1.0000 0.84050  0.31170  0.41880  Biso   1.000  H
  H19      1.0000 0.34050  0.68830  0.91880  Biso   1.000  H
  H20      1.0000 0.15950  0.68830  0.58120  Biso   1.000  H
  C25      1.0000 0.44530  0.49900  0.13200  Biso   1.000  C
  C26      1.0000 0.05470  0.49900  0.36800  Biso   1.000  C
  C27      1.0000 0.55470  0.50100  0.86800  Biso   1.000  C
  C28      1.0000 0.94530  0.50100  0.63200  Biso   1.000  C
  C29      1.0000 0.32470  0.53140  0.12580  Biso   1.000  C
  C30      1.0000 0.17530  0.53140  0.37420  Biso   1.000  C
  C31      1.0000 0.67530  0.46860  0.87420  Biso   1.000  C
  C32      1.0000 0.82470  0.46860  0.62580  Biso   1.000  C
  H21      1.0000 0.24450  0.50810  0.11410  Biso   1.000  H
  H22      1.0000 0.25550  0.50810  0.38590  Biso   1.000  H
  H23      1.0000 0.75550  0.49190  0.88590  Biso   1.000  H
  H24      1.0000 0.74450  0.49190  0.61410  Biso   1.000  H
  C33      1.0000 0.31870  0.59740  0.13640  Biso   1.000  C
  C34      1.0000 0.18130  0.59740  0.36360  Biso   1.000  C
  C35      1.0000 0.68130  0.40260  0.86360  Biso   1.000  C
  C36      1.0000 0.81870  0.40260  0.63640  Biso   1.000  C
  H25      1.0000 0.23450  0.61820  0.13230  Biso   1.000  H
  H26      1.0000 0.26550  0.61820  0.36770  Biso   1.000  H
  H27      1.0000 0.76550  0.38180  0.86770  Biso   1.000  H
  H28      1.0000 0.73450  0.38180  0.63230  Biso   1.000  H
  C37      1.0000 0.43260  0.63340  0.15280  Biso   1.000  C
  C38      1.0000 0.06740  0.63340  0.34720  Biso   1.000  C
  C39      1.0000 0.56740  0.36660  0.84720  Biso   1.000  C
  C40      1.0000 0.93260  0.36660  0.65280  Biso   1.000  C
  C41      1.0000 0.55530  0.60140  0.15710  Biso   1.000  C
  C42      1.0000 0.94470  0.60140  0.34290  Biso   1.000  C
  C43      1.0000 0.44470  0.39860  0.84290  Biso   1.000  C
  C44      1.0000 0.05530  0.39860  0.65710  Biso   1.000  C
  H29      1.0000 0.63540  0.62500  0.16670  Biso   1.000  H
  H30      1.0000 0.86460  0.62500  0.33330  Biso   1.000  H
  H31      1.0000 0.36460  0.37500  0.83330  Biso   1.000  H
  H32      1.0000 0.13540  0.37500  0.66670  Biso   1.000  H
  C45      1.0000 0.56130  0.53550  0.14740  Biso   1.000  C
  C46      1.0000 0.93870  0.53550  0.35260  Biso   1.000  C
  C47      1.0000 0.43870  0.46450  0.85260  Biso   1.000  C
  C48      1.0000 0.06130  0.46450  0.64740  Biso   1.000  C
  H33      1.0000 0.64560  0.51470  0.15120  Biso   1.000  H
  H34      1.0000 0.85440  0.51470  0.34880  Biso   1.000  H
  H35      1.0000 0.35440  0.48530  0.84880  Biso   1.000  H
  H36      1.0000 0.14560  0.48530  0.65120  Biso   1.000  H
  C49      1.0000 0.52780  0.33728  0.42920  Biso   1.000  C
  C50      1.0000 0.97220  0.33728  0.07080  Biso   1.000  C
  C51      1.0000 0.47220  0.66272  0.57080  Biso   1.000  C
  C52      1.0000 0.02780  0.66272  0.92920  Biso   1.000  C
  C53      1.0000 0.47880  0.35320  0.51870  Biso   1.000  C
  C54      1.0000 0.02120  0.35320  0.98130  Biso   1.000  C
  C55      1.0000 0.52120  0.64680  0.48130  Biso   1.000  C
  C56      1.0000 0.97880  0.64680  0.01870  Biso   1.000  C
  H37      1.0000 0.45240  0.32050  0.56160  Biso   1.000  H
  H38      1.0000 0.04760  0.32050  0.93840  Biso   1.000  H
  H39      1.0000 0.54760  0.67950  0.43840  Biso   1.000  H
  H40      1.0000 0.95240  0.67950  0.06160  Biso   1.000  H
  C57      1.0000 0.46820  0.41660  0.54560  Biso   1.000  C
  C58      1.0000 0.03180  0.41660  0.95440  Biso   1.000  C
  C59      1.0000 0.53180  0.58340  0.45440  Biso   1.000  C
  C60      1.0000 0.96820  0.58340  0.04560  Biso   1.000  C
  H41      1.0000 0.43550  0.42670  0.60740  Biso   1.000  H
  H42      1.0000 0.06450  0.42670  0.89260  Biso   1.000  H
  H43      1.0000 0.56450  0.57330  0.39260  Biso   1.000  H
  H44      1.0000 0.93550  0.57330  0.10740  Biso   1.000  H
  C61      1.0000 0.50430  0.46592  0.48450  Biso   1.000  C
  C62      1.0000 0.99570  0.46592  0.01550  Biso   1.000  C
  C63      1.0000 0.49570  0.53408  0.51550  Biso   1.000  C
  C64      1.0000 0.00430  0.53408  0.98450  Biso   1.000  C
  C65      1.0000 0.54920  0.44910  0.39440  Biso   1.000  C
  C66      1.0000 0.95080  0.44910  0.10560  Biso   1.000  C
  C67      1.0000 0.45080  0.55090  0.60560  Biso   1.000  C
  C68      1.0000 0.04920  0.55090  0.89440  Biso   1.000  C
  H45      1.0000 0.57230  0.48180  0.35040  Biso   1.000  H
  H46      1.0000 0.92770  0.48180  0.14960  Biso   1.000  H
  H47      1.0000 0.42770  0.51820  0.64960  Biso   1.000  H
  H48      1.0000 0.07230  0.51820  0.85040  Biso   1.000  H
  C69      1.0000 0.56140  0.38620  0.36690  Biso   1.000  C
  C70      1.0000 0.93860  0.38620  0.13310  Biso   1.000  C
  C71      1.0000 0.43860  0.61380  0.63310  Biso   1.000  C
  C72      1.0000 0.06140  0.61380  0.86690  Biso   1.000  C
  H49      1.0000 0.59310  0.37620  0.30490  Biso   1.000  H
  H50      1.0000 0.90690  0.37620  0.19510  Biso   1.000  H
  H51      1.0000 0.40690  0.62380  0.69510  Biso   1.000  H
  H52      1.0000 0.09310  0.62380  0.80490  Biso   1.000  H
  C73      1.0000 0.44530  0.03420  0.16830  Biso   1.000  C
  C74      1.0000 0.05470  0.03420  0.33170  Biso   1.000  C
  C75      1.0000 0.55470  0.96580  0.83170  Biso   1.000  C
  C76      1.0000 0.94530  0.96580  0.66830  Biso   1.000  C
  H53      1.0000 0.46000  0.06520  0.11990  Biso   1.000  H
  H54      1.0000 0.04000  0.06520  0.38010  Biso   1.000  H
  H55      1.0000 0.54000  0.93480  0.88010  Biso   1.000  H
  H56      1.0000 0.96000  0.93480  0.61990  Biso   1.000  H
  C77      1.0000 0.46150  0.96970  0.14610  Biso   1.000  C
  C78      1.0000 0.03850  0.96970  0.35390  Biso   1.000  C
  C79      1.0000 0.53850  0.03030  0.85390  Biso   1.000  C
  C80      1.0000 0.96150  0.03030  0.64610  Biso   1.000  C
  H57      1.0000 0.48870  0.95760  0.08370  Biso   1.000  H
  H58      1.0000 0.01130  0.95760  0.41630  Biso   1.000  H
  H59      1.0000 0.51130  0.04240  0.91630  Biso   1.000  H
  H60      1.0000 0.98870  0.04240  0.58370  Biso   1.000  H
  C81      1.0000 0.43830  0.92360  0.21370  Biso   1.000  C
  C82      1.0000 0.06170  0.92360  0.28630  Biso   1.000  C
  C83      1.0000 0.56170  0.07640  0.78630  Biso   1.000  C
  C84      1.0000 0.93830  0.07640  0.71370  Biso   1.000  C
  H61      1.0000 0.44850  0.87970  0.19830  Biso   1.000  H
  H62      1.0000 0.05150  0.87970  0.30170  Biso   1.000  H
  H63      1.0000 0.55150  0.12030  0.80170  Biso   1.000  H
  H64      1.0000 0.94850  0.12030  0.69830  Biso   1.000  H
  C85      1.0000 0.39910  0.94220  0.30640  Biso   1.000  C
  C86      1.0000 0.10090  0.94220  0.19360  Biso   1.000  C
  C87      1.0000 0.60090  0.05780  0.69360  Biso   1.000  C
  C88      1.0000 0.89910  0.05780  0.80640  Biso   1.000  C
  C89      1.0000 0.38890  0.00790  0.32360  Biso   1.000  C
  C90      1.0000 0.11110  0.00790  0.17640  Biso   1.000  C
  C91      1.0000 0.61110  0.99210  0.67640  Biso   1.000  C
  C92      1.0000 0.88890  0.99210  0.82360  Biso   1.000  C
  C93      1.0000 0.36960  0.89850  0.38250  Biso   1.000  C
  C94      1.0000 0.13040  0.89850  0.11750  Biso   1.000  C
  C95      1.0000 0.63040  0.10150  0.61750  Biso   1.000  C
  C96      1.0000 0.86960  0.10150  0.88250  Biso   1.000  C
  H65      1.0000 0.37530  0.85380  0.37160  Biso   1.000  H
  H66      1.0000 0.12470  0.85380  0.12840  Biso   1.000  H
  H67      1.0000 0.62470  0.14620  0.62840  Biso   1.000  H
  H68      1.0000 0.87530  0.14620  0.87160  Biso   1.000  H
  C97      1.0000 0.33370  0.92040  0.46930  Biso   1.000  C
  C98      1.0000 0.16630  0.92040  0.03070  Biso   1.000  C
  C99      1.0000 0.66630  0.07960  0.53070  Biso   1.000  C
  C100     1.0000 0.83370  0.07960  0.96930  Biso   1.000  C
  H69      1.0000 0.31330  0.89050  0.51830  Biso   1.000  H
  H70      1.0000 0.18670  0.89050  0.98170  Biso   1.000  H
  H71      1.0000 0.68670  0.10950  0.48170  Biso   1.000  H
  H72      1.0000 0.81330  0.10950  0.01830  Biso   1.000  H
  C101     1.0000 0.32550  0.98770  0.49040  Biso   1.000  C
  C102     1.0000 0.17450  0.98770  0.00960  Biso   1.000  C
  C103     1.0000 0.67450  0.01230  0.50960  Biso   1.000  C
  C104     1.0000 0.82550  0.01230  0.99040  Biso   1.000  C
  C105     1.0000 0.35430  0.03090  0.41650  Biso   1.000  C
  C106     1.0000 0.14570  0.03090  0.08350  Biso   1.000  C
  C107     1.0000 0.64570  0.96910  0.58350  Biso   1.000  C
  C108     1.0000 0.85430  0.96910  0.91650  Biso   1.000  C
  C109     1.0000 0.29340  0.01400  0.57950  Biso   1.000  C
  C110     1.0000 0.20660  0.01400  0.92050  Biso   1.000  C
  C111     1.0000 0.70660  0.98600  0.42050  Biso   1.000  C
  C112     1.0000 0.79340  0.98600  0.07950  Biso   1.000  C
  H73      1.0000 0.27330  0.98680  0.63180  Biso   1.000  H
  H74      1.0000 0.22670  0.98680  0.86820  Biso   1.000  H
  H75      1.0000 0.72670  0.01320  0.36820  Biso   1.000  H
  H76      1.0000 0.77330  0.01320  0.13180  Biso   1.000  H
  C113     1.0000 0.29100  0.07870  0.59160  Biso   1.000  C
  C114     1.0000 0.20900  0.07870  0.90840  Biso   1.000  C
  C115     1.0000 0.70900  0.92130  0.40840  Biso   1.000  C
  C116     1.0000 0.79100  0.92130  0.09160  Biso   1.000  C
  H77      1.0000 0.26820  0.09650  0.65180  Biso   1.000  H
  H78      1.0000 0.23180  0.09650  0.84820  Biso   1.000  H
  H79      1.0000 0.73180  0.90350  0.34820  Biso   1.000  H
  H80      1.0000 0.76820  0.90350  0.15180  Biso   1.000  H
  C117     1.0000 0.32250  0.11860  0.51420  Biso   1.000  C
  C118     1.0000 0.17750  0.11860  0.98580  Biso   1.000  C
  C119     1.0000 0.67750  0.88140  0.48580  Biso   1.000  C
  C120     1.0000 0.82250  0.88140  0.01420  Biso   1.000  C
  H81      1.0000 0.32140  0.16350  0.52330  Biso   1.000  H
  H82      1.0000 0.17860  0.16350  0.97670  Biso   1.000  H
  H83      1.0000 0.67860  0.83650  0.47670  Biso   1.000  H
  H84      1.0000 0.82140  0.83650  0.02330  Biso   1.000  H
  H85      1.0000 0.35300  0.73500  0.29800  Biso   1.000  H
  H86      1.0000 0.14700  0.73500  0.20200  Biso   1.000  H
  H87      1.0000 0.64700  0.26500  0.70200  Biso   1.000  H
  H88      1.0000 0.85300  0.26500  0.79800  Biso   1.000  H
  H89      1.0000 0.66500  0.23500  0.51100  Biso   1.000  H
  H90      1.0000 0.83500  0.23500  0.98900  Biso   1.000  H
  H91      1.0000 0.33500  0.76500  0.48900  Biso   1.000  H
  H92      1.0000 0.16500  0.76500  0.01100  Biso   1.000  H
