data_image0
_cell_length_a       14.7023
_cell_length_b       10.53
_cell_length_c       17.8012
_cell_angle_alpha    90
_cell_angle_beta     103.858
_cell_angle_gamma    90

_symmetry_space_group_name_H-M    "P 1"
_symmetry_int_tables_number       1

loop_
  _symmetry_equiv_pos_as_xyz
  'x, y, z'

loop_
  _atom_site_label
  _atom_site_occupancy
  _atom_site_fract_x
  _atom_site_fract_y
  _atom_site_fract_z
  _atom_site_thermal_displace_type
  _atom_site_B_iso_or_equiv
  _atom_site_type_symbol
  Cu1      1.0000 0.84465  0.33921  0.11375  Biso   1.000  Cu
  Cu2      1.0000 0.65535  0.83921  0.38625  Biso   1.000  Cu
  Cu3      1.0000 0.15535  0.66079  0.88625  Biso   1.000  Cu
  Cu4      1.0000 0.34465  0.16079  0.61375  Biso   1.000  Cu
  P1       1.0000 0.85244  0.62719  0.04614  Biso   1.000  P
  P2       1.0000 0.64756  0.12719  0.45386  Biso   1.000  P
  P3       1.0000 0.14756  0.37281  0.95386  Biso   1.000  P
  P4       1.0000 0.35244  0.87281  0.54614  Biso   1.000  P
  P5       1.0000 0.88076  0.88189  0.47056  Biso   1.000  P
  P6       1.0000 0.61924  0.38189  0.02944  Biso   1.000  P
  P7       1.0000 0.11924  0.11811  0.52944  Biso   1.000  P
  P8       1.0000 0.38076  0.61811  0.97056  Biso   1.000  P
  O1       1.0000 0.75787  0.67767  0.06228  Biso   1.000  O
  O2       1.0000 0.74213  0.17767  0.43772  Biso   1.000  O
  O3       1.0000 0.24213  0.32233  0.93772  Biso   1.000  O
  O4       1.0000 0.25787  0.82233  0.56228  Biso   1.000  O
  O5       1.0000 0.85657  0.48347  0.05318  Biso   1.000  O
  O6       1.0000 0.64343  0.98347  0.44682  Biso   1.000  O
  O7       1.0000 0.14343  0.51653  0.94682  Biso   1.000  O
  O8       1.0000 0.35657  0.01653  0.55318  Biso   1.000  O
  O9       1.0000 0.93142  0.69969  0.09563  Biso   1.000  O
  O10      1.0000 0.56858  0.19969  0.40437  Biso   1.000  O
  O11      1.0000 0.06858  0.30031  0.90437  Biso   1.000  O
  O12      1.0000 0.43142  0.80031  0.59563  Biso   1.000  O
  O13      1.0000 0.80532  0.82136  0.40926  Biso   1.000  O
  O14      1.0000 0.69468  0.32136  0.09074  Biso   1.000  O
  O15      1.0000 0.19468  0.17864  0.59074  Biso   1.000  O
  O16      1.0000 0.30532  0.67864  0.90926  Biso   1.000  O
  O17      1.0000 0.97769  0.82938  0.45973  Biso   1.000  O
  O18      1.0000 0.52231  0.32938  0.04027  Biso   1.000  O
  O19      1.0000 0.02231  0.17062  0.54027  Biso   1.000  O
  O20      1.0000 0.47769  0.67062  0.95973  Biso   1.000  O
  O21      1.0000 0.88393  0.02654  0.47149  Biso   1.000  O
  O22      1.0000 0.61607  0.52654  0.02851  Biso   1.000  O
  O23      1.0000 0.11607  0.97346  0.52851  Biso   1.000  O
  O24      1.0000 0.38393  0.47346  0.97149  Biso   1.000  O
  O25      1.0000 0.05350  0.65260  0.23228  Biso   1.000  O
  O26      1.0000 0.44650  0.15260  0.26772  Biso   1.000  O
  O27      1.0000 0.94650  0.34740  0.76772  Biso   1.000  O
  O28      1.0000 0.55350  0.84740  0.73228  Biso   1.000  O
  O29      1.0000 0.06870  0.62650  0.39290  Biso   1.000  O
  O30      1.0000 0.43130  0.12650  0.10710  Biso   1.000  O
  O31      1.0000 0.93130  0.37350  0.60710  Biso   1.000  O
  O32      1.0000 0.56870  0.87350  0.89290  Biso   1.000  O
  N1       1.0000 0.86552  0.21643  0.03105  Biso   1.000  N
  N2       1.0000 0.63448  0.71643  0.46895  Biso   1.000  N
  N3       1.0000 0.13448  0.78357  0.96895  Biso   1.000  N
  N4       1.0000 0.36552  0.28357  0.53105  Biso   1.000  N
  N5       1.0000 0.87489  0.18589  0.17485  Biso   1.000  N
  N6       1.0000 0.62511  0.68589  0.32515  Biso   1.000  N
  N7       1.0000 0.12511  0.81411  0.82515  Biso   1.000  N
  N8       1.0000 0.37489  0.31411  0.67485  Biso   1.000  N
  N9       1.0000 0.85472  0.41150  0.22287  Biso   1.000  N
  N10      1.0000 0.64528  0.91150  0.27713  Biso   1.000  N
  N11      1.0000 0.14528  0.58850  0.77713  Biso   1.000  N
  N12      1.0000 0.35472  0.08850  0.72287  Biso   1.000  N
  C1       1.0000 0.86291  0.24370  0.95722  Biso   1.000  C
  C2       1.0000 0.63709  0.74370  0.54278  Biso   1.000  C
  C3       1.0000 0.13709  0.75630  0.04278  Biso   1.000  C
  C4       1.0000 0.36291  0.25630  0.45722  Biso   1.000  C
  C5       1.0000 0.87112  0.15050  0.90412  Biso   1.000  C
  C6       1.0000 0.62888  0.65050  0.59588  Biso   1.000  C
  C7       1.0000 0.12888  0.84950  0.09588  Biso   1.000  C
  C8       1.0000 0.37112  0.34950  0.40412  Biso   1.000  C
  C9       1.0000 0.88163  0.02610  0.92809  Biso   1.000  C
  C10      1.0000 0.61837  0.52610  0.57191  Biso   1.000  C
  C11      1.0000 0.11837  0.97390  0.07191  Biso   1.000  C
  C12      1.0000 0.38163  0.47390  0.42809  Biso   1.000  C
  C13      1.0000 0.88551  0.99590  0.00502  Biso   1.000  C
  C14      1.0000 0.61449  0.49590  0.49498  Biso   1.000  C
  C15      1.0000 0.11449  0.00410  0.99498  Biso   1.000  C
  C16      1.0000 0.38551  0.50410  0.50502  Biso   1.000  C
  C17      1.0000 0.87792  0.09380  0.05520  Biso   1.000  C
  C18      1.0000 0.62208  0.59380  0.44480  Biso   1.000  C
  C19      1.0000 0.12208  0.90620  0.94480  Biso   1.000  C
  C20      1.0000 0.37792  0.40620  0.55520  Biso   1.000  C
  C21      1.0000 0.88593  0.07730  0.13902  Biso   1.000  C
  C22      1.0000 0.61407  0.57730  0.36098  Biso   1.000  C
  C23      1.0000 0.11407  0.92270  0.86098  Biso   1.000  C
  C24      1.0000 0.38593  0.42270  0.63902  Biso   1.000  C
  C25      1.0000 0.90460  0.96390  0.18027  Biso   1.000  C
  C26      1.0000 0.59540  0.46390  0.31973  Biso   1.000  C
  C27      1.0000 0.09540  0.03610  0.81973  Biso   1.000  C
  C28      1.0000 0.40460  0.53610  0.68027  Biso   1.000  C
  C29      1.0000 0.91250  0.96920  0.25992  Biso   1.000  C
  C30      1.0000 0.58750  0.46920  0.24008  Biso   1.000  C
  C31      1.0000 0.08750  0.03080  0.74008  Biso   1.000  C
  C32      1.0000 0.41250  0.53080  0.75992  Biso   1.000  C
  C33      1.0000 0.90210  0.08250  0.29634  Biso   1.000  C
  C34      1.0000 0.59790  0.58250  0.20366  Biso   1.000  C
  C35      1.0000 0.09790  0.91750  0.70366  Biso   1.000  C
  C36      1.0000 0.40210  0.41750  0.79634  Biso   1.000  C
  C37      1.0000 0.88286  0.19170  0.25132  Biso   1.000  C
  C38      1.0000 0.61714  0.69170  0.24868  Biso   1.000  C
  C39      1.0000 0.11714  0.80830  0.74868  Biso   1.000  C
  C40      1.0000 0.38286  0.30830  0.75132  Biso   1.000  C
  C41      1.0000 0.86909  0.32120  0.27891  Biso   1.000  C
  C42      1.0000 0.63091  0.82120  0.22109  Biso   1.000  C
  C43      1.0000 0.13091  0.67880  0.72109  Biso   1.000  C
  C44      1.0000 0.36909  0.17880  0.77891  Biso   1.000  C
  C45      1.0000 0.87060  0.35070  0.35523  Biso   1.000  C
  C46      1.0000 0.62940  0.85070  0.14477  Biso   1.000  C
  C47      1.0000 0.12940  0.64930  0.64477  Biso   1.000  C
  C48      1.0000 0.37060  0.14930  0.85523  Biso   1.000  C
  C49      1.0000 0.85710  0.47500  0.37462  Biso   1.000  C
  C50      1.0000 0.64290  0.97500  0.12538  Biso   1.000  C
  C51      1.0000 0.14290  0.52500  0.62538  Biso   1.000  C
  C52      1.0000 0.35710  0.02500  0.87462  Biso   1.000  C
  C53      1.0000 0.84300  0.56720  0.31803  Biso   1.000  C
  C54      1.0000 0.65700  0.06720  0.18197  Biso   1.000  C
  C55      1.0000 0.15700  0.43280  0.68197  Biso   1.000  C
  C56      1.0000 0.34300  0.93280  0.81803  Biso   1.000  C
  C57      1.0000 0.84218  0.53160  0.24260  Biso   1.000  C
  C58      1.0000 0.65782  0.03160  0.25740  Biso   1.000  C
  C59      1.0000 0.15782  0.46840  0.75740  Biso   1.000  C
  C60      1.0000 0.34218  0.96840  0.74260  Biso   1.000  C
  C61      1.0000 0.84562  0.66000  0.94566  Biso   1.000  C
  C62      1.0000 0.65438  0.16000  0.55434  Biso   1.000  C
  C63      1.0000 0.15438  0.34000  0.05434  Biso   1.000  C
  C64      1.0000 0.34562  0.84000  0.44566  Biso   1.000  C
  C65      1.0000 0.91670  0.61360  0.91287  Biso   1.000  C
  C66      1.0000 0.58330  0.11360  0.58713  Biso   1.000  C
  C67      1.0000 0.08330  0.38640  0.08713  Biso   1.000  C
  C68      1.0000 0.41670  0.88640  0.41287  Biso   1.000  C
  C69      1.0000 0.91660  0.64100  0.83665  Biso   1.000  C
  C70      1.0000 0.58340  0.14100  0.66335  Biso   1.000  C
  C71      1.0000 0.08340  0.35900  0.16335  Biso   1.000  C
  C72      1.0000 0.41660  0.85900  0.33665  Biso   1.000  C
  C73      1.0000 0.84640  0.71680  0.79106  Biso   1.000  C
  C74      1.0000 0.65360  0.21680  0.70894  Biso   1.000  C
  C75      1.0000 0.15360  0.28320  0.20894  Biso   1.000  C
  C76      1.0000 0.34640  0.78320  0.29106  Biso   1.000  C
  C77      1.0000 0.77436  0.75990  0.82319  Biso   1.000  C
  C78      1.0000 0.72564  0.25990  0.67681  Biso   1.000  C
  C79      1.0000 0.22564  0.24010  0.17681  Biso   1.000  C
  C80      1.0000 0.27436  0.74010  0.32319  Biso   1.000  C
  C81      1.0000 0.77430  0.73150  0.89951  Biso   1.000  C
  C82      1.0000 0.72570  0.23150  0.60049  Biso   1.000  C
  C83      1.0000 0.22570  0.26850  0.10049  Biso   1.000  C
  C84      1.0000 0.27430  0.76850  0.39951  Biso   1.000  C
  C85      1.0000 0.85222  0.75460  0.71192  Biso   1.000  C
  C86      1.0000 0.64778  0.25460  0.78808  Biso   1.000  C
  C87      1.0000 0.14778  0.24540  0.28808  Biso   1.000  C
  C88      1.0000 0.35222  0.74540  0.21192  Biso   1.000  C
  C89      1.0000 0.88033  0.66800  0.66242  Biso   1.000  C
  C90      1.0000 0.61967  0.16800  0.83758  Biso   1.000  C
  C91      1.0000 0.11967  0.33200  0.33758  Biso   1.000  C
  C92      1.0000 0.38033  0.83200  0.16242  Biso   1.000  C
  C93      1.0000 0.88913  0.70630  0.58985  Biso   1.000  C
  C94      1.0000 0.61087  0.20630  0.91015  Biso   1.000  C
  C95      1.0000 0.11087  0.29370  0.41015  Biso   1.000  C
  C96      1.0000 0.38913  0.79370  0.08985  Biso   1.000  C
  C97      1.0000 0.87174  0.83150  0.56532  Biso   1.000  C
  C98      1.0000 0.62826  0.33150  0.93468  Biso   1.000  C
  C99      1.0000 0.12826  0.16850  0.43468  Biso   1.000  C
  C100     1.0000 0.37174  0.66850  0.06532  Biso   1.000  C
  C101     1.0000 0.84407  0.91810  0.61507  Biso   1.000  C
  C102     1.0000 0.65593  0.41810  0.88493  Biso   1.000  C
  C103     1.0000 0.15593  0.08190  0.38493  Biso   1.000  C
  C104     1.0000 0.34407  0.58190  0.11507  Biso   1.000  C
  C105     1.0000 0.83399  0.88010  0.68709  Biso   1.000  C
  C106     1.0000 0.66601  0.38010  0.81291  Biso   1.000  C
  C107     1.0000 0.16601  0.11990  0.31291  Biso   1.000  C
  C108     1.0000 0.33399  0.61990  0.18709  Biso   1.000  C
  H1       1.0000 0.85400  0.32700  0.94500  Biso   1.000  H
  H2       1.0000 0.64600  0.82700  0.55500  Biso   1.000  H
  H3       1.0000 0.14600  0.67300  0.05500  Biso   1.000  H
  H4       1.0000 0.35400  0.17300  0.44500  Biso   1.000  H
  H5       1.0000 0.87000  0.17100  0.85600  Biso   1.000  H
  H6       1.0000 0.63000  0.67100  0.64400  Biso   1.000  H
  H7       1.0000 0.13000  0.82900  0.14400  Biso   1.000  H
  H8       1.0000 0.37000  0.32900  0.35600  Biso   1.000  H
  H9       1.0000 0.88700  0.96100  0.89570  Biso   1.000  H
  H10      1.0000 0.61300  0.46100  0.60430  Biso   1.000  H
  H11      1.0000 0.11300  0.03900  0.10430  Biso   1.000  H
  H12      1.0000 0.38700  0.53900  0.39570  Biso   1.000  H
  H13      1.0000 0.89300  0.91600  0.02310  Biso   1.000  H
  H14      1.0000 0.60700  0.41600  0.47690  Biso   1.000  H
  H15      1.0000 0.10700  0.08400  0.97690  Biso   1.000  H
  H16      1.0000 0.39300  0.58400  0.52310  Biso   1.000  H
  H17      1.0000 0.91400  0.88500  0.15720  Biso   1.000  H
  H18      1.0000 0.58600  0.38500  0.34280  Biso   1.000  H
  H19      1.0000 0.08600  0.11500  0.84280  Biso   1.000  H
  H20      1.0000 0.41400  0.61500  0.65720  Biso   1.000  H
  H21      1.0000 0.92100  0.89200  0.28600  Biso   1.000  H
  H22      1.0000 0.57900  0.39200  0.21400  Biso   1.000  H
  H23      1.0000 0.07900  0.10800  0.71400  Biso   1.000  H
  H24      1.0000 0.42100  0.60800  0.78600  Biso   1.000  H
  H25      1.0000 0.90700  0.08500  0.34900  Biso   1.000  H
  H26      1.0000 0.59300  0.58500  0.15100  Biso   1.000  H
  H27      1.0000 0.09300  0.91500  0.65100  Biso   1.000  H
  H28      1.0000 0.40700  0.41500  0.84900  Biso   1.000  H
  H29      1.0000 0.87800  0.29000  0.39140  Biso   1.000  H
  H30      1.0000 0.62200  0.79000  0.10860  Biso   1.000  H
  H31      1.0000 0.12200  0.71000  0.60860  Biso   1.000  H
  H32      1.0000 0.37800  0.21000  0.89140  Biso   1.000  H
  H33      1.0000 0.86200  0.49500  0.43100  Biso   1.000  H
  H34      1.0000 0.63800  0.99500  0.06900  Biso   1.000  H
  H35      1.0000 0.13800  0.50500  0.56900  Biso   1.000  H
  H36      1.0000 0.36200  0.00500  0.93100  Biso   1.000  H
  H37      1.0000 0.83700  0.65100  0.32820  Biso   1.000  H
  H38      1.0000 0.66300  0.15100  0.17180  Biso   1.000  H
  H39      1.0000 0.16300  0.34900  0.67180  Biso   1.000  H
  H40      1.0000 0.33700  0.84900  0.82820  Biso   1.000  H
  H41      1.0000 0.83100  0.59400  0.20040  Biso   1.000  H
  H42      1.0000 0.66900  0.09400  0.29960  Biso   1.000  H
  H43      1.0000 0.16900  0.40600  0.79960  Biso   1.000  H
  H44      1.0000 0.33100  0.90600  0.70040  Biso   1.000  H
  H45      1.0000 0.96400  0.56700  0.94330  Biso   1.000  H
  H46      1.0000 0.53600  0.06700  0.55670  Biso   1.000  H
  H47      1.0000 0.03600  0.43300  0.05670  Biso   1.000  H
  H48      1.0000 0.46400  0.93300  0.44330  Biso   1.000  H
  H49      1.0000 0.96600  0.61000  0.81660  Biso   1.000  H
  H50      1.0000 0.53400  0.11000  0.68340  Biso   1.000  H
  H51      1.0000 0.03400  0.39000  0.18340  Biso   1.000  H
  H52      1.0000 0.46600  0.89000  0.31660  Biso   1.000  H
  H53      1.0000 0.72800  0.80500  0.79450  Biso   1.000  H
  H54      1.0000 0.77200  0.30500  0.70550  Biso   1.000  H
  H55      1.0000 0.27200  0.19500  0.20550  Biso   1.000  H
  H56      1.0000 0.22800  0.69500  0.29450  Biso   1.000  H
  H57      1.0000 0.72600  0.76300  0.91790  Biso   1.000  H
  H58      1.0000 0.77400  0.26300  0.58210  Biso   1.000  H
  H59      1.0000 0.27400  0.23700  0.08210  Biso   1.000  H
  H60      1.0000 0.22600  0.73700  0.41790  Biso   1.000  H
  H61      1.0000 0.89100  0.58400  0.67800  Biso   1.000  H
  H62      1.0000 0.60900  0.08400  0.82200  Biso   1.000  H
  H63      1.0000 0.10900  0.41600  0.32200  Biso   1.000  H
  H64      1.0000 0.39100  0.91600  0.17800  Biso   1.000  H
  H65      1.0000 0.90700  0.64600  0.55650  Biso   1.000  H
  H66      1.0000 0.59300  0.14600  0.94350  Biso   1.000  H
  H67      1.0000 0.09300  0.35400  0.44350  Biso   1.000  H
  H68      1.0000 0.40700  0.85400  0.05650  Biso   1.000  H
  H69      1.0000 0.83300  0.00600  0.59960  Biso   1.000  H
  H70      1.0000 0.66700  0.50600  0.90040  Biso   1.000  H
  H71      1.0000 0.16700  0.99400  0.40040  Biso   1.000  H
  H72      1.0000 0.33300  0.49400  0.09960  Biso   1.000  H
  H73      1.0000 0.81400  0.93400  0.71890  Biso   1.000  H
  H74      1.0000 0.68600  0.43400  0.78110  Biso   1.000  H
  H75      1.0000 0.18600  0.06600  0.28110  Biso   1.000  H
  H76      1.0000 0.31400  0.56600  0.21890  Biso   1.000  H
  H77      1.0000 0.71900  0.62900  0.05200  Biso   1.000  H
  H78      1.0000 0.78100  0.12900  0.44800  Biso   1.000  H
  H79      1.0000 0.28100  0.37100  0.94800  Biso   1.000  H
  H80      1.0000 0.21900  0.87100  0.55200  Biso   1.000  H
  H81      1.0000 0.01600  0.87400  0.47800  Biso   1.000  H
  H82      1.0000 0.48400  0.37400  0.02200  Biso   1.000  H
  H83      1.0000 0.98400  0.12600  0.52200  Biso   1.000  H
  H84      1.0000 0.51600  0.62600  0.97800  Biso   1.000  H
