data_image0
_cell_length_a       10.1937
_cell_length_b       20.2483
_cell_length_c       13.6441
_cell_angle_alpha    90
_cell_angle_beta     92.738
_cell_angle_gamma    90

_symmetry_space_group_name_H-M    "P 1"
_symmetry_int_tables_number       1

loop_
  _symmetry_equiv_pos_as_xyz
  'x, y, z'

loop_
  _atom_site_label
  _atom_site_occupancy
  _atom_site_fract_x
  _atom_site_fract_y
  _atom_site_fract_z
  _atom_site_thermal_displace_type
  _atom_site_B_iso_or_equiv
  _atom_site_type_symbol
  Mo1      1.0000 0.25000  0.16508  0.25000  Biso   1.000  Mo
  Mo2      1.0000 0.75000  0.83492  0.75000  Biso   1.000  Mo
  Cu1      1.0000 0.59661  0.12683  0.18525  Biso   1.000  Cu
  Cu2      1.0000 0.90339  0.12683  0.31475  Biso   1.000  Cu
  Cu3      1.0000 0.40339  0.87317  0.81475  Biso   1.000  Cu
  Cu4      1.0000 0.09661  0.87317  0.68525  Biso   1.000  Cu
  P1       1.0000 0.52214  0.19388  0.38593  Biso   1.000  P
  P2       1.0000 0.97786  0.19388  0.11407  Biso   1.000  P
  P3       1.0000 0.47786  0.80612  0.61407  Biso   1.000  P
  P4       1.0000 0.02214  0.80612  0.88593  Biso   1.000  P
  P5       1.0000 0.58352  0.71983  0.33421  Biso   1.000  P
  P6       1.0000 0.91648  0.71983  0.16579  Biso   1.000  P
  P7       1.0000 0.41648  0.28017  0.66579  Biso   1.000  P
  P8       1.0000 0.08352  0.28017  0.83421  Biso   1.000  P
  P9       1.0000 0.44213  0.24594  0.10179  Biso   1.000  P
  P10      1.0000 0.05787  0.24594  0.39821  Biso   1.000  P
  P11      1.0000 0.55787  0.75406  0.89821  Biso   1.000  P
  P12      1.0000 0.94213  0.75406  0.60179  Biso   1.000  P
  O1       1.0000 0.35450  0.11240  0.19320  Biso   1.000  O
  O2       1.0000 0.14550  0.11240  0.30680  Biso   1.000  O
  O3       1.0000 0.64550  0.88760  0.80680  Biso   1.000  O
  O4       1.0000 0.85450  0.88760  0.69320  Biso   1.000  O
  O5       1.0000 0.61240  0.15890  0.31780  Biso   1.000  O
  O6       1.0000 0.88760  0.15890  0.18220  Biso   1.000  O
  O7       1.0000 0.38760  0.84110  0.68220  Biso   1.000  O
  O8       1.0000 0.11240  0.84110  0.81780  Biso   1.000  O
  O9       1.0000 0.55800  0.17140  0.49210  Biso   1.000  O
  O10      1.0000 0.94200  0.17140  0.00790  Biso   1.000  O
  O11      1.0000 0.44200  0.82860  0.50790  Biso   1.000  O
  O12      1.0000 0.05800  0.82860  0.99210  Biso   1.000  O
  O13      1.0000 0.37520  0.17740  0.36410  Biso   1.000  O
  O14      1.0000 0.12480  0.17740  0.13590  Biso   1.000  O
  O15      1.0000 0.62480  0.82260  0.63590  Biso   1.000  O
  O16      1.0000 0.87520  0.82260  0.86410  Biso   1.000  O
  O17      1.0000 0.34650  0.24590  0.18420  Biso   1.000  O
  O18      1.0000 0.15350  0.24590  0.31580  Biso   1.000  O
  O19      1.0000 0.65350  0.75410  0.81580  Biso   1.000  O
  O20      1.0000 0.84650  0.75410  0.68420  Biso   1.000  O
  O21      1.0000 0.57350  0.21270  0.12730  Biso   1.000  O
  O22      1.0000 0.92650  0.21270  0.37270  Biso   1.000  O
  O23      1.0000 0.42650  0.78730  0.87270  Biso   1.000  O
  O24      1.0000 0.07350  0.78730  0.62730  Biso   1.000  O
  O25      1.0000 0.38370  0.20990  0.00750  Biso   1.000  O
  O26      1.0000 0.11630  0.20990  0.49250  Biso   1.000  O
  O27      1.0000 0.61630  0.79010  0.99250  Biso   1.000  O
  O28      1.0000 0.88370  0.79010  0.50750  Biso   1.000  O
  H1       1.0000 0.36320  0.17100  0.02190  Biso   1.000  H
  H2       1.0000 0.13680  0.17100  0.47810  Biso   1.000  H
  H3       1.0000 0.63680  0.82900  0.97810  Biso   1.000  H
  H4       1.0000 0.86320  0.82900  0.52190  Biso   1.000  H
  O29      1.0000 0.57300  0.73280  0.21990  Biso   1.000  O
  O30      1.0000 0.92700  0.73280  0.28010  Biso   1.000  O
  O31      1.0000 0.42700  0.26720  0.78010  Biso   1.000  O
  O32      1.0000 0.07300  0.26720  0.71990  Biso   1.000  O
  H5       1.0000 0.64870  0.73630  0.19870  Biso   1.000  H
  H6       1.0000 0.85130  0.73630  0.30130  Biso   1.000  H
  H7       1.0000 0.35130  0.26370  0.80130  Biso   1.000  H
  H8       1.0000 0.14870  0.26370  0.69870  Biso   1.000  H
  O33      1.0000 0.71380  0.74440  0.37660  Biso   1.000  O
  O34      1.0000 0.78620  0.74440  0.12340  Biso   1.000  O
  O35      1.0000 0.28620  0.25560  0.62340  Biso   1.000  O
  O36      1.0000 0.21380  0.25560  0.87660  Biso   1.000  O
  O37      1.0000 0.46070  0.75010  0.37310  Biso   1.000  O
  O38      1.0000 0.03930  0.75010  0.12690  Biso   1.000  O
  O39      1.0000 0.53930  0.24990  0.62690  Biso   1.000  O
  O40      1.0000 0.96070  0.24990  0.87310  Biso   1.000  O
  O41      1.0000 0.25000  0.79790  0.25000  Biso   1.000  O
  O42      1.0000 0.75000  0.20210  0.75000  Biso   1.000  O
  N1       1.0000 0.59360  0.03200  0.22910  Biso   1.000  N
  N2       1.0000 0.90640  0.03200  0.27090  Biso   1.000  N
  N3       1.0000 0.40640  0.96800  0.77090  Biso   1.000  N
  N4       1.0000 0.09360  0.96800  0.72910  Biso   1.000  N
  N5       1.0000 0.64070  0.08400  0.06070  Biso   1.000  N
  N6       1.0000 0.85930  0.08400  0.43930  Biso   1.000  N
  N7       1.0000 0.35930  0.91600  0.93930  Biso   1.000  N
  N8       1.0000 0.14070  0.91600  0.56070  Biso   1.000  N
  C1       1.0000 0.55820  0.01090  0.31680  Biso   1.000  C
  C2       1.0000 0.94180  0.01090  0.18320  Biso   1.000  C
  C3       1.0000 0.44180  0.98910  0.68320  Biso   1.000  C
  C4       1.0000 0.05820  0.98910  0.81680  Biso   1.000  C
  H9       1.0000 0.54410  0.04230  0.36690  Biso   1.000  H
  H10      1.0000 0.95590  0.04230  0.13310  Biso   1.000  H
  H11      1.0000 0.45590  0.95770  0.63310  Biso   1.000  H
  H12      1.0000 0.04410  0.95770  0.86690  Biso   1.000  H
  C5       1.0000 0.54130  0.94430  0.33650  Biso   1.000  C
  C6       1.0000 0.95870  0.94430  0.16350  Biso   1.000  C
  C7       1.0000 0.45870  0.05570  0.66350  Biso   1.000  C
  C8       1.0000 0.04130  0.05570  0.83650  Biso   1.000  C
  H13      1.0000 0.51610  0.93030  0.39930  Biso   1.000  H
  H14      1.0000 0.98390  0.93030  0.10070  Biso   1.000  H
  H15      1.0000 0.48390  0.06970  0.60070  Biso   1.000  H
  H16      1.0000 0.01610  0.06970  0.89930  Biso   1.000  H
  C9       1.0000 0.56160  0.89870  0.26410  Biso   1.000  C
  C10      1.0000 0.93840  0.89870  0.23590  Biso   1.000  C
  C11      1.0000 0.43840  0.10130  0.73590  Biso   1.000  C
  C12      1.0000 0.06160  0.10130  0.76410  Biso   1.000  C
  H17      1.0000 0.55000  0.85290  0.27610  Biso   1.000  H
  H18      1.0000 0.95000  0.85290  0.22390  Biso   1.000  H
  H19      1.0000 0.45000  0.14710  0.72390  Biso   1.000  H
  H20      1.0000 0.05000  0.14710  0.77610  Biso   1.000  H
  C13      1.0000 0.59880  0.92040  0.17400  Biso   1.000  C
  C14      1.0000 0.90120  0.92040  0.32600  Biso   1.000  C
  C15      1.0000 0.40120  0.07960  0.82600  Biso   1.000  C
  C16      1.0000 0.09880  0.07960  0.67400  Biso   1.000  C
  H21      1.0000 0.61280  0.88960  0.12310  Biso   1.000  H
  H22      1.0000 0.88720  0.88960  0.37690  Biso   1.000  H
  H23      1.0000 0.38720  0.11040  0.87690  Biso   1.000  H
  H24      1.0000 0.11280  0.11040  0.62310  Biso   1.000  H
  C17      1.0000 0.61600  0.98760  0.15750  Biso   1.000  C
  C18      1.0000 0.88400  0.98760  0.34250  Biso   1.000  C
  C19      1.0000 0.38400  0.01240  0.84250  Biso   1.000  C
  C20      1.0000 0.11600  0.01240  0.65750  Biso   1.000  C
  C21      1.0000 0.65110  0.01690  0.06380  Biso   1.000  C
  C22      1.0000 0.84890  0.01690  0.43620  Biso   1.000  C
  C23      1.0000 0.34890  0.98310  0.93620  Biso   1.000  C
  C24      1.0000 0.15110  0.98310  0.56380  Biso   1.000  C
  C25      1.0000 0.69360  0.98140  0.98540  Biso   1.000  C
  C26      1.0000 0.80640  0.98140  0.51460  Biso   1.000  C
  C27      1.0000 0.30640  0.01860  0.01460  Biso   1.000  C
  C28      1.0000 0.19360  0.01860  0.48540  Biso   1.000  C
  H25      1.0000 0.69990  0.93460  0.98810  Biso   1.000  H
  H26      1.0000 0.80010  0.93460  0.51190  Biso   1.000  H
  H27      1.0000 0.30010  0.06540  0.01190  Biso   1.000  H
  H28      1.0000 0.19990  0.06540  0.48810  Biso   1.000  H
  C29      1.0000 0.72670  0.01560  0.90330  Biso   1.000  C
  C30      1.0000 0.77330  0.01560  0.59670  Biso   1.000  C
  C31      1.0000 0.27330  0.98440  0.09670  Biso   1.000  C
  C32      1.0000 0.22670  0.98440  0.40330  Biso   1.000  C
  H29      1.0000 0.75610  0.99200  0.84830  Biso   1.000  H
  H30      1.0000 0.74390  0.99200  0.65170  Biso   1.000  H
  H31      1.0000 0.24390  0.00800  0.15170  Biso   1.000  H
  H32      1.0000 0.25610  0.00800  0.34830  Biso   1.000  H
  C33      1.0000 0.71790  0.08320  0.89910  Biso   1.000  C
  C34      1.0000 0.78210  0.08320  0.60090  Biso   1.000  C
  C35      1.0000 0.28210  0.91680  0.10090  Biso   1.000  C
  C36      1.0000 0.21790  0.91680  0.39910  Biso   1.000  C
  H33      1.0000 0.74270  0.10680  0.84270  Biso   1.000  H
  H34      1.0000 0.75730  0.10680  0.65730  Biso   1.000  H
  H35      1.0000 0.25730  0.89320  0.15730  Biso   1.000  H
  H36      1.0000 0.24270  0.89320  0.34270  Biso   1.000  H
  C37      1.0000 0.67170  0.11610  0.98000  Biso   1.000  C
  C38      1.0000 0.82830  0.11610  0.52000  Biso   1.000  C
  C39      1.0000 0.32830  0.88390  0.02000  Biso   1.000  C
  C40      1.0000 0.17170  0.88390  0.48000  Biso   1.000  C
  H37      1.0000 0.66210  0.16280  0.97760  Biso   1.000  H
  H38      1.0000 0.83790  0.16280  0.52240  Biso   1.000  H
  H39      1.0000 0.33790  0.83720  0.02240  Biso   1.000  H
  H40      1.0000 0.16210  0.83720  0.47760  Biso   1.000  H
  C41      1.0000 0.53610  0.28170  0.38010  Biso   1.000  C
  C42      1.0000 0.96390  0.28170  0.11990  Biso   1.000  C
  C43      1.0000 0.46390  0.71830  0.61990  Biso   1.000  C
  C44      1.0000 0.03610  0.71830  0.88010  Biso   1.000  C
  C45      1.0000 0.65530  0.31200  0.35960  Biso   1.000  C
  C46      1.0000 0.84470  0.31200  0.14040  Biso   1.000  C
  C47      1.0000 0.34470  0.68800  0.64040  Biso   1.000  C
  C48      1.0000 0.15530  0.68800  0.85960  Biso   1.000  C
  H41      1.0000 0.73020  0.28600  0.34720  Biso   1.000  H
  H42      1.0000 0.76980  0.28600  0.15280  Biso   1.000  H
  H43      1.0000 0.26980  0.71400  0.65280  Biso   1.000  H
  H44      1.0000 0.23020  0.71400  0.84720  Biso   1.000  H
  C49      1.0000 0.66290  0.38060  0.35760  Biso   1.000  C
  C50      1.0000 0.83710  0.38060  0.14240  Biso   1.000  C
  C51      1.0000 0.33710  0.61940  0.64240  Biso   1.000  C
  C52      1.0000 0.16290  0.61940  0.85760  Biso   1.000  C
  H45      1.0000 0.74370  0.40100  0.34350  Biso   1.000  H
  H46      1.0000 0.75630  0.40100  0.15650  Biso   1.000  H
  H47      1.0000 0.25630  0.59900  0.65650  Biso   1.000  H
  H48      1.0000 0.24370  0.59900  0.84350  Biso   1.000  H
  C53      1.0000 0.55530  0.41980  0.37570  Biso   1.000  C
  C54      1.0000 0.94470  0.41980  0.12430  Biso   1.000  C
  C55      1.0000 0.44470  0.58020  0.62430  Biso   1.000  C
  C56      1.0000 0.05530  0.58020  0.87570  Biso   1.000  C
  C57      1.0000 0.43840  0.38920  0.39900  Biso   1.000  C
  C58      1.0000 0.06160  0.38920  0.10100  Biso   1.000  C
  C59      1.0000 0.56160  0.61080  0.60100  Biso   1.000  C
  C60      1.0000 0.93840  0.61080  0.89900  Biso   1.000  C
  H49      1.0000 0.36470  0.41530  0.41420  Biso   1.000  H
  H50      1.0000 0.13530  0.41530  0.08580  Biso   1.000  H
  H51      1.0000 0.63530  0.58470  0.58580  Biso   1.000  H
  H52      1.0000 0.86470  0.58470  0.91420  Biso   1.000  H
  C61      1.0000 0.42840  0.32070  0.40020  Biso   1.000  C
  C62      1.0000 0.07160  0.32070  0.09980  Biso   1.000  C
  C63      1.0000 0.57160  0.67930  0.59980  Biso   1.000  C
  C64      1.0000 0.92840  0.67930  0.90020  Biso   1.000  C
  H53      1.0000 0.34760  0.30050  0.41490  Biso   1.000  H
  H54      1.0000 0.15240  0.30050  0.08510  Biso   1.000  H
  H55      1.0000 0.65240  0.69950  0.58510  Biso   1.000  H
  H56      1.0000 0.84760  0.69950  0.91490  Biso   1.000  H
  C65      1.0000 0.56210  0.49360  0.36840  Biso   1.000  C
  C66      1.0000 0.93790  0.49360  0.13160  Biso   1.000  C
  C67      1.0000 0.43790  0.50640  0.63160  Biso   1.000  C
  C68      1.0000 0.06210  0.50640  0.86840  Biso   1.000  C
  C69      1.0000 0.68220  0.52660  0.37700  Biso   1.000  C
  C70      1.0000 0.81780  0.52660  0.12300  Biso   1.000  C
  C71      1.0000 0.31780  0.47340  0.62300  Biso   1.000  C
  C72      1.0000 0.18220  0.47340  0.87700  Biso   1.000  C
  H57      1.0000 0.76090  0.50220  0.38950  Biso   1.000  H
  H58      1.0000 0.73910  0.50220  0.11050  Biso   1.000  H
  H59      1.0000 0.23910  0.49780  0.61050  Biso   1.000  H
  H60      1.0000 0.26090  0.49780  0.88950  Biso   1.000  H
  C73      1.0000 0.68740  0.59490  0.36720  Biso   1.000  C
  C74      1.0000 0.81260  0.59490  0.13280  Biso   1.000  C
  C75      1.0000 0.31260  0.40510  0.63280  Biso   1.000  C
  C76      1.0000 0.18740  0.40510  0.86720  Biso   1.000  C
  H61      1.0000 0.77020  0.61640  0.37330  Biso   1.000  H
  H62      1.0000 0.72980  0.61640  0.12670  Biso   1.000  H
  H63      1.0000 0.22980  0.38360  0.62670  Biso   1.000  H
  H64      1.0000 0.27020  0.38360  0.87330  Biso   1.000  H
  C77      1.0000 0.57480  0.63250  0.34890  Biso   1.000  C
  C78      1.0000 0.92520  0.63250  0.15110  Biso   1.000  C
  C79      1.0000 0.42520  0.36750  0.65110  Biso   1.000  C
  C80      1.0000 0.07480  0.36750  0.84890  Biso   1.000  C
  C81      1.0000 0.45350  0.59960  0.34170  Biso   1.000  C
  C82      1.0000 0.04650  0.59960  0.15830  Biso   1.000  C
  C83      1.0000 0.54650  0.40040  0.65830  Biso   1.000  C
  C84      1.0000 0.95350  0.40040  0.84170  Biso   1.000  C
  H65      1.0000 0.37480  0.62400  0.32990  Biso   1.000  H
  H66      1.0000 0.12520  0.62400  0.17010  Biso   1.000  H
  H67      1.0000 0.62520  0.37600  0.67010  Biso   1.000  H
  H68      1.0000 0.87480  0.37600  0.82990  Biso   1.000  H
  C85      1.0000 0.44810  0.53120  0.35170  Biso   1.000  C
  C86      1.0000 0.05190  0.53120  0.14830  Biso   1.000  C
  C87      1.0000 0.55190  0.46880  0.64830  Biso   1.000  C
  C88      1.0000 0.94810  0.46880  0.85170  Biso   1.000  C
  H69      1.0000 0.36520  0.50970  0.34720  Biso   1.000  H
  H70      1.0000 0.13480  0.50970  0.15280  Biso   1.000  H
  H71      1.0000 0.63480  0.49030  0.65280  Biso   1.000  H
  H72      1.0000 0.86520  0.49030  0.84720  Biso   1.000  H
  C89      1.0000 0.46640  0.33100  0.06850  Biso   1.000  C
  C90      1.0000 0.03360  0.33100  0.43150  Biso   1.000  C
  C91      1.0000 0.53360  0.66900  0.93150  Biso   1.000  C
  C92      1.0000 0.96640  0.66900  0.56850  Biso   1.000  C
  C93      1.0000 0.52430  0.34770  0.98270  Biso   1.000  C
  C94      1.0000 0.97570  0.34770  0.51730  Biso   1.000  C
  C95      1.0000 0.47570  0.65230  0.01730  Biso   1.000  C
  C96      1.0000 0.02430  0.65230  0.48270  Biso   1.000  C
  H73      1.0000 0.55620  0.31400  0.94180  Biso   1.000  H
  H74      1.0000 0.94380  0.31400  0.55820  Biso   1.000  H
  H75      1.0000 0.44380  0.68600  0.05820  Biso   1.000  H
  H76      1.0000 0.05620  0.68600  0.44180  Biso   1.000  H
  C97      1.0000 0.53640  0.41390  0.95520  Biso   1.000  C
  C98      1.0000 0.96360  0.41390  0.54480  Biso   1.000  C
  C99      1.0000 0.46360  0.58610  0.04480  Biso   1.000  C
  C100     1.0000 0.03640  0.58610  0.45520  Biso   1.000  C
  H77      1.0000 0.57370  0.42430  0.89460  Biso   1.000  H
  H78      1.0000 0.92630  0.42430  0.60540  Biso   1.000  H
  H79      1.0000 0.42630  0.57570  0.10540  Biso   1.000  H
  H80      1.0000 0.07370  0.57570  0.39460  Biso   1.000  H
  C101     1.0000 0.49480  0.46480  0.01510  Biso   1.000  C
  C102     1.0000 0.00520  0.46480  0.48490  Biso   1.000  C
  C103     1.0000 0.50520  0.53520  0.98490  Biso   1.000  C
  C104     1.0000 0.99480  0.53520  0.51510  Biso   1.000  C
  C105     1.0000 0.44070  0.44690  0.10260  Biso   1.000  C
  C106     1.0000 0.05930  0.44690  0.39740  Biso   1.000  C
  C107     1.0000 0.55930  0.55310  0.89740  Biso   1.000  C
  C108     1.0000 0.94070  0.55310  0.60260  Biso   1.000  C
  H81      1.0000 0.41300  0.48050  0.14570  Biso   1.000  H
  H82      1.0000 0.08700  0.48050  0.35430  Biso   1.000  H
  H83      1.0000 0.58700  0.51950  0.85430  Biso   1.000  H
  H84      1.0000 0.91300  0.51950  0.64570  Biso   1.000  H
  C109     1.0000 0.42590  0.38080  0.12910  Biso   1.000  C
  C110     1.0000 0.07410  0.38080  0.37090  Biso   1.000  C
  C111     1.0000 0.57410  0.61920  0.87090  Biso   1.000  C
  C112     1.0000 0.92590  0.61920  0.62910  Biso   1.000  C
  H85      1.0000 0.38770  0.37000  0.18920  Biso   1.000  H
  H86      1.0000 0.11230  0.37000  0.31080  Biso   1.000  H
  H87      1.0000 0.61230  0.63000  0.81080  Biso   1.000  H
  H88      1.0000 0.88770  0.63000  0.68920  Biso   1.000  H
