data_image0
_cell_length_a       17.7487
_cell_length_b       17.7487
_cell_length_c       12.695
_cell_angle_alpha    90
_cell_angle_beta     90
_cell_angle_gamma    120

_symmetry_space_group_name_H-M    "P 1"
_symmetry_int_tables_number       1

loop_
  _symmetry_equiv_pos_as_xyz
  'x, y, z'

loop_
  _atom_site_label
  _atom_site_occupancy
  _atom_site_fract_x
  _atom_site_fract_y
  _atom_site_fract_z
  _atom_site_thermal_displace_type
  _atom_site_B_iso_or_equiv
  _atom_site_type_symbol
  Cu1      1.0000 0.44550  0.58290  0.66200  Biso   1.000  Cu
  Cu2      1.0000 0.41710  0.86260  0.66200  Biso   1.000  Cu
  Cu3      1.0000 0.13740  0.55450  0.66200  Biso   1.000  Cu
  Cu4      1.0000 0.55450  0.41710  0.16200  Biso   1.000  Cu
  Cu5      1.0000 0.58290  0.13740  0.16200  Biso   1.000  Cu
  Cu6      1.0000 0.86260  0.44550  0.16200  Biso   1.000  Cu
  Cu7      1.0000 0.44490  0.58220  0.40000  Biso   1.000  Cu
  Cu8      1.0000 0.41780  0.86270  0.40000  Biso   1.000  Cu
  Cu9      1.0000 0.13730  0.55510  0.40000  Biso   1.000  Cu
  Cu10     1.0000 0.55510  0.41780  0.90000  Biso   1.000  Cu
  Cu11     1.0000 0.58220  0.13730  0.90000  Biso   1.000  Cu
  Cu12     1.0000 0.86270  0.44490  0.90000  Biso   1.000  Cu
  Ca1      1.0000 0.33330  0.66670  0.52900  Biso   1.000  Ca
  Ca2      1.0000 0.66670  0.33330  0.02900  Biso   1.000  Ca
  O1       1.0000 0.46590  0.64310  0.53800  Biso   1.000  O
  O2       1.0000 0.35690  0.82280  0.53800  Biso   1.000  O
  O3       1.0000 0.17720  0.53410  0.53800  Biso   1.000  O
  O4       1.0000 0.53410  0.35690  0.03800  Biso   1.000  O
  O5       1.0000 0.64310  0.17720  0.03800  Biso   1.000  O
  O6       1.0000 0.82280  0.46590  0.03800  Biso   1.000  O
  O7       1.0000 0.67500  0.43900  0.17000  Biso   1.000  O
  O8       1.0000 0.56100  0.23600  0.17000  Biso   1.000  O
  O9       1.0000 0.76400  0.32500  0.17000  Biso   1.000  O
  O10      1.0000 0.32500  0.56100  0.67000  Biso   1.000  O
  O11      1.0000 0.43900  0.76400  0.67000  Biso   1.000  O
  O12      1.0000 0.23600  0.67500  0.67000  Biso   1.000  O
  O13      1.0000 0.44700  0.42600  0.17300  Biso   1.000  O
  O14      1.0000 0.57400  0.02100  0.17300  Biso   1.000  O
  O15      1.0000 0.97900  0.55300  0.17300  Biso   1.000  O
  O16      1.0000 0.55300  0.57400  0.67300  Biso   1.000  O
  O17      1.0000 0.42600  0.97900  0.67300  Biso   1.000  O
  O18      1.0000 0.02100  0.44700  0.67300  Biso   1.000  O
  O19      1.0000 0.32400  0.56300  0.40400  Biso   1.000  O
  O20      1.0000 0.43700  0.76100  0.40400  Biso   1.000  O
  O21      1.0000 0.23900  0.67600  0.40400  Biso   1.000  O
  O22      1.0000 0.67600  0.43700  0.90400  Biso   1.000  O
  O23      1.0000 0.56300  0.23900  0.90400  Biso   1.000  O
  O24      1.0000 0.76100  0.32400  0.90400  Biso   1.000  O
  O25      1.0000 0.19850  0.48350  0.31500  Biso   1.000  O
  O26      1.0000 0.51650  0.71500  0.31500  Biso   1.000  O
  O27      1.0000 0.28500  0.80150  0.31500  Biso   1.000  O
  O28      1.0000 0.80150  0.51650  0.81500  Biso   1.000  O
  O29      1.0000 0.48350  0.28500  0.81500  Biso   1.000  O
  O30      1.0000 0.71500  0.19850  0.81500  Biso   1.000  O
  O31      1.0000 0.55700  0.57900  0.37800  Biso   1.000  O
  O32      1.0000 0.42100  0.97800  0.37800  Biso   1.000  O
  O33      1.0000 0.02200  0.44300  0.37800  Biso   1.000  O
  O34      1.0000 0.44300  0.42100  0.87800  Biso   1.000  O
  O35      1.0000 0.57900  0.02200  0.87800  Biso   1.000  O
  O36      1.0000 0.97800  0.55700  0.87800  Biso   1.000  O
  O37      1.0000 0.80200  0.50000  0.26200  Biso   1.000  O
  O38      1.0000 0.50000  0.30200  0.26200  Biso   1.000  O
  O39      1.0000 0.69800  0.19800  0.26200  Biso   1.000  O
  O40      1.0000 0.19800  0.50000  0.76200  Biso   1.000  O
  O41      1.0000 0.50000  0.69800  0.76200  Biso   1.000  O
  O42      1.0000 0.30200  0.80200  0.76200  Biso   1.000  O
  N1       1.0000 0.59800  0.49500  0.27900  Biso   1.000  N
  N2       1.0000 0.50500  0.10300  0.27900  Biso   1.000  N
  N3       1.0000 0.89700  0.40200  0.27900  Biso   1.000  N
  N4       1.0000 0.40200  0.50500  0.77900  Biso   1.000  N
  N5       1.0000 0.49500  0.89700  0.77900  Biso   1.000  N
  N6       1.0000 0.10300  0.59800  0.77900  Biso   1.000  N
  N7       1.0000 0.40600  0.49500  0.29500  Biso   1.000  N
  N8       1.0000 0.50500  0.91100  0.29500  Biso   1.000  N
  N9       1.0000 0.08900  0.59400  0.29500  Biso   1.000  N
  N10      1.0000 0.59400  0.50500  0.79500  Biso   1.000  N
  N11      1.0000 0.49500  0.08900  0.79500  Biso   1.000  N
  N12      1.0000 0.91100  0.40600  0.79500  Biso   1.000  N
  C1       1.0000 0.71900  0.48900  0.22700  Biso   1.000  C
  C2       1.0000 0.51100  0.23000  0.22700  Biso   1.000  C
  C3       1.0000 0.77000  0.28100  0.22700  Biso   1.000  C
  C4       1.0000 0.28100  0.51100  0.72700  Biso   1.000  C
  C5       1.0000 0.48900  0.77000  0.72700  Biso   1.000  C
  C6       1.0000 0.23000  0.71900  0.72700  Biso   1.000  C
  C7       1.0000 0.67900  0.52800  0.31000  Biso   1.000  C
  C8       1.0000 0.47200  0.15100  0.31000  Biso   1.000  C
  C9       1.0000 0.84900  0.32100  0.31000  Biso   1.000  C
  C10      1.0000 0.32100  0.47200  0.81000  Biso   1.000  C
  C11      1.0000 0.52800  0.84900  0.81000  Biso   1.000  C
  C12      1.0000 0.15100  0.67900  0.81000  Biso   1.000  C
  H1       1.0000 0.68140  0.50930  0.38370  Biso   1.000  H
  H2       1.0000 0.49070  0.17210  0.38370  Biso   1.000  H
  H3       1.0000 0.82790  0.31860  0.38370  Biso   1.000  H
  H4       1.0000 0.31860  0.49070  0.88370  Biso   1.000  H
  H5       1.0000 0.50930  0.82790  0.88370  Biso   1.000  H
  H6       1.0000 0.17210  0.68140  0.88370  Biso   1.000  H
  C13      1.0000 0.53500  0.51900  0.31500  Biso   1.000  C
  C14      1.0000 0.48100  0.01600  0.31500  Biso   1.000  C
  C15      1.0000 0.98400  0.46500  0.31500  Biso   1.000  C
  C16      1.0000 0.46500  0.48100  0.81500  Biso   1.000  C
  C17      1.0000 0.51900  0.98400  0.81500  Biso   1.000  C
  C18      1.0000 0.01600  0.53500  0.81500  Biso   1.000  C
  C19      1.0000 0.44900  0.47200  0.26100  Biso   1.000  C
  C20      1.0000 0.52800  0.97700  0.26100  Biso   1.000  C
  C21      1.0000 0.02300  0.55100  0.26100  Biso   1.000  C
  C22      1.0000 0.55100  0.52800  0.76100  Biso   1.000  C
  C23      1.0000 0.47200  0.02300  0.76100  Biso   1.000  C
  C24      1.0000 0.97700  0.44900  0.76100  Biso   1.000  C
  C25      1.0000 0.27000  0.50400  0.32100  Biso   1.000  C
  C26      1.0000 0.49600  0.76600  0.32100  Biso   1.000  C
  C27      1.0000 0.23400  0.73000  0.32100  Biso   1.000  C
  C28      1.0000 0.73000  0.49600  0.82100  Biso   1.000  C
  C29      1.0000 0.50400  0.23400  0.82100  Biso   1.000  C
  C30      1.0000 0.76600  0.27000  0.82100  Biso   1.000  C
  C31      1.0000 0.30100  0.44800  0.27000  Biso   1.000  C
  C32      1.0000 0.55200  0.85300  0.27000  Biso   1.000  C
  C33      1.0000 0.14700  0.69900  0.27000  Biso   1.000  C
  C34      1.0000 0.69900  0.55200  0.77000  Biso   1.000  C
  C35      1.0000 0.44800  0.14700  0.77000  Biso   1.000  C
  C36      1.0000 0.85300  0.30100  0.77000  Biso   1.000  C
  H7       1.0000 0.29140  0.44700  0.19190  Biso   1.000  H
  H8       1.0000 0.55300  0.84440  0.19190  Biso   1.000  H
  H9       1.0000 0.15560  0.70860  0.19190  Biso   1.000  H
  H10      1.0000 0.70860  0.55300  0.69190  Biso   1.000  H
  H11      1.0000 0.44700  0.15560  0.69190  Biso   1.000  H
  H12      1.0000 0.84440  0.29140  0.69190  Biso   1.000  H
  C37      1.0000 0.74500  0.62700  0.29400  Biso   1.000  C
  C38      1.0000 0.37300  0.11800  0.29400  Biso   1.000  C
  C39      1.0000 0.88200  0.25500  0.29400  Biso   1.000  C
  C40      1.0000 0.25500  0.37300  0.79400  Biso   1.000  C
  C41      1.0000 0.62700  0.88200  0.79400  Biso   1.000  C
  C42      1.0000 0.11800  0.74500  0.79400  Biso   1.000  C
  H13      1.0000 0.70650  0.64830  0.26680  Biso   1.000  H
  H14      1.0000 0.35170  0.05820  0.26680  Biso   1.000  H
  H15      1.0000 0.94180  0.29350  0.26680  Biso   1.000  H
  H16      1.0000 0.29350  0.35170  0.76680  Biso   1.000  H
  H17      1.0000 0.64830  0.94180  0.76680  Biso   1.000  H
  H18      1.0000 0.05820  0.70650  0.76680  Biso   1.000  H
  H19      1.0000 0.75710  0.64810  0.36790  Biso   1.000  H
  H20      1.0000 0.35190  0.10900  0.36790  Biso   1.000  H
  H21      1.0000 0.89100  0.24290  0.36790  Biso   1.000  H
  H22      1.0000 0.24290  0.35190  0.86790  Biso   1.000  H
  H23      1.0000 0.64810  0.89100  0.86790  Biso   1.000  H
  H24      1.0000 0.10900  0.75710  0.86790  Biso   1.000  H
  C43      1.0000 0.83060  0.68760  0.24010  Biso   1.000  C
  C44      1.0000 0.31240  0.14300  0.24010  Biso   1.000  C
  C45      1.0000 0.85700  0.16940  0.24010  Biso   1.000  C
  C46      1.0000 0.16940  0.31240  0.74010  Biso   1.000  C
  C47      1.0000 0.68760  0.85700  0.74010  Biso   1.000  C
  C48      1.0000 0.14300  0.83060  0.74010  Biso   1.000  C
  H25      1.0000 0.83380  0.66610  0.16930  Biso   1.000  H
  H26      1.0000 0.33390  0.16770  0.16930  Biso   1.000  H
  H27      1.0000 0.83230  0.16620  0.16930  Biso   1.000  H
  H28      1.0000 0.16620  0.33390  0.66930  Biso   1.000  H
  H29      1.0000 0.66610  0.83230  0.66930  Biso   1.000  H
  H30      1.0000 0.16770  0.83380  0.66930  Biso   1.000  H
  H31      1.0000 0.88090  0.69590  0.28280  Biso   1.000  H
  H32      1.0000 0.30410  0.18500  0.28280  Biso   1.000  H
  H33      1.0000 0.81500  0.11910  0.28280  Biso   1.000  H
  H34      1.0000 0.11910  0.30410  0.78280  Biso   1.000  H
  H35      1.0000 0.69590  0.81500  0.78280  Biso   1.000  H
  H36      1.0000 0.18500  0.88090  0.78280  Biso   1.000  H
  S1       1.0000 0.82480  0.78850  0.23250  Biso   1.000  S
  S2       1.0000 0.21150  0.03630  0.23250  Biso   1.000  S
  S3       1.0000 0.96370  0.17520  0.23250  Biso   1.000  S
  S4       1.0000 0.17520  0.21150  0.73250  Biso   1.000  S
  S5       1.0000 0.78850  0.96370  0.73250  Biso   1.000  S
  S6       1.0000 0.03630  0.82480  0.73250  Biso   1.000  S
  C49      1.0000 0.91280  0.89830  0.19730  Biso   1.000  C
  C50      1.0000 0.10170  0.01450  0.19730  Biso   1.000  C
  C51      1.0000 0.98550  0.08720  0.19730  Biso   1.000  C
  C52      1.0000 0.08720  0.10170  0.69730  Biso   1.000  C
  C53      1.0000 0.89830  0.98550  0.69730  Biso   1.000  C
  C54      1.0000 0.01450  0.91280  0.69730  Biso   1.000  C
  H37      1.0000 0.95690  0.92050  0.25300  Biso   1.000  H
  H38      1.0000 0.07950  0.03640  0.25300  Biso   1.000  H
  H39      1.0000 0.96360  0.04310  0.25300  Biso   1.000  H
  H40      1.0000 0.04310  0.07950  0.75300  Biso   1.000  H
  H41      1.0000 0.92050  0.96360  0.75300  Biso   1.000  H
  H42      1.0000 0.03640  0.95690  0.75300  Biso   1.000  H
  H43      1.0000 0.88880  0.93720  0.18930  Biso   1.000  H
  H44      1.0000 0.06280  0.95160  0.18930  Biso   1.000  H
  H45      1.0000 0.04840  0.11120  0.18930  Biso   1.000  H
  H46      1.0000 0.11120  0.06280  0.68930  Biso   1.000  H
  H47      1.0000 0.93720  0.04840  0.68930  Biso   1.000  H
  H48      1.0000 0.95160  0.88880  0.68930  Biso   1.000  H
  H49      1.0000 0.93950  0.89580  0.13070  Biso   1.000  H
  H50      1.0000 0.10420  0.04370  0.13070  Biso   1.000  H
  H51      1.0000 0.95630  0.06050  0.13070  Biso   1.000  H
  H52      1.0000 0.06050  0.10420  0.63070  Biso   1.000  H
  H53      1.0000 0.89580  0.95630  0.63070  Biso   1.000  H
  H54      1.0000 0.04370  0.93950  0.63070  Biso   1.000  H
  C55      1.0000 0.25870  0.35470  0.31260  Biso   1.000  C
  C56      1.0000 0.64530  0.90400  0.31260  Biso   1.000  C
  C57      1.0000 0.09600  0.74130  0.31260  Biso   1.000  C
  C58      1.0000 0.74130  0.64530  0.81260  Biso   1.000  C
  C59      1.0000 0.35470  0.09600  0.81260  Biso   1.000  C
  C60      1.0000 0.90400  0.25870  0.81260  Biso   1.000  C
  H55      1.0000 0.27980  0.32300  0.26860  Biso   1.000  H
  H56      1.0000 0.67700  0.95680  0.26860  Biso   1.000  H
  H57      1.0000 0.04320  0.72020  0.26860  Biso   1.000  H
  H58      1.0000 0.72020  0.67700  0.76860  Biso   1.000  H
  H59      1.0000 0.32300  0.04320  0.76860  Biso   1.000  H
  H60      1.0000 0.95680  0.27980  0.76860  Biso   1.000  H
  H61      1.0000 0.19520  0.32710  0.30050  Biso   1.000  H
  H62      1.0000 0.67290  0.86810  0.30050  Biso   1.000  H
  H63      1.0000 0.13190  0.80480  0.30050  Biso   1.000  H
  H64      1.0000 0.80480  0.67290  0.80050  Biso   1.000  H
  H65      1.0000 0.32710  0.13190  0.80050  Biso   1.000  H
  H66      1.0000 0.86810  0.19520  0.80050  Biso   1.000  H
  C61      1.0000 0.27200  0.33860  0.42930  Biso   1.000  C
  C62      1.0000 0.66140  0.93340  0.42930  Biso   1.000  C
  C63      1.0000 0.06660  0.72800  0.42930  Biso   1.000  C
  C64      1.0000 0.72800  0.66140  0.92930  Biso   1.000  C
  C65      1.0000 0.33860  0.06660  0.92930  Biso   1.000  C
  C66      1.0000 0.93340  0.27200  0.92930  Biso   1.000  C
  H67      1.0000 0.27240  0.28310  0.42440  Biso   1.000  H
  H68      1.0000 0.71690  0.98930  0.42440  Biso   1.000  H
  H69      1.0000 0.01070  0.72760  0.42440  Biso   1.000  H
  H70      1.0000 0.72760  0.71690  0.92440  Biso   1.000  H
  H71      1.0000 0.28310  0.01070  0.92440  Biso   1.000  H
  H72      1.0000 0.98930  0.27240  0.92440  Biso   1.000  H
  H73      1.0000 0.21460  0.32230  0.46000  Biso   1.000  H
  H74      1.0000 0.67770  0.89230  0.46000  Biso   1.000  H
  H75      1.0000 0.10770  0.78540  0.46000  Biso   1.000  H
  H76      1.0000 0.78540  0.67770  0.96000  Biso   1.000  H
  H77      1.0000 0.32230  0.10770  0.96000  Biso   1.000  H
  H78      1.0000 0.89230  0.21460  0.96000  Biso   1.000  H
  S7       1.0000 0.34640  0.39230  0.54460  Biso   1.000  S
  S8       1.0000 0.60770  0.95410  0.54460  Biso   1.000  S
  S9       1.0000 0.04590  0.65360  0.54460  Biso   1.000  S
  S10      1.0000 0.65360  0.60770  0.04460  Biso   1.000  S
  S11      1.0000 0.39230  0.04590  0.04460  Biso   1.000  S
  S12      1.0000 0.95410  0.34640  0.04460  Biso   1.000  S
  C67      1.0000 0.23310  0.34150  0.59900  Biso   1.000  C
  C68      1.0000 0.65850  0.89160  0.59900  Biso   1.000  C
  C69      1.0000 0.10840  0.76690  0.59900  Biso   1.000  C
  C70      1.0000 0.76690  0.65850  0.09900  Biso   1.000  C
  C71      1.0000 0.34150  0.10840  0.09900  Biso   1.000  C
  C72      1.0000 0.89160  0.23310  0.09900  Biso   1.000  C
  H79      1.0000 0.21500  0.38530  0.60260  Biso   1.000  H
  H80      1.0000 0.61470  0.82970  0.60260  Biso   1.000  H
  H81      1.0000 0.17030  0.78500  0.60260  Biso   1.000  H
  H82      1.0000 0.78500  0.61470  0.10260  Biso   1.000  H
  H83      1.0000 0.38530  0.17030  0.10260  Biso   1.000  H
  H84      1.0000 0.82970  0.21500  0.10260  Biso   1.000  H
  H85      1.0000 0.23180  0.31880  0.66970  Biso   1.000  H
  H86      1.0000 0.68120  0.91300  0.66970  Biso   1.000  H
  H87      1.0000 0.08700  0.76820  0.66970  Biso   1.000  H
  H88      1.0000 0.76820  0.68120  0.16970  Biso   1.000  H
  H89      1.0000 0.31880  0.08700  0.16970  Biso   1.000  H
  H90      1.0000 0.91300  0.23180  0.16970  Biso   1.000  H
  H91      1.0000 0.19320  0.29370  0.55290  Biso   1.000  H
  H92      1.0000 0.70630  0.89950  0.55290  Biso   1.000  H
  H93      1.0000 0.10050  0.80680  0.55290  Biso   1.000  H
  H94      1.0000 0.80680  0.70630  0.05290  Biso   1.000  H
  H95      1.0000 0.29370  0.10050  0.05290  Biso   1.000  H
  H96      1.0000 0.89950  0.19320  0.05290  Biso   1.000  H
  Au1      1.0000 0.79250  0.83500  0.05190  Biso   1.000  Au
  Au2      1.0000 0.16500  0.95750  0.05190  Biso   1.000  Au
  Au3      1.0000 0.04250  0.20750  0.05190  Biso   1.000  Au
  Au4      1.0000 0.20750  0.16500  0.55190  Biso   1.000  Au
  Au5      1.0000 0.83500  0.04250  0.55190  Biso   1.000  Au
  Au6      1.0000 0.95750  0.79250  0.55190  Biso   1.000  Au
  Cl1      1.0000 0.69000  0.79100  0.88600  Biso   1.000  Cl
  Cl2      1.0000 0.20900  0.89900  0.88600  Biso   1.000  Cl
  Cl3      1.0000 0.10100  0.31000  0.88600  Biso   1.000  Cl
  Cl4      1.0000 0.31000  0.20900  0.38600  Biso   1.000  Cl
  Cl5      1.0000 0.79100  0.10100  0.38600  Biso   1.000  Cl
  Cl6      1.0000 0.89900  0.69000  0.38600  Biso   1.000  Cl
  O43      1.0000 0.01700  0.32500  0.53000  Biso   1.000  O
  O44      1.0000 0.67500  0.69200  0.53000  Biso   1.000  O
  O45      1.0000 0.30800  0.98300  0.53000  Biso   1.000  O
  O46      1.0000 0.98300  0.67500  0.03000  Biso   1.000  O
  O47      1.0000 0.32500  0.30800  0.03000  Biso   1.000  O
  O48      1.0000 0.69200  0.01700  0.03000  Biso   1.000  O
  C73      1.0000 0.01900  0.26300  0.61300  Biso   1.000  C
  C74      1.0000 0.73700  0.75600  0.61300  Biso   1.000  C
  C75      1.0000 0.24400  0.98100  0.61300  Biso   1.000  C
  C76      1.0000 0.98100  0.73700  0.11300  Biso   1.000  C
  C77      1.0000 0.26300  0.24400  0.11300  Biso   1.000  C
  C78      1.0000 0.75600  0.01900  0.11300  Biso   1.000  C
  O49      1.0000 0.39600  0.63200  0.08900  Biso   1.000  O
  O50      1.0000 0.36800  0.76400  0.08900  Biso   1.000  O
  O51      1.0000 0.23600  0.60400  0.08900  Biso   1.000  O
  O52      1.0000 0.60400  0.36800  0.58900  Biso   1.000  O
  O53      1.0000 0.63200  0.23600  0.58900  Biso   1.000  O
  O54      1.0000 0.76400  0.39600  0.58900  Biso   1.000  O
  Au7      1.0000 0.40470  0.26640  0.53140  Biso   1.000  Au
  Au8      1.0000 0.73360  0.13830  0.53140  Biso   1.000  Au
  Au9      1.0000 0.86170  0.59530  0.53140  Biso   1.000  Au
  Au10     1.0000 0.59530  0.73360  0.03140  Biso   1.000  Au
  Au11     1.0000 0.26640  0.86170  0.03140  Biso   1.000  Au
  Au12     1.0000 0.13830  0.40470  0.03140  Biso   1.000  Au
