data_image0
_cell_length_a       13.701
_cell_length_b       13.799
_cell_length_c       16.071
_cell_angle_alpha    90
_cell_angle_beta     98.169
_cell_angle_gamma    90

_symmetry_space_group_name_H-M    "P 1"
_symmetry_int_tables_number       1

loop_
  _symmetry_equiv_pos_as_xyz
  'x, y, z'

loop_
  _atom_site_label
  _atom_site_occupancy
  _atom_site_fract_x
  _atom_site_fract_y
  _atom_site_fract_z
  _atom_site_thermal_displace_type
  _atom_site_B_iso_or_equiv
  _atom_site_type_symbol
  Cu1      1.0000 0.80059  0.17047  0.52008  Biso   1.000  Cu
  Cu2      1.0000 0.69941  0.67047  0.97992  Biso   1.000  Cu
  Cu3      1.0000 0.19941  0.82953  0.47992  Biso   1.000  Cu
  Cu4      1.0000 0.30059  0.32953  0.02008  Biso   1.000  Cu
  N1       1.0000 0.90680  0.09400  0.65880  Biso   1.000  N
  N2       1.0000 0.59320  0.59400  0.84120  Biso   1.000  N
  N3       1.0000 0.09320  0.90600  0.34120  Biso   1.000  N
  N4       1.0000 0.40680  0.40600  0.15880  Biso   1.000  N
  C1       1.0000 0.85640  0.04000  0.71270  Biso   1.000  C
  C2       1.0000 0.64360  0.54000  0.78730  Biso   1.000  C
  C3       1.0000 0.14360  0.96000  0.28730  Biso   1.000  C
  C4       1.0000 0.35640  0.46000  0.21270  Biso   1.000  C
  C5       1.0000 0.84560  0.94030  0.70280  Biso   1.000  C
  C6       1.0000 0.65440  0.44030  0.79720  Biso   1.000  C
  C7       1.0000 0.15440  0.05970  0.29720  Biso   1.000  C
  C8       1.0000 0.34560  0.55970  0.20280  Biso   1.000  C
  C9       1.0000 0.78880  0.88890  0.75190  Biso   1.000  C
  C10      1.0000 0.71120  0.38890  0.74810  Biso   1.000  C
  C11      1.0000 0.21120  0.11110  0.24810  Biso   1.000  C
  C12      1.0000 0.28880  0.61110  0.25190  Biso   1.000  C
  C13      1.0000 0.74370  0.93570  0.81290  Biso   1.000  C
  C14      1.0000 0.75630  0.43570  0.68710  Biso   1.000  C
  C15      1.0000 0.25630  0.06430  0.18710  Biso   1.000  C
  C16      1.0000 0.24370  0.56430  0.31290  Biso   1.000  C
  C17      1.0000 0.75610  0.03470  0.82450  Biso   1.000  C
  C18      1.0000 0.74390  0.53470  0.67550  Biso   1.000  C
  C19      1.0000 0.24390  0.96530  0.17550  Biso   1.000  C
  C20      1.0000 0.25610  0.46530  0.32450  Biso   1.000  C
  C21      1.0000 0.81140  0.08650  0.77480  Biso   1.000  C
  C22      1.0000 0.68860  0.58650  0.72520  Biso   1.000  C
  C23      1.0000 0.18860  0.91350  0.22520  Biso   1.000  C
  C24      1.0000 0.31140  0.41350  0.27480  Biso   1.000  C
  S1       1.0000 0.66668  0.86984  0.87166  Biso   1.000  S
  S2       1.0000 0.83332  0.36984  0.62834  Biso   1.000  S
  S3       1.0000 0.33332  0.13016  0.12834  Biso   1.000  S
  S4       1.0000 0.16668  0.63016  0.37166  Biso   1.000  S
  O1       1.0000 0.61180  0.80220  0.81450  Biso   1.000  O
  O2       1.0000 0.88820  0.30220  0.68550  Biso   1.000  O
  O3       1.0000 0.38820  0.19780  0.18550  Biso   1.000  O
  O4       1.0000 0.11180  0.69780  0.31450  Biso   1.000  O
  O5       1.0000 0.60890  0.93920  0.91060  Biso   1.000  O
  O6       1.0000 0.89110  0.43920  0.58940  Biso   1.000  O
  O7       1.0000 0.39110  0.06080  0.08940  Biso   1.000  O
  O8       1.0000 0.10890  0.56080  0.41060  Biso   1.000  O
  N5       1.0000 0.73230  0.80410  0.94060  Biso   1.000  N
  N6       1.0000 0.76770  0.30410  0.55940  Biso   1.000  N
  N7       1.0000 0.26770  0.19590  0.05940  Biso   1.000  N
  N8       1.0000 0.23230  0.69590  0.44060  Biso   1.000  N
  C25      1.0000 0.78940  0.84560  0.00950  Biso   1.000  C
  C26      1.0000 0.71060  0.34560  0.49050  Biso   1.000  C
  C27      1.0000 0.21060  0.15440  0.99050  Biso   1.000  C
  C28      1.0000 0.28940  0.65440  0.50950  Biso   1.000  C
  N9       1.0000 0.82270  0.93630  0.00770  Biso   1.000  N
  N10      1.0000 0.67730  0.43630  0.49230  Biso   1.000  N
  N11      1.0000 0.17730  0.06370  0.99230  Biso   1.000  N
  N12      1.0000 0.32270  0.56370  0.50770  Biso   1.000  N
  C29      1.0000 0.88090  0.96660  0.07680  Biso   1.000  C
  C30      1.0000 0.61910  0.46660  0.42320  Biso   1.000  C
  C31      1.0000 0.11910  0.03340  0.92320  Biso   1.000  C
  C32      1.0000 0.38090  0.53340  0.57680  Biso   1.000  C
  C33      1.0000 0.92260  0.06800  0.07370  Biso   1.000  C
  C34      1.0000 0.57740  0.56800  0.42630  Biso   1.000  C
  C35      1.0000 0.07740  0.93200  0.92630  Biso   1.000  C
  C36      1.0000 0.42260  0.43200  0.57370  Biso   1.000  C
  C37      1.0000 0.90180  0.90950  0.14640  Biso   1.000  C
  C38      1.0000 0.59820  0.40950  0.35360  Biso   1.000  C
  C39      1.0000 0.09820  0.09050  0.85360  Biso   1.000  C
  C40      1.0000 0.40180  0.59050  0.64640  Biso   1.000  C
  C41      1.0000 0.86430  0.81610  0.14290  Biso   1.000  C
  C42      1.0000 0.63570  0.31610  0.35710  Biso   1.000  C
  C43      1.0000 0.13570  0.18390  0.85710  Biso   1.000  C
  C44      1.0000 0.36430  0.68390  0.64290  Biso   1.000  C
  C45      1.0000 0.88360  0.74670  0.21520  Biso   1.000  C
  C46      1.0000 0.61640  0.24670  0.28480  Biso   1.000  C
  C47      1.0000 0.11640  0.25330  0.78480  Biso   1.000  C
  C48      1.0000 0.38360  0.75330  0.71520  Biso   1.000  C
  N13      1.0000 0.80750  0.78410  0.07390  Biso   1.000  N
  N14      1.0000 0.69250  0.28410  0.42610  Biso   1.000  N
  N15      1.0000 0.19250  0.21590  0.92610  Biso   1.000  N
  N16      1.0000 0.30750  0.71590  0.57390  Biso   1.000  N
  N17      1.0000 0.51030  0.87790  0.14150  Biso   1.000  N
  N18      1.0000 0.98970  0.37790  0.35850  Biso   1.000  N
  N19      1.0000 0.48970  0.12210  0.85850  Biso   1.000  N
  N20      1.0000 0.01030  0.62210  0.64150  Biso   1.000  N
  C49      1.0000 0.59000  0.89600  0.20430  Biso   1.000  C
  C50      1.0000 0.91000  0.39600  0.29570  Biso   1.000  C
  C51      1.0000 0.41000  0.10400  0.79570  Biso   1.000  C
  C52      1.0000 0.09000  0.60400  0.70430  Biso   1.000  C
  C53      1.0000 0.63410  0.98620  0.20840  Biso   1.000  C
  C54      1.0000 0.86590  0.48620  0.29160  Biso   1.000  C
  C55      1.0000 0.36590  0.01380  0.79160  Biso   1.000  C
  C56      1.0000 0.13410  0.51380  0.70840  Biso   1.000  C
  C57      1.0000 0.71220  0.00510  0.26960  Biso   1.000  C
  C58      1.0000 0.78780  0.50510  0.23040  Biso   1.000  C
  C59      1.0000 0.28780  0.99490  0.73040  Biso   1.000  C
  C60      1.0000 0.21220  0.49490  0.76960  Biso   1.000  C
  C61      1.0000 0.74760  0.93450  0.32790  Biso   1.000  C
  C62      1.0000 0.75240  0.43450  0.17210  Biso   1.000  C
  C63      1.0000 0.25240  0.06550  0.67210  Biso   1.000  C
  C64      1.0000 0.24760  0.56550  0.82790  Biso   1.000  C
  C65      1.0000 0.70410  0.84480  0.32340  Biso   1.000  C
  C66      1.0000 0.79590  0.34480  0.17660  Biso   1.000  C
  C67      1.0000 0.29590  0.15520  0.67660  Biso   1.000  C
  C68      1.0000 0.20410  0.65520  0.82340  Biso   1.000  C
  C69      1.0000 0.62530  0.82510  0.25900  Biso   1.000  C
  C70      1.0000 0.87470  0.32510  0.24100  Biso   1.000  C
  C71      1.0000 0.37470  0.17490  0.74100  Biso   1.000  C
  C72      1.0000 0.12530  0.67490  0.75900  Biso   1.000  C
  S5       1.0000 0.84230  0.96511  0.40779  Biso   1.000  S
  S6       1.0000 0.65770  0.46511  0.09221  Biso   1.000  S
  S7       1.0000 0.15770  0.03489  0.59221  Biso   1.000  S
  S8       1.0000 0.34230  0.53489  0.90779  Biso   1.000  S
  O9       1.0000 0.88110  0.87670  0.44560  Biso   1.000  O
  O10      1.0000 0.61890  0.37670  0.05440  Biso   1.000  O
  O11      1.0000 0.11890  0.12330  0.55440  Biso   1.000  O
  O12      1.0000 0.38110  0.62330  0.94560  Biso   1.000  O
  O13      1.0000 0.91180  0.02570  0.37270  Biso   1.000  O
  O14      1.0000 0.58820  0.52570  0.12730  Biso   1.000  O
  O15      1.0000 0.08820  0.97430  0.62730  Biso   1.000  O
  O16      1.0000 0.41180  0.47430  0.87270  Biso   1.000  O
  N21      1.0000 0.79560  0.03330  0.47180  Biso   1.000  N
  N22      1.0000 0.70440  0.53330  0.02820  Biso   1.000  N
  N23      1.0000 0.20440  0.96670  0.52820  Biso   1.000  N
  N24      1.0000 0.29560  0.46670  0.97180  Biso   1.000  N
  C73      1.0000 0.71880  0.00570  0.51360  Biso   1.000  C
  C74      1.0000 0.78120  0.50570  0.98640  Biso   1.000  C
  C75      1.0000 0.28120  0.99430  0.48640  Biso   1.000  C
  C76      1.0000 0.21880  0.49430  0.01360  Biso   1.000  C
  N25      1.0000 0.68260  0.91780  0.51660  Biso   1.000  N
  N26      1.0000 0.81740  0.41780  0.98340  Biso   1.000  N
  N27      1.0000 0.31740  0.08220  0.48340  Biso   1.000  N
  N28      1.0000 0.18260  0.58220  0.01660  Biso   1.000  N
  C77      1.0000 0.60910  0.90860  0.56420  Biso   1.000  C
  C78      1.0000 0.89090  0.40860  0.93580  Biso   1.000  C
  C79      1.0000 0.39090  0.09140  0.43580  Biso   1.000  C
  C80      1.0000 0.10910  0.59140  0.06420  Biso   1.000  C
  C81      1.0000 0.56780  0.80780  0.57000  Biso   1.000  C
  C82      1.0000 0.93220  0.30780  0.93000  Biso   1.000  C
  C83      1.0000 0.43220  0.19220  0.43000  Biso   1.000  C
  C84      1.0000 0.06780  0.69220  0.07000  Biso   1.000  C
  C85      1.0000 0.57560  0.98540  0.60550  Biso   1.000  C
  C86      1.0000 0.92440  0.48540  0.89450  Biso   1.000  C
  C87      1.0000 0.42440  0.01460  0.39450  Biso   1.000  C
  C88      1.0000 0.07560  0.51460  0.10550  Biso   1.000  C
  C89      1.0000 0.61790  0.07640  0.59980  Biso   1.000  C
  C90      1.0000 0.88210  0.57640  0.90020  Biso   1.000  C
  C91      1.0000 0.38210  0.92360  0.40020  Biso   1.000  C
  C92      1.0000 0.11790  0.42360  0.09980  Biso   1.000  C
  C93      1.0000 0.58720  0.16420  0.64270  Biso   1.000  C
  C94      1.0000 0.91280  0.66420  0.85730  Biso   1.000  C
  C95      1.0000 0.41280  0.83580  0.35730  Biso   1.000  C
  C96      1.0000 0.08720  0.33580  0.14270  Biso   1.000  C
  N29      1.0000 0.69100  0.08530  0.55304  Biso   1.000  N
  N30      1.0000 0.80900  0.58530  0.94696  Biso   1.000  N
  N31      1.0000 0.30900  0.91470  0.44696  Biso   1.000  N
  N32      1.0000 0.19100  0.41470  0.05304  Biso   1.000  N
  O17      1.0000 0.92300  0.21040  0.47690  Biso   1.000  O
  O18      1.0000 0.57700  0.71040  0.02310  Biso   1.000  O
  O19      1.0000 0.07700  0.78960  0.52310  Biso   1.000  O
  O20      1.0000 0.42300  0.28960  0.97690  Biso   1.000  O
  H1       1.0000 0.87700  0.90710  0.66170  Biso   1.000  H
  H2       1.0000 0.62300  0.40710  0.83830  Biso   1.000  H
  H3       1.0000 0.12300  0.09290  0.33830  Biso   1.000  H
  H4       1.0000 0.37700  0.59290  0.16170  Biso   1.000  H
  H5       1.0000 0.77920  0.82180  0.74400  Biso   1.000  H
  H6       1.0000 0.72080  0.32180  0.75600  Biso   1.000  H
  H7       1.0000 0.22080  0.17820  0.25600  Biso   1.000  H
  H8       1.0000 0.27920  0.67820  0.24400  Biso   1.000  H
  H9       1.0000 0.72740  0.06630  0.86620  Biso   1.000  H
  H10      1.0000 0.77260  0.56630  0.63380  Biso   1.000  H
  H11      1.0000 0.27260  0.93370  0.13380  Biso   1.000  H
  H12      1.0000 0.22740  0.43370  0.36620  Biso   1.000  H
  H13      1.0000 0.82000  0.15390  0.78330  Biso   1.000  H
  H14      1.0000 0.68000  0.65390  0.71670  Biso   1.000  H
  H15      1.0000 0.18000  0.84610  0.21670  Biso   1.000  H
  H16      1.0000 0.32000  0.34610  0.28330  Biso   1.000  H
  H17      1.0000 0.98430  0.07090  0.10980  Biso   1.000  H
  H18      1.0000 0.51570  0.57090  0.39020  Biso   1.000  H
  H19      1.0000 0.01570  0.92910  0.89020  Biso   1.000  H
  H20      1.0000 0.48430  0.42910  0.60980  Biso   1.000  H
  H21      1.0000 0.87670  0.11250  0.09240  Biso   1.000  H
  H22      1.0000 0.62330  0.61250  0.40760  Biso   1.000  H
  H23      1.0000 0.12330  0.88750  0.90760  Biso   1.000  H
  H24      1.0000 0.37670  0.38750  0.59240  Biso   1.000  H
  H25      1.0000 0.93110  0.08290  0.01650  Biso   1.000  H
  H26      1.0000 0.56890  0.58290  0.48350  Biso   1.000  H
  H27      1.0000 0.06890  0.91710  0.98350  Biso   1.000  H
  H28      1.0000 0.43110  0.41710  0.51650  Biso   1.000  H
  H29      1.0000 0.94160  0.93250  0.19530  Biso   1.000  H
  H30      1.0000 0.55840  0.43250  0.30470  Biso   1.000  H
  H31      1.0000 0.05840  0.06750  0.80470  Biso   1.000  H
  H32      1.0000 0.44160  0.56750  0.69530  Biso   1.000  H
  H33      1.0000 0.82280  0.71870  0.22600  Biso   1.000  H
  H34      1.0000 0.67720  0.21870  0.27400  Biso   1.000  H
  H35      1.0000 0.17720  0.28130  0.77400  Biso   1.000  H
  H36      1.0000 0.32280  0.78130  0.72600  Biso   1.000  H
  H37      1.0000 0.91390  0.77980  0.26480  Biso   1.000  H
  H38      1.0000 0.58610  0.27980  0.23520  Biso   1.000  H
  H39      1.0000 0.08610  0.22020  0.73520  Biso   1.000  H
  H40      1.0000 0.41390  0.72020  0.76480  Biso   1.000  H
  H41      1.0000 0.92610  0.69580  0.20160  Biso   1.000  H
  H42      1.0000 0.57390  0.19580  0.29840  Biso   1.000  H
  H43      1.0000 0.07390  0.30420  0.79840  Biso   1.000  H
  H44      1.0000 0.42610  0.80420  0.70160  Biso   1.000  H
  H45      1.0000 0.61020  0.03500  0.17020  Biso   1.000  H
  H46      1.0000 0.88980  0.53500  0.32980  Biso   1.000  H
  H47      1.0000 0.38980  0.96500  0.82980  Biso   1.000  H
  H48      1.0000 0.11020  0.46500  0.67020  Biso   1.000  H
  H49      1.0000 0.74280  0.06710  0.27190  Biso   1.000  H
  H50      1.0000 0.75720  0.56710  0.22810  Biso   1.000  H
  H51      1.0000 0.25720  0.93290  0.72810  Biso   1.000  H
  H52      1.0000 0.24280  0.43290  0.77190  Biso   1.000  H
  H53      1.0000 0.72740  0.79730  0.36370  Biso   1.000  H
  H54      1.0000 0.77260  0.29730  0.13630  Biso   1.000  H
  H55      1.0000 0.27260  0.20270  0.63630  Biso   1.000  H
  H56      1.0000 0.22740  0.70270  0.86370  Biso   1.000  H
  H57      1.0000 0.59740  0.76260  0.25330  Biso   1.000  H
  H58      1.0000 0.90260  0.26260  0.24670  Biso   1.000  H
  H59      1.0000 0.40260  0.23740  0.74670  Biso   1.000  H
  H60      1.0000 0.09740  0.73740  0.75330  Biso   1.000  H
  H61      1.0000 0.57600  0.78770  0.62740  Biso   1.000  H
  H62      1.0000 0.92400  0.28770  0.87260  Biso   1.000  H
  H63      1.0000 0.42400  0.21230  0.37260  Biso   1.000  H
  H64      1.0000 0.07600  0.71230  0.12740  Biso   1.000  H
  H65      1.0000 0.60310  0.76410  0.53800  Biso   1.000  H
  H66      1.0000 0.89690  0.26410  0.96200  Biso   1.000  H
  H67      1.0000 0.39690  0.23590  0.46200  Biso   1.000  H
  H68      1.0000 0.10310  0.73590  0.03800  Biso   1.000  H
  H69      1.0000 0.49930  0.80760  0.54750  Biso   1.000  H
  H70      1.0000 0.00070  0.30760  0.95250  Biso   1.000  H
  H71      1.0000 0.50070  0.19240  0.45250  Biso   1.000  H
  H72      1.0000 0.99930  0.69240  0.04750  Biso   1.000  H
  H73      1.0000 0.52430  0.97620  0.63890  Biso   1.000  H
  H74      1.0000 0.97570  0.47620  0.86110  Biso   1.000  H
  H75      1.0000 0.47570  0.02380  0.36110  Biso   1.000  H
  H76      1.0000 0.02430  0.52380  0.13890  Biso   1.000  H
  H77      1.0000 0.61660  0.22020  0.62090  Biso   1.000  H
  H78      1.0000 0.88340  0.72020  0.87910  Biso   1.000  H
  H79      1.0000 0.38340  0.77980  0.37910  Biso   1.000  H
  H80      1.0000 0.11660  0.27980  0.12090  Biso   1.000  H
  H81      1.0000 0.60750  0.15790  0.70160  Biso   1.000  H
  H82      1.0000 0.89250  0.65790  0.79840  Biso   1.000  H
  H83      1.0000 0.39250  0.84210  0.29840  Biso   1.000  H
  H84      1.0000 0.10750  0.34210  0.20160  Biso   1.000  H
  H85      1.0000 0.51690  0.16950  0.63200  Biso   1.000  H
  H86      1.0000 0.98310  0.66950  0.86800  Biso   1.000  H
  H87      1.0000 0.48310  0.83050  0.36800  Biso   1.000  H
  H88      1.0000 0.01690  0.33050  0.13200  Biso   1.000  H
  H89      1.0000 0.95570  0.05830  0.64240  Biso   1.000  H
  H90      1.0000 0.54430  0.55830  0.85760  Biso   1.000  H
  H91      1.0000 0.04430  0.94170  0.35760  Biso   1.000  H
  H92      1.0000 0.45570  0.44170  0.14240  Biso   1.000  H
  H93      1.0000 0.93770  0.14340  0.68750  Biso   1.000  H
  H94      1.0000 0.56230  0.64340  0.81250  Biso   1.000  H
  H95      1.0000 0.06230  0.85660  0.31250  Biso   1.000  H
  H96      1.0000 0.43770  0.35660  0.18750  Biso   1.000  H
  H97      1.0000 0.47440  0.82640  0.14380  Biso   1.000  H
  H98      1.0000 0.02560  0.32640  0.35620  Biso   1.000  H
  H99      1.0000 0.52560  0.17360  0.85620  Biso   1.000  H
  H100     1.0000 0.97440  0.67360  0.64380  Biso   1.000  H
  H101     1.0000 0.91910  0.16710  0.43900  Biso   1.000  H
  H102     1.0000 0.58090  0.66710  0.06100  Biso   1.000  H
  H103     1.0000 0.08090  0.83290  0.56100  Biso   1.000  H
  H104     1.0000 0.41910  0.33290  0.93900  Biso   1.000  H
  H105     1.0000 0.96780  0.18220  0.50910  Biso   1.000  H
  H106     1.0000 0.53220  0.68220  0.99090  Biso   1.000  H
  H107     1.0000 0.03220  0.81780  0.49090  Biso   1.000  H
  H108     1.0000 0.46780  0.31780  0.00910  Biso   1.000  H
  H109     1.0000 0.47990  0.92530  0.11310  Biso   1.000  H
  H110     1.0000 0.02010  0.42530  0.38690  Biso   1.000  H
  H111     1.0000 0.52010  0.07470  0.88690  Biso   1.000  H
  H112     1.0000 0.97990  0.57470  0.61310  Biso   1.000  H
  O21      1.0000 0.32500  0.77430  0.05800  Biso   1.000  O
  O22      1.0000 0.17500  0.27430  0.44200  Biso   1.000  O
  O23      1.0000 0.67500  0.22570  0.94200  Biso   1.000  O
  O24      1.0000 0.82500  0.72570  0.55800  Biso   1.000  O
  H113     1.0000 0.36250  0.73350  0.07730  Biso   1.000  H
  H114     1.0000 0.13750  0.23350  0.42270  Biso   1.000  H
  H115     1.0000 0.63750  0.26650  0.92270  Biso   1.000  H
  H116     1.0000 0.86250  0.76650  0.57730  Biso   1.000  H
  H117     1.0000 0.27390  0.77280  0.07650  Biso   1.000  H
  H118     1.0000 0.22610  0.27280  0.42350  Biso   1.000  H
  H119     1.0000 0.72610  0.22720  0.92350  Biso   1.000  H
  H120     1.0000 0.77390  0.72720  0.57650  Biso   1.000  H
