data_image0
_cell_length_a       10.2363
_cell_length_b       17.779
_cell_length_c       12.1196
_cell_angle_alpha    90
_cell_angle_beta     109.452
_cell_angle_gamma    90

_symmetry_space_group_name_H-M    "P 1"
_symmetry_int_tables_number       1

loop_
  _symmetry_equiv_pos_as_xyz
  'x, y, z'

loop_
  _atom_site_label
  _atom_site_occupancy
  _atom_site_fract_x
  _atom_site_fract_y
  _atom_site_fract_z
  _atom_site_thermal_displace_type
  _atom_site_B_iso_or_equiv
  _atom_site_type_symbol
  C1       1.0000 0.50510  0.14762  0.44800  Biso   1.000  C
  C2       1.0000 0.49490  0.64762  0.05200  Biso   1.000  C
  C3       1.0000 0.49490  0.85238  0.55200  Biso   1.000  C
  C4       1.0000 0.50510  0.35238  0.94800  Biso   1.000  C
  C5       1.0000 0.56100  0.09144  0.38210  Biso   1.000  C
  C6       1.0000 0.43900  0.59144  0.11790  Biso   1.000  C
  C7       1.0000 0.43900  0.90856  0.61790  Biso   1.000  C
  C8       1.0000 0.56100  0.40856  0.88210  Biso   1.000  C
  C9       1.0000 0.70580  0.08677  0.41250  Biso   1.000  C
  C10      1.0000 0.29420  0.58677  0.08750  Biso   1.000  C
  C11      1.0000 0.29420  0.91323  0.58750  Biso   1.000  C
  C12      1.0000 0.70580  0.41323  0.91250  Biso   1.000  C
  H1       1.0000 0.76310  0.11680  0.47470  Biso   1.000  H
  H2       1.0000 0.23690  0.61680  0.02530  Biso   1.000  H
  H3       1.0000 0.23690  0.88320  0.52530  Biso   1.000  H
  H4       1.0000 0.76310  0.38320  0.97470  Biso   1.000  H
  C13      1.0000 0.76590  0.03888  0.35280  Biso   1.000  C
  C14      1.0000 0.23410  0.53888  0.14720  Biso   1.000  C
  C15      1.0000 0.23410  0.96112  0.64720  Biso   1.000  C
  C16      1.0000 0.76590  0.46112  0.85280  Biso   1.000  C
  H5       1.0000 0.86380  0.03680  0.37350  Biso   1.000  H
  H6       1.0000 0.13620  0.53680  0.12650  Biso   1.000  H
  H7       1.0000 0.13620  0.96320  0.62650  Biso   1.000  H
  H8       1.0000 0.86380  0.46320  0.87350  Biso   1.000  H
  C17      1.0000 0.68380  0.99438  0.26360  Biso   1.000  C
  C18      1.0000 0.31620  0.49438  0.23640  Biso   1.000  C
  C19      1.0000 0.31620  0.00562  0.73640  Biso   1.000  C
  C20      1.0000 0.68380  0.50562  0.76360  Biso   1.000  C
  H9       1.0000 0.72480  0.96110  0.22310  Biso   1.000  H
  H10      1.0000 0.27520  0.46110  0.27690  Biso   1.000  H
  H11      1.0000 0.27520  0.03890  0.77690  Biso   1.000  H
  H12      1.0000 0.72480  0.53890  0.72310  Biso   1.000  H
  C21      1.0000 0.54010  0.99852  0.23310  Biso   1.000  C
  C22      1.0000 0.45990  0.49852  0.26690  Biso   1.000  C
  C23      1.0000 0.45990  0.00148  0.76690  Biso   1.000  C
  C24      1.0000 0.54010  0.50148  0.73310  Biso   1.000  C
  H13      1.0000 0.48350  0.96760  0.17180  Biso   1.000  H
  H14      1.0000 0.51650  0.46760  0.32820  Biso   1.000  H
  H15      1.0000 0.51650  0.03240  0.82820  Biso   1.000  H
  H16      1.0000 0.48350  0.53240  0.67180  Biso   1.000  H
  C25      1.0000 0.47830  0.04711  0.29090  Biso   1.000  C
  C26      1.0000 0.52170  0.54711  0.20910  Biso   1.000  C
  C27      1.0000 0.52170  0.95289  0.70910  Biso   1.000  C
  C28      1.0000 0.47830  0.45289  0.79090  Biso   1.000  C
  C29      1.0000 0.32300  0.04548  0.25640  Biso   1.000  C
  C30      1.0000 0.67700  0.54548  0.24360  Biso   1.000  C
  C31      1.0000 0.67700  0.95452  0.74360  Biso   1.000  C
  C32      1.0000 0.32300  0.45452  0.75640  Biso   1.000  C
  C33      1.0000 0.26370  0.01480  0.33370  Biso   1.000  C
  C34      1.0000 0.73630  0.51480  0.16630  Biso   1.000  C
  C35      1.0000 0.73630  0.98520  0.66630  Biso   1.000  C
  C36      1.0000 0.26370  0.48520  0.83370  Biso   1.000  C
  H17      1.0000 0.32180  0.99840  0.40860  Biso   1.000  H
  H18      1.0000 0.67820  0.49840  0.09140  Biso   1.000  H
  H19      1.0000 0.67820  0.00160  0.59140  Biso   1.000  H
  H20      1.0000 0.32180  0.50160  0.90860  Biso   1.000  H
  C37      1.0000 0.12070  0.00751  0.30390  Biso   1.000  C
  C38      1.0000 0.87930  0.50751  0.19610  Biso   1.000  C
  C39      1.0000 0.87930  0.99249  0.69610  Biso   1.000  C
  C40      1.0000 0.12070  0.49249  0.80390  Biso   1.000  C
  H21      1.0000 0.08180  0.98740  0.35860  Biso   1.000  H
  H22      1.0000 0.91820  0.48740  0.14140  Biso   1.000  H
  H23      1.0000 0.91820  0.01260  0.64140  Biso   1.000  H
  H24      1.0000 0.08180  0.51260  0.85860  Biso   1.000  H
  C41      1.0000 0.03580  0.02970  0.19410  Biso   1.000  C
  C42      1.0000 0.96420  0.52970  0.30590  Biso   1.000  C
  C43      1.0000 0.96420  0.97030  0.80590  Biso   1.000  C
  C44      1.0000 0.03580  0.47030  0.69410  Biso   1.000  C
  H25      1.0000 0.93820  0.02370  0.17220  Biso   1.000  H
  H26      1.0000 0.06180  0.52370  0.32780  Biso   1.000  H
  H27      1.0000 0.06180  0.97630  0.82780  Biso   1.000  H
  H28      1.0000 0.93820  0.47630  0.67220  Biso   1.000  H
  C45      1.0000 0.09350  0.06076  0.11590  Biso   1.000  C
  C46      1.0000 0.90650  0.56076  0.38410  Biso   1.000  C
  C47      1.0000 0.90650  0.93924  0.88410  Biso   1.000  C
  C48      1.0000 0.09350  0.43924  0.61590  Biso   1.000  C
  H29      1.0000 0.03490  0.07640  0.04080  Biso   1.000  H
  H30      1.0000 0.96510  0.57640  0.45920  Biso   1.000  H
  H31      1.0000 0.96510  0.92360  0.95920  Biso   1.000  H
  H32      1.0000 0.03490  0.42360  0.54080  Biso   1.000  H
  C49      1.0000 0.23730  0.06939  0.14660  Biso   1.000  C
  C50      1.0000 0.76270  0.56939  0.35340  Biso   1.000  C
  C51      1.0000 0.76270  0.93061  0.85340  Biso   1.000  C
  C52      1.0000 0.23730  0.43061  0.64660  Biso   1.000  C
  C53      1.0000 0.29080  0.11279  0.06280  Biso   1.000  C
  C54      1.0000 0.70920  0.61279  0.43720  Biso   1.000  C
  C55      1.0000 0.70920  0.88721  0.93720  Biso   1.000  C
  C56      1.0000 0.29080  0.38721  0.56280  Biso   1.000  C
  C57      1.0000 0.58840  0.30232  0.36610  Biso   1.000  C
  C58      1.0000 0.41160  0.80232  0.13390  Biso   1.000  C
  C59      1.0000 0.41160  0.69768  0.63390  Biso   1.000  C
  C60      1.0000 0.58840  0.19768  0.86610  Biso   1.000  C
  H33      1.0000 0.54490  0.26920  0.30300  Biso   1.000  H
  H34      1.0000 0.45510  0.76920  0.19700  Biso   1.000  H
  H35      1.0000 0.45510  0.73080  0.69700  Biso   1.000  H
  H36      1.0000 0.54490  0.23080  0.80300  Biso   1.000  H
  C61      1.0000 0.63690  0.36775  0.51970  Biso   1.000  C
  C62      1.0000 0.36310  0.86775  0.98030  Biso   1.000  C
  C63      1.0000 0.36310  0.63225  0.48030  Biso   1.000  C
  C64      1.0000 0.63690  0.13225  0.01970  Biso   1.000  C
  H37      1.0000 0.63050  0.38970  0.58930  Biso   1.000  H
  H38      1.0000 0.36950  0.88970  0.91070  Biso   1.000  H
  H39      1.0000 0.36950  0.61030  0.41070  Biso   1.000  H
  H40      1.0000 0.63050  0.11030  0.08930  Biso   1.000  H
  C65      1.0000 0.79170  0.33984  0.30500  Biso   1.000  C
  C66      1.0000 0.20830  0.83984  0.19500  Biso   1.000  C
  C67      1.0000 0.20830  0.66016  0.69500  Biso   1.000  C
  C68      1.0000 0.79170  0.16016  0.80500  Biso   1.000  C
  H41      1.0000 0.87490  0.37110  0.34180  Biso   1.000  H
  H42      1.0000 0.12510  0.87110  0.15820  Biso   1.000  H
  H43      1.0000 0.12510  0.62890  0.65820  Biso   1.000  H
  H44      1.0000 0.87490  0.12890  0.84180  Biso   1.000  H
  H45      1.0000 0.73890  0.36290  0.22890  Biso   1.000  H
  H46      1.0000 0.26110  0.86290  0.27110  Biso   1.000  H
  H47      1.0000 0.26110  0.63710  0.77110  Biso   1.000  H
  H48      1.0000 0.73890  0.13710  0.72890  Biso   1.000  H
  C69      1.0000 0.83630  0.26149  0.28460  Biso   1.000  C
  C70      1.0000 0.16370  0.76149  0.21540  Biso   1.000  C
  C71      1.0000 0.16370  0.73851  0.71540  Biso   1.000  C
  C72      1.0000 0.83630  0.23851  0.78460  Biso   1.000  C
  H49      1.0000 0.75380  0.22850  0.25690  Biso   1.000  H
  H50      1.0000 0.24620  0.72850  0.24310  Biso   1.000  H
  H51      1.0000 0.24620  0.77150  0.74310  Biso   1.000  H
  H52      1.0000 0.75380  0.27150  0.75690  Biso   1.000  H
  H53      1.0000 0.89880  0.24080  0.35940  Biso   1.000  H
  H54      1.0000 0.10120  0.74080  0.14060  Biso   1.000  H
  H55      1.0000 0.10120  0.75920  0.64060  Biso   1.000  H
  H56      1.0000 0.89880  0.25920  0.85940  Biso   1.000  H
  C73      1.0000 0.91150  0.26144  0.19370  Biso   1.000  C
  C74      1.0000 0.08850  0.76144  0.30630  Biso   1.000  C
  C75      1.0000 0.08850  0.73856  0.80630  Biso   1.000  C
  C76      1.0000 0.91150  0.23856  0.69370  Biso   1.000  C
  H57      1.0000 0.93720  0.20920  0.18120  Biso   1.000  H
  H58      1.0000 0.06280  0.70920  0.31880  Biso   1.000  H
  H59      1.0000 0.06280  0.79080  0.81880  Biso   1.000  H
  H60      1.0000 0.93720  0.29080  0.68120  Biso   1.000  H
  H61      1.0000 0.84810  0.28070  0.11820  Biso   1.000  H
  H62      1.0000 0.15190  0.78070  0.38180  Biso   1.000  H
  H63      1.0000 0.15190  0.71930  0.88180  Biso   1.000  H
  H64      1.0000 0.84810  0.21930  0.61820  Biso   1.000  H
  C77      1.0000 0.04150  0.30994  0.23330  Biso   1.000  C
  C78      1.0000 0.95850  0.80994  0.26670  Biso   1.000  C
  C79      1.0000 0.95850  0.69006  0.76670  Biso   1.000  C
  C80      1.0000 0.04150  0.19006  0.73330  Biso   1.000  C
  H65      1.0000 0.01570  0.36210  0.24580  Biso   1.000  H
  H66      1.0000 0.98430  0.86210  0.25420  Biso   1.000  H
  H67      1.0000 0.98430  0.63790  0.75420  Biso   1.000  H
  H68      1.0000 0.01570  0.13790  0.74580  Biso   1.000  H
  H69      1.0000 0.10470  0.29070  0.30890  Biso   1.000  H
  H70      1.0000 0.89530  0.79070  0.19110  Biso   1.000  H
  H71      1.0000 0.89530  0.70930  0.69110  Biso   1.000  H
  H72      1.0000 0.10470  0.20930  0.80890  Biso   1.000  H
  C81      1.0000 0.22100  0.26860  0.14690  Biso   1.000  C
  C82      1.0000 0.77900  0.76860  0.35310  Biso   1.000  C
  C83      1.0000 0.77900  0.73140  0.85310  Biso   1.000  C
  C84      1.0000 0.22100  0.23140  0.64690  Biso   1.000  C
  H73      1.0000 0.26730  0.23300  0.20530  Biso   1.000  H
  H74      1.0000 0.73270  0.73300  0.29470  Biso   1.000  H
  H75      1.0000 0.73270  0.76700  0.79470  Biso   1.000  H
  H76      1.0000 0.26730  0.26700  0.70530  Biso   1.000  H
  C85      1.0000 0.16060  0.33783  0.99740  Biso   1.000  C
  C86      1.0000 0.83940  0.83783  0.50260  Biso   1.000  C
  C87      1.0000 0.83940  0.66217  0.00260  Biso   1.000  C
  C88      1.0000 0.16060  0.16217  0.49740  Biso   1.000  C
  H77      1.0000 0.15910  0.36080  0.92620  Biso   1.000  H
  H78      1.0000 0.84090  0.86080  0.57380  Biso   1.000  H
  H79      1.0000 0.84090  0.63920  0.07380  Biso   1.000  H
  H80      1.0000 0.15910  0.13920  0.42620  Biso   1.000  H
  Cu1      1.0000 0.39673  0.26673  0.50053  Biso   1.000  Cu
  Cu2      1.0000 0.60327  0.76673  0.99947  Biso   1.000  Cu
  Cu3      1.0000 0.60327  0.73327  0.49947  Biso   1.000  Cu
  Cu4      1.0000 0.39673  0.23327  0.00053  Biso   1.000  Cu
  N1       1.0000 0.54090  0.31866  0.45280  Biso   1.000  N
  N2       1.0000 0.45910  0.81866  0.04720  Biso   1.000  N
  N3       1.0000 0.45910  0.68134  0.54720  Biso   1.000  N
  N4       1.0000 0.54090  0.18134  0.95280  Biso   1.000  N
  N5       1.0000 0.70510  0.33906  0.38080  Biso   1.000  N
  N6       1.0000 0.29490  0.83906  0.11920  Biso   1.000  N
  N7       1.0000 0.29490  0.66094  0.61920  Biso   1.000  N
  N8       1.0000 0.70510  0.16094  0.88080  Biso   1.000  N
  N9       1.0000 0.73940  0.38230  0.47980  Biso   1.000  N
  N10      1.0000 0.26060  0.88230  0.02020  Biso   1.000  N
  N11      1.0000 0.26060  0.61770  0.52020  Biso   1.000  N
  N12      1.0000 0.73940  0.11770  0.97980  Biso   1.000  N
  N13      1.0000 0.11400  0.31018  0.14750  Biso   1.000  N
  N14      1.0000 0.88600  0.81018  0.35250  Biso   1.000  N
  N15      1.0000 0.88600  0.68982  0.85250  Biso   1.000  N
  N16      1.0000 0.11400  0.18982  0.64750  Biso   1.000  N
  N17      1.0000 0.07160  0.35541  0.05150  Biso   1.000  N
  N18      1.0000 0.92840  0.85541  0.44850  Biso   1.000  N
  N19      1.0000 0.92840  0.64459  0.94850  Biso   1.000  N
  N20      1.0000 0.07160  0.14459  0.55150  Biso   1.000  N
  N21      1.0000 0.25400  0.28441  0.05180  Biso   1.000  N
  N22      1.0000 0.74600  0.78441  0.44820  Biso   1.000  N
  N23      1.0000 0.74600  0.71559  0.94820  Biso   1.000  N
  N24      1.0000 0.25400  0.21559  0.55180  Biso   1.000  N
  O1       1.0000 0.39483  0.18480  0.38959  Biso   1.000  O
  O2       1.0000 0.60517  0.68480  0.11041  Biso   1.000  O
  O3       1.0000 0.60517  0.81520  0.61041  Biso   1.000  O
  O4       1.0000 0.39483  0.31520  0.88959  Biso   1.000  O
  O5       1.0000 0.56900  0.16066  0.55194  Biso   1.000  O
  O6       1.0000 0.43100  0.66066  0.94806  Biso   1.000  O
  O7       1.0000 0.43100  0.83934  0.44806  Biso   1.000  O
  O8       1.0000 0.56900  0.33934  0.05194  Biso   1.000  O
  O9       1.0000 0.39851  0.15300  0.11015  Biso   1.000  O
  O10      1.0000 0.60149  0.65300  0.38985  Biso   1.000  O
  O11      1.0000 0.60149  0.84700  0.88985  Biso   1.000  O
  O12      1.0000 0.39851  0.34700  0.61015  Biso   1.000  O
  O13      1.0000 0.22380  0.11253  0.95591  Biso   1.000  O
  O14      1.0000 0.77620  0.61253  0.54409  Biso   1.000  O
  O15      1.0000 0.77620  0.88747  0.04409  Biso   1.000  O
  O16      1.0000 0.22380  0.38747  0.45591  Biso   1.000  O
