data_image0
_cell_length_a       12.8237
_cell_length_b       16.5024
_cell_length_c       21.5806
_cell_angle_alpha    90
_cell_angle_beta     90.141
_cell_angle_gamma    90

_symmetry_space_group_name_H-M    "P 1"
_symmetry_int_tables_number       1

loop_
  _symmetry_equiv_pos_as_xyz
  'x, y, z'

loop_
  _atom_site_label
  _atom_site_occupancy
  _atom_site_fract_x
  _atom_site_fract_y
  _atom_site_fract_z
  _atom_site_thermal_displace_type
  _atom_site_B_iso_or_equiv
  _atom_site_type_symbol
  C1       1.0000 0.98180  0.76700  0.25810  Biso   1.000  C
  C2       1.0000 0.51820  0.26700  0.24190  Biso   1.000  C
  C3       1.0000 0.01820  0.23300  0.74190  Biso   1.000  C
  C4       1.0000 0.48180  0.73300  0.75810  Biso   1.000  C
  H1       1.0000 0.95880  0.76750  0.30190  Biso   1.000  H
  H2       1.0000 0.54120  0.26750  0.19810  Biso   1.000  H
  H3       1.0000 0.04120  0.23250  0.69810  Biso   1.000  H
  H4       1.0000 0.45880  0.73250  0.80190  Biso   1.000  H
  H5       1.0000 0.94700  0.81230  0.23610  Biso   1.000  H
  H6       1.0000 0.55300  0.31230  0.26390  Biso   1.000  H
  H7       1.0000 0.05300  0.18770  0.76390  Biso   1.000  H
  H8       1.0000 0.44700  0.68770  0.73610  Biso   1.000  H
  C5       1.0000 0.95420  0.68880  0.22864  Biso   1.000  C
  C6       1.0000 0.54580  0.18880  0.27136  Biso   1.000  C
  C7       1.0000 0.04580  0.31120  0.77136  Biso   1.000  C
  C8       1.0000 0.45420  0.81120  0.72864  Biso   1.000  C
  H9       1.0000 0.87950  0.67660  0.23550  Biso   1.000  H
  H10      1.0000 0.62050  0.17660  0.26450  Biso   1.000  H
  H11      1.0000 0.12050  0.32340  0.76450  Biso   1.000  H
  H12      1.0000 0.37950  0.82340  0.73550  Biso   1.000  H
  H13      1.0000 0.96660  0.69160  0.18340  Biso   1.000  H
  H14      1.0000 0.53340  0.19160  0.31660  Biso   1.000  H
  H15      1.0000 0.03340  0.30840  0.81660  Biso   1.000  H
  H16      1.0000 0.46660  0.80840  0.68340  Biso   1.000  H
  C9       1.0000 0.02210  0.54640  0.22560  Biso   1.000  C
  C10      1.0000 0.47790  0.04640  0.27440  Biso   1.000  C
  C11      1.0000 0.97790  0.45360  0.77440  Biso   1.000  C
  C12      1.0000 0.52210  0.95360  0.72560  Biso   1.000  C
  H17      1.0000 0.03360  0.55330  0.18060  Biso   1.000  H
  H18      1.0000 0.46640  0.05330  0.31940  Biso   1.000  H
  H19      1.0000 0.96640  0.44670  0.81940  Biso   1.000  H
  H20      1.0000 0.53360  0.94670  0.68060  Biso   1.000  H
  H21      1.0000 0.95530  0.51750  0.23170  Biso   1.000  H
  H22      1.0000 0.54470  0.01750  0.26830  Biso   1.000  H
  H23      1.0000 0.04470  0.48250  0.76830  Biso   1.000  H
  H24      1.0000 0.45530  0.98250  0.73170  Biso   1.000  H
  C13      1.0000 0.10860  0.50000  0.25340  Biso   1.000  C
  C14      1.0000 0.39140  0.00000  0.24660  Biso   1.000  C
  C15      1.0000 0.89140  0.50000  0.74660  Biso   1.000  C
  C16      1.0000 0.60860  0.00000  0.75340  Biso   1.000  C
  H25      1.0000 0.11950  0.44900  0.23020  Biso   1.000  H
  H26      1.0000 0.38050  0.94900  0.26980  Biso   1.000  H
  H27      1.0000 0.88050  0.55100  0.76980  Biso   1.000  H
  H28      1.0000 0.61950  0.05100  0.73020  Biso   1.000  H
  H29      1.0000 0.09190  0.48620  0.29690  Biso   1.000  H
  H30      1.0000 0.40810  0.98620  0.20310  Biso   1.000  H
  H31      1.0000 0.90810  0.51380  0.70310  Biso   1.000  H
  H32      1.0000 0.59190  0.01380  0.79690  Biso   1.000  H
  C17      1.0000 0.39550  0.66130  0.25729  Biso   1.000  C
  C18      1.0000 0.10450  0.16130  0.24271  Biso   1.000  C
  C19      1.0000 0.60450  0.33870  0.74271  Biso   1.000  C
  C20      1.0000 0.89550  0.83870  0.75729  Biso   1.000  C
  H33      1.0000 0.39390  0.60510  0.26700  Biso   1.000  H
  H34      1.0000 0.10610  0.10510  0.23300  Biso   1.000  H
  H35      1.0000 0.60610  0.39490  0.73300  Biso   1.000  H
  H36      1.0000 0.89390  0.89490  0.76700  Biso   1.000  H
  C21      1.0000 0.34620  0.78220  0.23989  Biso   1.000  C
  C22      1.0000 0.15380  0.28220  0.26011  Biso   1.000  C
  C23      1.0000 0.65380  0.21780  0.76011  Biso   1.000  C
  C24      1.0000 0.84620  0.71780  0.73989  Biso   1.000  C
  H37      1.0000 0.30470  0.82940  0.23430  Biso   1.000  H
  H38      1.0000 0.19530  0.32940  0.26570  Biso   1.000  H
  H39      1.0000 0.69530  0.17060  0.76570  Biso   1.000  H
  H40      1.0000 0.80470  0.67060  0.73430  Biso   1.000  H
  C25      1.0000 0.45140  0.77910  0.23453  Biso   1.000  C
  C26      1.0000 0.04860  0.27910  0.26547  Biso   1.000  C
  C27      1.0000 0.54860  0.22090  0.76547  Biso   1.000  C
  C28      1.0000 0.95140  0.72090  0.73453  Biso   1.000  C
  H41      1.0000 0.49590  0.82330  0.22490  Biso   1.000  H
  H42      1.0000 0.00410  0.32330  0.27510  Biso   1.000  H
  H43      1.0000 0.50410  0.17670  0.77510  Biso   1.000  H
  H44      1.0000 0.99590  0.67670  0.72490  Biso   1.000  H
  C29      1.0000 0.89650  0.88680  0.00290  Biso   1.000  C
  C30      1.0000 0.60350  0.38680  0.49710  Biso   1.000  C
  C31      1.0000 0.10350  0.11320  0.99710  Biso   1.000  C
  C32      1.0000 0.39650  0.61320  0.50290  Biso   1.000  C
  H45      1.0000 0.83930  0.90960  0.97740  Biso   1.000  H
  H46      1.0000 0.66070  0.40960  0.52260  Biso   1.000  H
  H47      1.0000 0.16070  0.09040  0.02260  Biso   1.000  H
  H48      1.0000 0.33930  0.59040  0.47740  Biso   1.000  H
  H49      1.0000 0.93030  0.93160  0.02580  Biso   1.000  H
  H50      1.0000 0.56970  0.43160  0.47420  Biso   1.000  H
  H51      1.0000 0.06970  0.06840  0.97420  Biso   1.000  H
  H52      1.0000 0.43030  0.56840  0.52580  Biso   1.000  H
  C33      1.0000 0.97370  0.84530  0.96270  Biso   1.000  C
  C34      1.0000 0.52630  0.34530  0.53730  Biso   1.000  C
  C35      1.0000 0.02630  0.15470  0.03730  Biso   1.000  C
  C36      1.0000 0.47370  0.65470  0.46270  Biso   1.000  C
  H53      1.0000 0.99700  0.88200  0.92920  Biso   1.000  H
  H54      1.0000 0.50300  0.38200  0.57080  Biso   1.000  H
  H55      1.0000 0.00300  0.11800  0.07080  Biso   1.000  H
  H56      1.0000 0.49700  0.61800  0.42920  Biso   1.000  H
  H57      1.0000 0.03530  0.82870  0.98730  Biso   1.000  H
  H58      1.0000 0.46470  0.32870  0.51270  Biso   1.000  H
  H59      1.0000 0.96470  0.17130  0.01270  Biso   1.000  H
  H60      1.0000 0.53530  0.67130  0.48730  Biso   1.000  H
  C37      1.0000 0.98740  0.71520  0.90440  Biso   1.000  C
  C38      1.0000 0.51260  0.21520  0.59560  Biso   1.000  C
  C39      1.0000 0.01260  0.28480  0.09560  Biso   1.000  C
  C40      1.0000 0.48740  0.78480  0.40440  Biso   1.000  C
  H61      1.0000 0.04940  0.70210  0.92990  Biso   1.000  H
  H62      1.0000 0.45060  0.20210  0.57010  Biso   1.000  H
  H63      1.0000 0.95060  0.29790  0.07010  Biso   1.000  H
  H64      1.0000 0.54940  0.79790  0.42990  Biso   1.000  H
  H65      1.0000 0.01140  0.73780  0.86440  Biso   1.000  H
  H66      1.0000 0.48860  0.23780  0.63560  Biso   1.000  H
  H67      1.0000 0.98860  0.26220  0.13560  Biso   1.000  H
  H68      1.0000 0.51140  0.76220  0.36440  Biso   1.000  H
  C41      1.0000 0.92210  0.63930  0.89350  Biso   1.000  C
  C42      1.0000 0.57790  0.13930  0.60650  Biso   1.000  C
  C43      1.0000 0.07790  0.36070  0.10650  Biso   1.000  C
  C44      1.0000 0.42210  0.86070  0.39350  Biso   1.000  C
  H69      1.0000 0.86850  0.64990  0.86150  Biso   1.000  H
  H70      1.0000 0.63150  0.14990  0.63850  Biso   1.000  H
  H71      1.0000 0.13150  0.35010  0.13850  Biso   1.000  H
  H72      1.0000 0.36850  0.85010  0.36150  Biso   1.000  H
  H73      1.0000 0.96710  0.59450  0.87900  Biso   1.000  H
  H74      1.0000 0.53290  0.09450  0.62100  Biso   1.000  H
  H75      1.0000 0.03290  0.40550  0.12100  Biso   1.000  H
  H76      1.0000 0.46710  0.90550  0.37900  Biso   1.000  H
  Cu1      1.0000 0.84764  0.71665  0.00550  Biso   1.000  Cu
  Cu2      1.0000 0.65236  0.21665  0.49450  Biso   1.000  Cu
  Cu3      1.0000 0.15236  0.28335  0.99450  Biso   1.000  Cu
  Cu4      1.0000 0.34764  0.78335  0.50550  Biso   1.000  Cu
  Zn1      1.0000 0.62164  0.64873  0.24244  Biso   1.000  Zn
  Zn2      1.0000 0.87836  0.14873  0.25756  Biso   1.000  Zn
  Zn3      1.0000 0.37836  0.35127  0.75756  Biso   1.000  Zn
  Zn4      1.0000 0.12164  0.85127  0.74244  Biso   1.000  Zn
  N1       1.0000 0.77690  0.65940  0.07265  Biso   1.000  N
  N2       1.0000 0.72310  0.15940  0.42735  Biso   1.000  N
  N3       1.0000 0.22310  0.34060  0.92735  Biso   1.000  N
  N4       1.0000 0.27690  0.84060  0.57265  Biso   1.000  N
  C45      1.0000 0.73100  0.69020  0.12243  Biso   1.000  C
  C46      1.0000 0.76900  0.19020  0.37757  Biso   1.000  C
  C47      1.0000 0.26900  0.30980  0.87757  Biso   1.000  C
  C48      1.0000 0.23100  0.80980  0.62243  Biso   1.000  C
  H77      1.0000 0.72640  0.74690  0.12950  Biso   1.000  H
  H78      1.0000 0.77360  0.24690  0.37050  Biso   1.000  H
  H79      1.0000 0.27360  0.25310  0.87050  Biso   1.000  H
  H80      1.0000 0.22640  0.75310  0.62950  Biso   1.000  H
  N5       1.0000 0.69210  0.63600  0.16161  Biso   1.000  N
  N6       1.0000 0.80790  0.13600  0.33839  Biso   1.000  N
  N7       1.0000 0.30790  0.36400  0.83839  Biso   1.000  N
  N8       1.0000 0.19210  0.86400  0.66161  Biso   1.000  N
  C49      1.0000 0.69950  0.56330  0.12880  Biso   1.000  C
  C50      1.0000 0.80050  0.06330  0.37120  Biso   1.000  C
  C51      1.0000 0.30050  0.43670  0.87120  Biso   1.000  C
  C52      1.0000 0.19950  0.93670  0.62880  Biso   1.000  C
  H81      1.0000 0.67380  0.51220  0.14210  Biso   1.000  H
  H82      1.0000 0.82620  0.01220  0.35790  Biso   1.000  H
  H83      1.0000 0.32620  0.48780  0.85790  Biso   1.000  H
  H84      1.0000 0.17380  0.98780  0.64210  Biso   1.000  H
  C53      1.0000 0.75030  0.57820  0.07400  Biso   1.000  C
  C54      1.0000 0.74970  0.07820  0.42600  Biso   1.000  C
  C55      1.0000 0.24970  0.42180  0.92600  Biso   1.000  C
  C56      1.0000 0.25030  0.92180  0.57400  Biso   1.000  C
  H85      1.0000 0.76460  0.53960  0.04250  Biso   1.000  H
  H86      1.0000 0.73540  0.03960  0.45750  Biso   1.000  H
  H87      1.0000 0.23540  0.46040  0.95750  Biso   1.000  H
  H88      1.0000 0.26460  0.96040  0.54250  Biso   1.000  H
  C57      1.0000 0.98520  0.85550  0.53046  Biso   1.000  C
  C58      1.0000 0.51480  0.35550  0.96954  Biso   1.000  C
  C59      1.0000 0.01480  0.14450  0.46954  Biso   1.000  C
  C60      1.0000 0.48520  0.64450  0.03046  Biso   1.000  C
  H89      1.0000 0.98530  0.91140  0.54720  Biso   1.000  H
  H90      1.0000 0.51470  0.41140  0.95280  Biso   1.000  H
  H91      1.0000 0.01470  0.08860  0.45280  Biso   1.000  H
  H92      1.0000 0.48530  0.58860  0.04720  Biso   1.000  H
  H93      1.0000 0.05670  0.84240  0.51630  Biso   1.000  H
  H94      1.0000 0.44330  0.34240  0.98370  Biso   1.000  H
  H95      1.0000 0.94330  0.15760  0.48370  Biso   1.000  H
  H96      1.0000 0.55670  0.65760  0.01630  Biso   1.000  H
  C61      1.0000 0.95160  0.79710  0.57906  Biso   1.000  C
  C62      1.0000 0.54840  0.29710  0.92094  Biso   1.000  C
  C63      1.0000 0.04840  0.20290  0.42094  Biso   1.000  C
  C64      1.0000 0.45160  0.70290  0.07906  Biso   1.000  C
  H97      1.0000 0.00260  0.79610  0.61360  Biso   1.000  H
  H98      1.0000 0.49740  0.29610  0.88640  Biso   1.000  H
  H99      1.0000 0.99740  0.20390  0.38640  Biso   1.000  H
  H100     1.0000 0.50260  0.70390  0.11360  Biso   1.000  H
  H101     1.0000 0.88260  0.81260  0.59580  Biso   1.000  H
  H102     1.0000 0.61740  0.31260  0.90420  Biso   1.000  H
  H103     1.0000 0.11740  0.18740  0.40420  Biso   1.000  H
  H104     1.0000 0.38260  0.68740  0.09580  Biso   1.000  H
  C65      1.0000 0.89660  0.65050  0.58302  Biso   1.000  C
  C66      1.0000 0.60340  0.15050  0.91698  Biso   1.000  C
  C67      1.0000 0.10340  0.34950  0.41698  Biso   1.000  C
  C68      1.0000 0.39660  0.84950  0.08302  Biso   1.000  C
  H105     1.0000 0.82870  0.66810  0.60010  Biso   1.000  H
  H106     1.0000 0.67130  0.16810  0.89990  Biso   1.000  H
  H107     1.0000 0.17130  0.33190  0.39990  Biso   1.000  H
  H108     1.0000 0.32870  0.83190  0.10010  Biso   1.000  H
  H109     1.0000 0.94180  0.63280  0.61780  Biso   1.000  H
  H110     1.0000 0.55820  0.13280  0.88220  Biso   1.000  H
  H111     1.0000 0.05820  0.36720  0.38220  Biso   1.000  H
  H112     1.0000 0.44180  0.86720  0.11780  Biso   1.000  H
  C69      1.0000 0.88100  0.58250  0.53832  Biso   1.000  C
  C70      1.0000 0.61900  0.08250  0.96168  Biso   1.000  C
  C71      1.0000 0.11900  0.41750  0.46168  Biso   1.000  C
  C72      1.0000 0.38100  0.91750  0.03832  Biso   1.000  C
  H113     1.0000 0.94930  0.56060  0.52500  Biso   1.000  H
  H114     1.0000 0.55070  0.06060  0.97500  Biso   1.000  H
  H115     1.0000 0.05070  0.43940  0.47500  Biso   1.000  H
  H116     1.0000 0.44930  0.93940  0.02500  Biso   1.000  H
  H117     1.0000 0.84090  0.53830  0.55810  Biso   1.000  H
  H118     1.0000 0.65910  0.03830  0.94190  Biso   1.000  H
  H119     1.0000 0.15910  0.46170  0.44190  Biso   1.000  H
  H120     1.0000 0.34090  0.96170  0.05810  Biso   1.000  H
  C73      1.0000 0.74950  0.68470  0.35619  Biso   1.000  C
  C74      1.0000 0.75050  0.18470  0.14381  Biso   1.000  C
  C75      1.0000 0.25050  0.31530  0.64381  Biso   1.000  C
  C76      1.0000 0.24950  0.81530  0.85619  Biso   1.000  C
  H121     1.0000 0.75320  0.62900  0.36720  Biso   1.000  H
  H122     1.0000 0.74680  0.12900  0.13280  Biso   1.000  H
  H123     1.0000 0.24680  0.37100  0.63280  Biso   1.000  H
  H124     1.0000 0.25320  0.87100  0.86720  Biso   1.000  H
  C77      1.0000 0.76710  0.81350  0.35978  Biso   1.000  C
  C78      1.0000 0.73290  0.31350  0.14022  Biso   1.000  C
  C79      1.0000 0.23290  0.18650  0.64022  Biso   1.000  C
  C80      1.0000 0.26710  0.68650  0.85978  Biso   1.000  C
  H125     1.0000 0.78510  0.86670  0.37260  Biso   1.000  H
  H126     1.0000 0.71490  0.36670  0.12740  Biso   1.000  H
  H127     1.0000 0.21490  0.13330  0.62740  Biso   1.000  H
  H128     1.0000 0.28510  0.63330  0.87260  Biso   1.000  H
  C81      1.0000 0.71570  0.79440  0.30615  Biso   1.000  C
  C82      1.0000 0.78430  0.29440  0.19385  Biso   1.000  C
  C83      1.0000 0.28430  0.20560  0.69385  Biso   1.000  C
  C84      1.0000 0.21570  0.70560  0.80615  Biso   1.000  C
  H129     1.0000 0.69150  0.83180  0.27590  Biso   1.000  H
  H130     1.0000 0.80850  0.33180  0.22410  Biso   1.000  H
  H131     1.0000 0.30850  0.16820  0.72410  Biso   1.000  H
  H132     1.0000 0.19150  0.66820  0.77590  Biso   1.000  H
  N9       1.0000 0.09680  0.77629  0.25469  Biso   1.000  N
  N10      1.0000 0.40320  0.27629  0.24531  Biso   1.000  N
  N11      1.0000 0.90320  0.22371  0.74531  Biso   1.000  N
  N12      1.0000 0.59680  0.72371  0.75469  Biso   1.000  N
  H133     1.0000 0.11960  0.80820  0.28690  Biso   1.000  H
  H134     1.0000 0.38040  0.30820  0.21310  Biso   1.000  H
  H135     1.0000 0.88040  0.19180  0.71310  Biso   1.000  H
  H136     1.0000 0.61960  0.69180  0.78690  Biso   1.000  H
  H137     1.0000 0.11450  0.80140  0.21810  Biso   1.000  H
  H138     1.0000 0.38550  0.30140  0.28190  Biso   1.000  H
  H139     1.0000 0.88550  0.19860  0.78190  Biso   1.000  H
  H140     1.0000 0.61450  0.69860  0.71810  Biso   1.000  H
  N13      1.0000 0.01910  0.62570  0.25638  Biso   1.000  N
  N14      1.0000 0.48090  0.12570  0.24362  Biso   1.000  N
  N15      1.0000 0.98090  0.37430  0.74362  Biso   1.000  N
  N16      1.0000 0.51910  0.87430  0.75638  Biso   1.000  N
  H141     1.0000 0.99500  0.61100  0.29280  Biso   1.000  H
  H142     1.0000 0.50500  0.11100  0.20720  Biso   1.000  H
  H143     1.0000 0.00500  0.38900  0.70720  Biso   1.000  H
  H144     1.0000 0.49500  0.88900  0.79280  Biso   1.000  H
  N17      1.0000 0.20370  0.55005  0.25116  Biso   1.000  N
  N18      1.0000 0.29630  0.05005  0.24884  Biso   1.000  N
  N19      1.0000 0.79630  0.44995  0.74884  Biso   1.000  N
  N20      1.0000 0.70370  0.94995  0.75116  Biso   1.000  N
  H145     1.0000 0.23770  0.54150  0.21420  Biso   1.000  H
  H146     1.0000 0.26230  0.04150  0.28580  Biso   1.000  H
  H147     1.0000 0.76230  0.45850  0.78580  Biso   1.000  H
  H148     1.0000 0.73770  0.95850  0.71420  Biso   1.000  H
  H149     1.0000 0.24800  0.53540  0.28290  Biso   1.000  H
  H150     1.0000 0.25200  0.03540  0.21710  Biso   1.000  H
  H151     1.0000 0.75200  0.46460  0.71710  Biso   1.000  H
  H152     1.0000 0.74800  0.96460  0.78290  Biso   1.000  H
  N21      1.0000 0.30920  0.70715  0.25451  Biso   1.000  N
  N22      1.0000 0.19080  0.20715  0.24549  Biso   1.000  N
  N23      1.0000 0.69080  0.29285  0.74549  Biso   1.000  N
  N24      1.0000 0.80920  0.79285  0.75451  Biso   1.000  N
  N25      1.0000 0.48250  0.70063  0.24546  Biso   1.000  N
  N26      1.0000 0.01750  0.20063  0.25454  Biso   1.000  N
  N27      1.0000 0.51750  0.29937  0.75454  Biso   1.000  N
  N28      1.0000 0.98250  0.79937  0.74546  Biso   1.000  N
  N29      1.0000 0.85470  0.82540  0.04701  Biso   1.000  N
  N30      1.0000 0.64530  0.32540  0.45299  Biso   1.000  N
  N31      1.0000 0.14530  0.17460  0.95299  Biso   1.000  N
  N32      1.0000 0.35470  0.67460  0.54701  Biso   1.000  N
  H153     1.0000 0.78920  0.84060  0.05980  Biso   1.000  H
  H154     1.0000 0.71080  0.34060  0.44020  Biso   1.000  H
  H155     1.0000 0.21080  0.15940  0.94020  Biso   1.000  H
  H156     1.0000 0.28920  0.65940  0.55980  Biso   1.000  H
  H157     1.0000 0.89720  0.82240  0.08130  Biso   1.000  H
  H158     1.0000 0.60280  0.32240  0.41870  Biso   1.000  H
  H159     1.0000 0.10280  0.17760  0.91870  Biso   1.000  H
  H160     1.0000 0.39720  0.67760  0.58130  Biso   1.000  H
  N33      1.0000 0.92160  0.77410  0.93655  Biso   1.000  N
  N34      1.0000 0.57840  0.27410  0.56345  Biso   1.000  N
  N35      1.0000 0.07840  0.22590  0.06345  Biso   1.000  N
  N36      1.0000 0.42160  0.72590  0.43655  Biso   1.000  N
  H161     1.0000 0.88200  0.79100  0.90630  Biso   1.000  H
  H162     1.0000 0.61800  0.29100  0.59370  Biso   1.000  H
  H163     1.0000 0.11800  0.20900  0.09370  Biso   1.000  H
  H164     1.0000 0.38200  0.70900  0.40630  Biso   1.000  H
  N37      1.0000 0.87110  0.61670  0.95336  Biso   1.000  N
  N38      1.0000 0.62890  0.11670  0.54664  Biso   1.000  N
  N39      1.0000 0.12890  0.38330  0.04664  Biso   1.000  N
  N40      1.0000 0.37110  0.88330  0.45336  Biso   1.000  N
  H165     1.0000 0.91280  0.58070  0.97460  Biso   1.000  H
  H166     1.0000 0.58720  0.08070  0.52540  Biso   1.000  H
  H167     1.0000 0.08720  0.41930  0.02540  Biso   1.000  H
  H168     1.0000 0.41280  0.91930  0.47460  Biso   1.000  H
  H169     1.0000 0.80830  0.59180  0.94550  Biso   1.000  H
  H170     1.0000 0.69170  0.09180  0.55450  Biso   1.000  H
  H171     1.0000 0.19170  0.40820  0.05450  Biso   1.000  H
  H172     1.0000 0.30830  0.90820  0.44550  Biso   1.000  H
  N41      1.0000 0.91020  0.84898  0.47792  Biso   1.000  N
  N42      1.0000 0.58980  0.34898  0.02208  Biso   1.000  N
  N43      1.0000 0.08980  0.15102  0.52208  Biso   1.000  N
  N44      1.0000 0.41020  0.65102  0.97792  Biso   1.000  N
  H173     1.0000 0.94110  0.86660  0.44190  Biso   1.000  H
  H174     1.0000 0.55890  0.36660  0.05810  Biso   1.000  H
  H175     1.0000 0.05890  0.13340  0.55810  Biso   1.000  H
  H176     1.0000 0.44110  0.63340  0.94190  Biso   1.000  H
  H177     1.0000 0.85270  0.88080  0.48540  Biso   1.000  H
  H178     1.0000 0.64730  0.38080  0.01460  Biso   1.000  H
  H179     1.0000 0.14730  0.11920  0.51460  Biso   1.000  H
  H180     1.0000 0.35270  0.61920  0.98540  Biso   1.000  H
  N45      1.0000 0.94590  0.71720  0.54906  Biso   1.000  N
  N46      1.0000 0.55410  0.21720  0.95094  Biso   1.000  N
  N47      1.0000 0.05410  0.28280  0.45094  Biso   1.000  N
  N48      1.0000 0.44590  0.78280  0.04906  Biso   1.000  N
  H181     1.0000 0.01080  0.70100  0.54350  Biso   1.000  H
  H182     1.0000 0.48920  0.20100  0.95650  Biso   1.000  H
  H183     1.0000 0.98920  0.29900  0.45650  Biso   1.000  H
  H184     1.0000 0.51080  0.79900  0.04350  Biso   1.000  H
  N49      1.0000 0.82360  0.61430  0.48461  Biso   1.000  N
  N50      1.0000 0.67640  0.11430  0.01539  Biso   1.000  N
  N51      1.0000 0.17640  0.38570  0.51539  Biso   1.000  N
  N52      1.0000 0.32360  0.88570  0.98461  Biso   1.000  N
  H185     1.0000 0.75300  0.61180  0.49200  Biso   1.000  H
  H186     1.0000 0.74700  0.11180  0.00800  Biso   1.000  H
  H187     1.0000 0.24700  0.38820  0.50800  Biso   1.000  H
  H188     1.0000 0.25300  0.88820  0.99200  Biso   1.000  H
  H189     1.0000 0.83790  0.58340  0.45020  Biso   1.000  H
  H190     1.0000 0.66210  0.08340  0.04980  Biso   1.000  H
  H191     1.0000 0.16210  0.41660  0.54980  Biso   1.000  H
  H192     1.0000 0.33790  0.91660  0.95020  Biso   1.000  H
  N53      1.0000 0.78840  0.74420  0.39203  Biso   1.000  N
  N54      1.0000 0.71160  0.24420  0.10797  Biso   1.000  N
  N55      1.0000 0.21160  0.25580  0.60797  Biso   1.000  N
  N56      1.0000 0.28840  0.75580  0.89203  Biso   1.000  N
  N57      1.0000 0.70510  0.71100  0.30353  Biso   1.000  N
  N58      1.0000 0.79490  0.21100  0.19647  Biso   1.000  N
  N59      1.0000 0.29490  0.28900  0.69647  Biso   1.000  N
  N60      1.0000 0.20510  0.78900  0.80353  Biso   1.000  N
  O1       1.0000 0.59470  0.53030  0.26726  Biso   1.000  O
  O2       1.0000 0.90530  0.03030  0.23274  Biso   1.000  O
  O3       1.0000 0.40530  0.46970  0.73274  Biso   1.000  O
  O4       1.0000 0.09470  0.96970  0.76726  Biso   1.000  O
  H193     1.0000 0.56000  0.50600  0.23890  Biso   1.000  H
  H194     1.0000 0.94000  0.00600  0.26110  Biso   1.000  H
  H195     1.0000 0.44000  0.49400  0.76110  Biso   1.000  H
  H196     1.0000 0.06000  0.99400  0.73890  Biso   1.000  H
  H197     1.0000 0.64900  0.50400  0.27800  Biso   1.000  H
  H198     1.0000 0.85100  0.00400  0.22200  Biso   1.000  H
  H199     1.0000 0.35100  0.49600  0.72200  Biso   1.000  H
  H200     1.0000 0.14900  0.99600  0.77800  Biso   1.000  H
  Cl1      1.0000 0.13065  0.67799  0.42267  Biso   1.000  Cl
  Cl2      1.0000 0.36935  0.17799  0.07733  Biso   1.000  Cl
  Cl3      1.0000 0.86935  0.32201  0.57733  Biso   1.000  Cl
  Cl4      1.0000 0.63065  0.82201  0.92267  Biso   1.000  Cl
  O5       1.0000 0.18570  0.63100  0.37830  Biso   1.000  O
  O6       1.0000 0.31430  0.13100  0.12170  Biso   1.000  O
  O7       1.0000 0.81430  0.36900  0.62170  Biso   1.000  O
  O8       1.0000 0.68570  0.86900  0.87830  Biso   1.000  O
  O9       1.0000 0.13590  0.64000  0.48267  Biso   1.000  O
  O10      1.0000 0.36410  0.14000  0.01733  Biso   1.000  O
  O11      1.0000 0.86410  0.36000  0.51733  Biso   1.000  O
  O12      1.0000 0.63590  0.86000  0.98267  Biso   1.000  O
  O13      1.0000 0.17980  0.75470  0.42930  Biso   1.000  O
  O14      1.0000 0.32020  0.25470  0.07070  Biso   1.000  O
  O15      1.0000 0.82020  0.24530  0.57070  Biso   1.000  O
  O16      1.0000 0.67980  0.74530  0.92930  Biso   1.000  O
  O17      1.0000 0.02370  0.68440  0.40370  Biso   1.000  O
  O18      1.0000 0.47630  0.18440  0.09630  Biso   1.000  O
  O19      1.0000 0.97630  0.31560  0.59630  Biso   1.000  O
  O20      1.0000 0.52370  0.81560  0.90370  Biso   1.000  O
  Cu5      1.0000 0.16605  0.66748  0.25920  Biso   1.000  Cu
  Cu6      1.0000 0.33395  0.16748  0.24080  Biso   1.000  Cu
  Cu7      1.0000 0.83395  0.33252  0.74080  Biso   1.000  Cu
  Cu8      1.0000 0.66605  0.83252  0.75920  Biso   1.000  Cu
  Cu9      1.0000 0.86660  0.73140  0.46910  Biso   1.000  Cu
  Cu10     1.0000 0.63340  0.23140  0.03090  Biso   1.000  Cu
  Cu11     1.0000 0.13340  0.26860  0.53090  Biso   1.000  Cu
  Cu12     1.0000 0.36660  0.76860  0.96910  Biso   1.000  Cu
  Cl5      1.0000 0.12520  0.65240  0.06370  Biso   1.000  Cl
  Cl6      1.0000 0.37480  0.15240  0.43630  Biso   1.000  Cl
  Cl7      1.0000 0.87480  0.34760  0.93630  Biso   1.000  Cl
  Cl8      1.0000 0.62520  0.84760  0.56370  Biso   1.000  Cl
  O21      1.0000 0.02990  0.69850  0.06510  Biso   1.000  O
  O22      1.0000 0.47010  0.19850  0.43490  Biso   1.000  O
  O23      1.0000 0.97010  0.30150  0.93490  Biso   1.000  O
  O24      1.0000 0.52990  0.80150  0.56510  Biso   1.000  O
  O25      1.0000 0.08670  0.57670  0.04430  Biso   1.000  O
  O26      1.0000 0.41330  0.07670  0.45570  Biso   1.000  O
  O27      1.0000 0.91330  0.42330  0.95570  Biso   1.000  O
  O28      1.0000 0.58670  0.92330  0.54430  Biso   1.000  O
  O29      1.0000 0.19590  0.68460  0.02080  Biso   1.000  O
  O30      1.0000 0.30410  0.18460  0.47920  Biso   1.000  O
  O31      1.0000 0.80410  0.31540  0.97920  Biso   1.000  O
  O32      1.0000 0.69590  0.81540  0.52080  Biso   1.000  O
  O33      1.0000 0.17380  0.62530  0.11770  Biso   1.000  O
  O34      1.0000 0.32620  0.12530  0.38230  Biso   1.000  O
  O35      1.0000 0.82620  0.37470  0.88230  Biso   1.000  O
  O36      1.0000 0.67380  0.87470  0.61770  Biso   1.000  O
  O37      1.0000 0.48530  0.41150  0.14360  Biso   1.000  O
  O38      1.0000 0.01470  0.91150  0.35640  Biso   1.000  O
  O39      1.0000 0.51470  0.58850  0.85640  Biso   1.000  O
  O40      1.0000 0.98530  0.08850  0.64360  Biso   1.000  O
  O41      1.0000 0.36910  0.45860  0.06786  Biso   1.000  O
  O42      1.0000 0.13090  0.95860  0.43214  Biso   1.000  O
  O43      1.0000 0.63090  0.54140  0.93214  Biso   1.000  O
  O44      1.0000 0.86910  0.04140  0.56786  Biso   1.000  O
  O45      1.0000 0.30650  0.41530  0.16433  Biso   1.000  O
  O46      1.0000 0.19350  0.91530  0.33567  Biso   1.000  O
  O47      1.0000 0.69350  0.58470  0.83567  Biso   1.000  O
  O48      1.0000 0.80650  0.08470  0.66433  Biso   1.000  O
  O49      1.0000 0.40280  0.53523  0.15696  Biso   1.000  O
  O50      1.0000 0.09720  0.03523  0.34304  Biso   1.000  O
  O51      1.0000 0.59720  0.46477  0.84304  Biso   1.000  O
  O52      1.0000 0.90280  0.96477  0.65696  Biso   1.000  O
  Cl9      1.0000 0.39067  0.45534  0.13290  Biso   1.000  Cl
  Cl10     1.0000 0.10933  0.95534  0.36710  Biso   1.000  Cl
  Cl11     1.0000 0.60933  0.54466  0.86710  Biso   1.000  Cl
  Cl12     1.0000 0.89067  0.04466  0.63290  Biso   1.000  Cl
  O53      1.0000 0.19790  0.91380  0.16248  Biso   1.000  O
  O54      1.0000 0.30210  0.41380  0.33752  Biso   1.000  O
  O55      1.0000 0.80210  0.08620  0.83752  Biso   1.000  O
  O56      1.0000 0.69790  0.58620  0.66248  Biso   1.000  O
  O57      1.0000 0.13410  0.93147  0.06159  Biso   1.000  O
  O58      1.0000 0.36590  0.43147  0.43841  Biso   1.000  O
  O59      1.0000 0.86590  0.06853  0.93841  Biso   1.000  O
  O60      1.0000 0.63410  0.56853  0.56159  Biso   1.000  O
  O61      1.0000 0.02350  0.88260  0.14047  Biso   1.000  O
  O62      1.0000 0.47650  0.38260  0.35953  Biso   1.000  O
  O63      1.0000 0.97650  0.11740  0.85953  Biso   1.000  O
  O64      1.0000 0.52350  0.61740  0.64047  Biso   1.000  O
  O65      1.0000 0.08150  0.01640  0.14131  Biso   1.000  O
  O66      1.0000 0.41850  0.51640  0.35869  Biso   1.000  O
  O67      1.0000 0.91850  0.98360  0.85869  Biso   1.000  O
  O68      1.0000 0.58150  0.48360  0.64131  Biso   1.000  O
  Cl13     1.0000 0.10882  0.93516  0.12601  Biso   1.000  Cl
  Cl14     1.0000 0.39118  0.43516  0.37399  Biso   1.000  Cl
  Cl15     1.0000 0.89118  0.06484  0.87399  Biso   1.000  Cl
  Cl16     1.0000 0.60882  0.56484  0.62601  Biso   1.000  Cl
  O69      1.0000 0.64150  0.87285  0.13187  Biso   1.000  O
  O70      1.0000 0.85850  0.37285  0.36813  Biso   1.000  O
  O71      1.0000 0.35850  0.12715  0.86813  Biso   1.000  O
  O72      1.0000 0.14150  0.62715  0.63187  Biso   1.000  O
  O73      1.0000 0.75790  0.97924  0.11301  Biso   1.000  O
  O74      1.0000 0.74210  0.47924  0.38699  Biso   1.000  O
  O75      1.0000 0.24210  0.02076  0.88699  Biso   1.000  O
  O76      1.0000 0.25790  0.52076  0.61301  Biso   1.000  O
  O77      1.0000 0.68800  0.96110  0.21173  Biso   1.000  O
  O78      1.0000 0.81200  0.46110  0.28827  Biso   1.000  O
  O79      1.0000 0.31200  0.03890  0.78827  Biso   1.000  O
  O80      1.0000 0.18800  0.53890  0.71173  Biso   1.000  O
  O81      1.0000 0.58060  0.00615  0.13035  Biso   1.000  O
  O82      1.0000 0.91940  0.50615  0.36965  Biso   1.000  O
  O83      1.0000 0.41940  0.99385  0.86965  Biso   1.000  O
  O84      1.0000 0.08060  0.49385  0.63035  Biso   1.000  O
  Cl17     1.0000 0.66628  0.95469  0.14662  Biso   1.000  Cl
  Cl18     1.0000 0.83372  0.45469  0.35338  Biso   1.000  Cl
  Cl19     1.0000 0.33372  0.04531  0.85338  Biso   1.000  Cl
  Cl20     1.0000 0.16628  0.54531  0.64662  Biso   1.000  Cl
  C85      1.0000 0.74040  0.56410  0.14280  Biso   1.000  C
  C86      1.0000 0.75960  0.06410  0.35720  Biso   1.000  C
  C87      1.0000 0.25960  0.43590  0.85720  Biso   1.000  C
  C88      1.0000 0.24040  0.93590  0.64280  Biso   1.000  C
  H201     1.0000 0.73940  0.51420  0.16470  Biso   1.000  H
  H202     1.0000 0.76060  0.01420  0.33530  Biso   1.000  H
  H203     1.0000 0.26060  0.48580  0.83530  Biso   1.000  H
  H204     1.0000 0.23940  0.98580  0.66470  Biso   1.000  H
  C89      1.0000 0.78950  0.57770  0.08750  Biso   1.000  C
  C90      1.0000 0.71050  0.07770  0.41250  Biso   1.000  C
  C91      1.0000 0.21050  0.42230  0.91250  Biso   1.000  C
  C92      1.0000 0.28950  0.92230  0.58750  Biso   1.000  C
  H205     1.0000 0.82580  0.53850  0.06360  Biso   1.000  H
  H206     1.0000 0.67420  0.03850  0.43640  Biso   1.000  H
  H207     1.0000 0.17420  0.46150  0.93640  Biso   1.000  H
  H208     1.0000 0.32580  0.96150  0.56360  Biso   1.000  H
  O85      1.0000 0.19910  0.67840  0.37310  Biso   1.000  O
  O86      1.0000 0.30090  0.17840  0.12690  Biso   1.000  O
  O87      1.0000 0.80090  0.32160  0.62690  Biso   1.000  O
  O88      1.0000 0.69910  0.82160  0.87310  Biso   1.000  O
  O89      1.0000 0.12220  0.60960  0.46190  Biso   1.000  O
  O90      1.0000 0.37780  0.10960  0.03810  Biso   1.000  O
  O91      1.0000 0.87780  0.39040  0.53810  Biso   1.000  O
  O92      1.0000 0.62220  0.89040  0.96190  Biso   1.000  O
  O93      1.0000 0.16920  0.73260  0.46690  Biso   1.000  O
  O94      1.0000 0.33080  0.23260  0.03310  Biso   1.000  O
  O95      1.0000 0.83080  0.26740  0.53310  Biso   1.000  O
  O96      1.0000 0.66920  0.76740  0.96690  Biso   1.000  O
  O97      1.0000 0.02940  0.70580  0.40230  Biso   1.000  O
  O98      1.0000 0.47060  0.20580  0.09770  Biso   1.000  O
  O99      1.0000 0.97060  0.29420  0.59770  Biso   1.000  O
  O100     1.0000 0.52940  0.79420  0.90230  Biso   1.000  O
  Cl21     1.0000 0.13670  0.65940  0.06390  Biso   1.000  Cl
  Cl22     1.0000 0.36330  0.15940  0.43610  Biso   1.000  Cl
  Cl23     1.0000 0.86330  0.34060  0.93610  Biso   1.000  Cl
  Cl24     1.0000 0.63670  0.84060  0.56390  Biso   1.000  Cl
  O101     1.0000 0.02850  0.67200  0.06270  Biso   1.000  O
  O102     1.0000 0.47150  0.17200  0.43730  Biso   1.000  O
  O103     1.0000 0.97150  0.32800  0.93730  Biso   1.000  O
  O104     1.0000 0.52850  0.82800  0.56270  Biso   1.000  O
  O105     1.0000 0.17150  0.59550  0.02820  Biso   1.000  O
  O106     1.0000 0.32850  0.09550  0.47180  Biso   1.000  O
  O107     1.0000 0.82850  0.40450  0.97180  Biso   1.000  O
  O108     1.0000 0.67150  0.90450  0.52820  Biso   1.000  O
  O109     1.0000 0.18730  0.73110  0.03520  Biso   1.000  O
  O110     1.0000 0.31270  0.23110  0.46480  Biso   1.000  O
  O111     1.0000 0.81270  0.26890  0.96480  Biso   1.000  O
  O112     1.0000 0.68730  0.76890  0.53520  Biso   1.000  O
  O113     1.0000 0.16920  0.66380  0.12730  Biso   1.000  O
  O114     1.0000 0.33080  0.16380  0.37270  Biso   1.000  O
  O115     1.0000 0.83080  0.33620  0.87270  Biso   1.000  O
  O116     1.0000 0.66920  0.83620  0.62730  Biso   1.000  O
