data_image0
_cell_length_a       24.597
_cell_length_b       8.1312
_cell_length_c       17.749
_cell_angle_alpha    90
_cell_angle_beta     95.387
_cell_angle_gamma    90

_symmetry_space_group_name_H-M    "P 1"
_symmetry_int_tables_number       1

loop_
  _symmetry_equiv_pos_as_xyz
  'x, y, z'

loop_
  _atom_site_label
  _atom_site_occupancy
  _atom_site_fract_x
  _atom_site_fract_y
  _atom_site_fract_z
  _atom_site_thermal_displace_type
  _atom_site_B_iso_or_equiv
  _atom_site_type_symbol
  Cu1      1.0000 0.23414  0.44993  0.13989  Biso   1.000  Cu
  Cu2      1.0000 0.76586  0.44993  0.36011  Biso   1.000  Cu
  Cu3      1.0000 0.73414  0.94993  0.13989  Biso   1.000  Cu
  Cu4      1.0000 0.26586  0.94993  0.36011  Biso   1.000  Cu
  Cu5      1.0000 0.76586  0.55007  0.86011  Biso   1.000  Cu
  Cu6      1.0000 0.23414  0.55007  0.63989  Biso   1.000  Cu
  Cu7      1.0000 0.26586  0.05007  0.86011  Biso   1.000  Cu
  Cu8      1.0000 0.73414  0.05007  0.63989  Biso   1.000  Cu
  O1       1.0000 0.25233  0.21980  0.16083  Biso   1.000  O
  O2       1.0000 0.74767  0.21980  0.33917  Biso   1.000  O
  O3       1.0000 0.75233  0.71980  0.16083  Biso   1.000  O
  O4       1.0000 0.24767  0.71980  0.33917  Biso   1.000  O
  O5       1.0000 0.74767  0.78020  0.83917  Biso   1.000  O
  O6       1.0000 0.25233  0.78020  0.66083  Biso   1.000  O
  O7       1.0000 0.24767  0.28020  0.83917  Biso   1.000  O
  O8       1.0000 0.75233  0.28020  0.66083  Biso   1.000  O
  O9       1.0000 0.23333  0.02060  0.24148  Biso   1.000  O
  O10      1.0000 0.76667  0.02060  0.25852  Biso   1.000  O
  O11      1.0000 0.73333  0.52060  0.24148  Biso   1.000  O
  O12      1.0000 0.26667  0.52060  0.25852  Biso   1.000  O
  O13      1.0000 0.76667  0.97940  0.75852  Biso   1.000  O
  O14      1.0000 0.23333  0.97940  0.74148  Biso   1.000  O
  O15      1.0000 0.26667  0.47940  0.75852  Biso   1.000  O
  O16      1.0000 0.73333  0.47940  0.74148  Biso   1.000  O
  O17      1.0000 0.20096  0.66520  0.12200  Biso   1.000  O
  O18      1.0000 0.79904  0.66520  0.37800  Biso   1.000  O
  O19      1.0000 0.70096  0.16520  0.12200  Biso   1.000  O
  O20      1.0000 0.29904  0.16520  0.37800  Biso   1.000  O
  O21      1.0000 0.79904  0.33480  0.87800  Biso   1.000  O
  O22      1.0000 0.20096  0.33480  0.62200  Biso   1.000  O
  O23      1.0000 0.29904  0.83480  0.87800  Biso   1.000  O
  O24      1.0000 0.70096  0.83480  0.62200  Biso   1.000  O
  O25      1.0000 0.12889  0.81040  0.14934  Biso   1.000  O
  O26      1.0000 0.87111  0.81040  0.35066  Biso   1.000  O
  O27      1.0000 0.62889  0.31040  0.14934  Biso   1.000  O
  O28      1.0000 0.37111  0.31040  0.35066  Biso   1.000  O
  O29      1.0000 0.87111  0.18960  0.85066  Biso   1.000  O
  O30      1.0000 0.12889  0.18960  0.64934  Biso   1.000  O
  O31      1.0000 0.37111  0.68960  0.85066  Biso   1.000  O
  O32      1.0000 0.62889  0.68960  0.64934  Biso   1.000  O
  N1       1.0000 0.43436  0.36200  0.16110  Biso   1.000  N
  N2       1.0000 0.56564  0.36200  0.33890  Biso   1.000  N
  N3       1.0000 0.93436  0.86200  0.16110  Biso   1.000  N
  N4       1.0000 0.06564  0.86200  0.33890  Biso   1.000  N
  N5       1.0000 0.56564  0.63800  0.83890  Biso   1.000  N
  N6       1.0000 0.43436  0.63800  0.66110  Biso   1.000  N
  N7       1.0000 0.06564  0.13800  0.83890  Biso   1.000  N
  N8       1.0000 0.93436  0.13800  0.66110  Biso   1.000  N
  N9       1.0000 0.51239  0.38610  0.09980  Biso   1.000  N
  N10      1.0000 0.48761  0.38610  0.40020  Biso   1.000  N
  N11      1.0000 0.01239  0.88610  0.09980  Biso   1.000  N
  N12      1.0000 0.98761  0.88610  0.40020  Biso   1.000  N
  N13      1.0000 0.48761  0.61390  0.90020  Biso   1.000  N
  N14      1.0000 0.51239  0.61390  0.59980  Biso   1.000  N
  N15      1.0000 0.98761  0.11390  0.90020  Biso   1.000  N
  N16      1.0000 0.01239  0.11390  0.59980  Biso   1.000  N
  H1       1.0000 0.53010  0.34290  0.13900  Biso   1.000  H
  H2       1.0000 0.46990  0.34290  0.36100  Biso   1.000  H
  H3       1.0000 0.03010  0.84290  0.13900  Biso   1.000  H
  H4       1.0000 0.96990  0.84290  0.36100  Biso   1.000  H
  H5       1.0000 0.46990  0.65710  0.86100  Biso   1.000  H
  H6       1.0000 0.53010  0.65710  0.63900  Biso   1.000  H
  H7       1.0000 0.96990  0.15710  0.86100  Biso   1.000  H
  H8       1.0000 0.03010  0.15710  0.63900  Biso   1.000  H
  H9       1.0000 0.52930  0.41350  0.06140  Biso   1.000  H
  H10      1.0000 0.47070  0.41350  0.43860  Biso   1.000  H
  H11      1.0000 0.02930  0.91350  0.06140  Biso   1.000  H
  H12      1.0000 0.97070  0.91350  0.43860  Biso   1.000  H
  H13      1.0000 0.47070  0.58650  0.93860  Biso   1.000  H
  H14      1.0000 0.52930  0.58650  0.56140  Biso   1.000  H
  H15      1.0000 0.97070  0.08650  0.93860  Biso   1.000  H
  H16      1.0000 0.02930  0.08650  0.56140  Biso   1.000  H
  N17      1.0000 0.43354  0.47900  0.03500  Biso   1.000  N
  N18      1.0000 0.56646  0.47900  0.46500  Biso   1.000  N
  N19      1.0000 0.93354  0.97900  0.03500  Biso   1.000  N
  N20      1.0000 0.06646  0.97900  0.46500  Biso   1.000  N
  N21      1.0000 0.56646  0.52100  0.96500  Biso   1.000  N
  N22      1.0000 0.43354  0.52100  0.53500  Biso   1.000  N
  N23      1.0000 0.06646  0.02100  0.96500  Biso   1.000  N
  N24      1.0000 0.93354  0.02100  0.53500  Biso   1.000  N
  N25      1.0000 0.29670  0.49670  0.08260  Biso   1.000  N
  N26      1.0000 0.70330  0.49670  0.41740  Biso   1.000  N
  N27      1.0000 0.79670  0.99670  0.08260  Biso   1.000  N
  N28      1.0000 0.20330  0.99670  0.41740  Biso   1.000  N
  N29      1.0000 0.70330  0.50330  0.91740  Biso   1.000  N
  N30      1.0000 0.29670  0.50330  0.58260  Biso   1.000  N
  N31      1.0000 0.20330  0.00330  0.91740  Biso   1.000  N
  N32      1.0000 0.79670  0.00330  0.58260  Biso   1.000  N
  N33      1.0000 0.34374  0.56070  0.98470  Biso   1.000  N
  N34      1.0000 0.65626  0.56070  0.51530  Biso   1.000  N
  N35      1.0000 0.84374  0.06070  0.98470  Biso   1.000  N
  N36      1.0000 0.15626  0.06070  0.51530  Biso   1.000  N
  N37      1.0000 0.65626  0.43930  0.01530  Biso   1.000  N
  N38      1.0000 0.34374  0.43930  0.48470  Biso   1.000  N
  N39      1.0000 0.15626  0.93930  0.01530  Biso   1.000  N
  N40      1.0000 0.84374  0.93930  0.48470  Biso   1.000  N
  H17      1.0000 0.34810  0.60770  0.93450  Biso   1.000  H
  H18      1.0000 0.65190  0.60770  0.56550  Biso   1.000  H
  H19      1.0000 0.84810  0.10770  0.93450  Biso   1.000  H
  H20      1.0000 0.15190  0.10770  0.56550  Biso   1.000  H
  H21      1.0000 0.65190  0.39230  0.06550  Biso   1.000  H
  H22      1.0000 0.34810  0.39230  0.43450  Biso   1.000  H
  H23      1.0000 0.15190  0.89230  0.06550  Biso   1.000  H
  H24      1.0000 0.84810  0.89230  0.43450  Biso   1.000  H
  N41      1.0000 0.16257  0.38490  0.17600  Biso   1.000  N
  N42      1.0000 0.83743  0.38490  0.32400  Biso   1.000  N
  N43      1.0000 0.66257  0.88490  0.17600  Biso   1.000  N
  N44      1.0000 0.33743  0.88490  0.32400  Biso   1.000  N
  N45      1.0000 0.83743  0.61510  0.82400  Biso   1.000  N
  N46      1.0000 0.16257  0.61510  0.67600  Biso   1.000  N
  N47      1.0000 0.33743  0.11510  0.82400  Biso   1.000  N
  N48      1.0000 0.66257  0.11510  0.67600  Biso   1.000  N
  C1       1.0000 0.45820  0.41090  0.09860  Biso   1.000  C
  C2       1.0000 0.54180  0.41090  0.40140  Biso   1.000  C
  C3       1.0000 0.95820  0.91090  0.09860  Biso   1.000  C
  C4       1.0000 0.04180  0.91090  0.40140  Biso   1.000  C
  C5       1.0000 0.54180  0.58910  0.90140  Biso   1.000  C
  C6       1.0000 0.45820  0.58910  0.59860  Biso   1.000  C
  C7       1.0000 0.04180  0.08910  0.90140  Biso   1.000  C
  C8       1.0000 0.95820  0.08910  0.59860  Biso   1.000  C
  C9       1.0000 0.38000  0.49840  0.03900  Biso   1.000  C
  C10      1.0000 0.62000  0.49840  0.46100  Biso   1.000  C
  C11      1.0000 0.88000  0.99840  0.03900  Biso   1.000  C
  C12      1.0000 0.12000  0.99840  0.46100  Biso   1.000  C
  C13      1.0000 0.62000  0.50160  0.96100  Biso   1.000  C
  C14      1.0000 0.38000  0.50160  0.53900  Biso   1.000  C
  C15      1.0000 0.12000  0.00160  0.96100  Biso   1.000  C
  C16      1.0000 0.88000  0.00160  0.53900  Biso   1.000  C
  C17      1.0000 0.35145  0.45840  0.10000  Biso   1.000  C
  C18      1.0000 0.64855  0.45840  0.40000  Biso   1.000  C
  C19      1.0000 0.85145  0.95840  0.10000  Biso   1.000  C
  C20      1.0000 0.14855  0.95840  0.40000  Biso   1.000  C
  C21      1.0000 0.64855  0.54160  0.90000  Biso   1.000  C
  C22      1.0000 0.35145  0.54160  0.60000  Biso   1.000  C
  C23      1.0000 0.14855  0.04160  0.90000  Biso   1.000  C
  C24      1.0000 0.85145  0.04160  0.60000  Biso   1.000  C
  C25      1.0000 0.38080  0.38780  0.16180  Biso   1.000  C
  C26      1.0000 0.61920  0.38780  0.33820  Biso   1.000  C
  C27      1.0000 0.88080  0.88780  0.16180  Biso   1.000  C
  C28      1.0000 0.11920  0.88780  0.33820  Biso   1.000  C
  C29      1.0000 0.61920  0.61220  0.83820  Biso   1.000  C
  C30      1.0000 0.38080  0.61220  0.66180  Biso   1.000  C
  C31      1.0000 0.11920  0.11220  0.83820  Biso   1.000  C
  C32      1.0000 0.88080  0.11220  0.66180  Biso   1.000  C
  H25      1.0000 0.36320  0.35820  0.20400  Biso   1.000  H
  H26      1.0000 0.63680  0.35820  0.29600  Biso   1.000  H
  H27      1.0000 0.86320  0.85820  0.20400  Biso   1.000  H
  H28      1.0000 0.13680  0.85820  0.29600  Biso   1.000  H
  H29      1.0000 0.63680  0.64180  0.79600  Biso   1.000  H
  H30      1.0000 0.36320  0.64180  0.70400  Biso   1.000  H
  H31      1.0000 0.13680  0.14180  0.79600  Biso   1.000  H
  H32      1.0000 0.86320  0.14180  0.70400  Biso   1.000  H
  C33      1.0000 0.29438  0.55920  0.01390  Biso   1.000  C
  C34      1.0000 0.70562  0.55920  0.48610  Biso   1.000  C
  C35      1.0000 0.79438  0.05920  0.01390  Biso   1.000  C
  C36      1.0000 0.20562  0.05920  0.48610  Biso   1.000  C
  C37      1.0000 0.70562  0.44080  0.98610  Biso   1.000  C
  C38      1.0000 0.29438  0.44080  0.51390  Biso   1.000  C
  C39      1.0000 0.20562  0.94080  0.98610  Biso   1.000  C
  C40      1.0000 0.79438  0.94080  0.51390  Biso   1.000  C
  H33      1.0000 0.26240  0.59820  0.98790  Biso   1.000  H
  H34      1.0000 0.73760  0.59820  0.51210  Biso   1.000  H
  H35      1.0000 0.76240  0.09820  0.98790  Biso   1.000  H
  H36      1.0000 0.23760  0.09820  0.51210  Biso   1.000  H
  H37      1.0000 0.73760  0.40180  0.01210  Biso   1.000  H
  H38      1.0000 0.26240  0.40180  0.48790  Biso   1.000  H
  H39      1.0000 0.23760  0.90180  0.01210  Biso   1.000  H
  H40      1.0000 0.76240  0.90180  0.48790  Biso   1.000  H
  C41      1.0000 0.17810  0.26270  0.23600  Biso   1.000  C
  C42      1.0000 0.82190  0.26270  0.26400  Biso   1.000  C
  C43      1.0000 0.67810  0.76270  0.23600  Biso   1.000  C
  C44      1.0000 0.32190  0.76270  0.26400  Biso   1.000  C
  C45      1.0000 0.82190  0.73730  0.76400  Biso   1.000  C
  C46      1.0000 0.17810  0.73730  0.73600  Biso   1.000  C
  C47      1.0000 0.32190  0.23730  0.76400  Biso   1.000  C
  C48      1.0000 0.67810  0.23730  0.73600  Biso   1.000  C
  H41      1.0000 0.14690  0.19450  0.24440  Biso   1.000  H
  H42      1.0000 0.85310  0.19450  0.25560  Biso   1.000  H
  H43      1.0000 0.64690  0.69450  0.24440  Biso   1.000  H
  H44      1.0000 0.35310  0.69450  0.25560  Biso   1.000  H
  H45      1.0000 0.85310  0.80550  0.75560  Biso   1.000  H
  H46      1.0000 0.14690  0.80550  0.74440  Biso   1.000  H
  H47      1.0000 0.35310  0.30550  0.75560  Biso   1.000  H
  H48      1.0000 0.64690  0.30550  0.74440  Biso   1.000  H
  H49      1.0000 0.18990  0.31870  0.28300  Biso   1.000  H
  H50      1.0000 0.81010  0.31870  0.21700  Biso   1.000  H
  H51      1.0000 0.68990  0.81870  0.28300  Biso   1.000  H
  H52      1.0000 0.31010  0.81870  0.21700  Biso   1.000  H
  H53      1.0000 0.81010  0.68130  0.71700  Biso   1.000  H
  H54      1.0000 0.18990  0.68130  0.78300  Biso   1.000  H
  H55      1.0000 0.31010  0.18130  0.71700  Biso   1.000  H
  H56      1.0000 0.68990  0.18130  0.78300  Biso   1.000  H
  C49      1.0000 0.22450  0.15560  0.21140  Biso   1.000  C
  C50      1.0000 0.77550  0.15560  0.28860  Biso   1.000  C
  C51      1.0000 0.72450  0.65560  0.21140  Biso   1.000  C
  C52      1.0000 0.27550  0.65560  0.28860  Biso   1.000  C
  C53      1.0000 0.77550  0.84440  0.78860  Biso   1.000  C
  C54      1.0000 0.22450  0.84440  0.71140  Biso   1.000  C
  C55      1.0000 0.27550  0.34440  0.78860  Biso   1.000  C
  C56      1.0000 0.72450  0.34440  0.71140  Biso   1.000  C
  C57      1.0000 0.14001  0.54170  0.20330  Biso   1.000  C
  C58      1.0000 0.85999  0.54170  0.29670  Biso   1.000  C
  C59      1.0000 0.64001  0.04170  0.20330  Biso   1.000  C
  C60      1.0000 0.35999  0.04170  0.29670  Biso   1.000  C
  C61      1.0000 0.85999  0.45830  0.79670  Biso   1.000  C
  C62      1.0000 0.14001  0.45830  0.70330  Biso   1.000  C
  C63      1.0000 0.35999  0.95830  0.79670  Biso   1.000  C
  C64      1.0000 0.64001  0.95830  0.70330  Biso   1.000  C
  H57      1.0000 0.15370  0.56030  0.25560  Biso   1.000  H
  H58      1.0000 0.84630  0.56030  0.24440  Biso   1.000  H
  H59      1.0000 0.65370  0.06030  0.25560  Biso   1.000  H
  H60      1.0000 0.34630  0.06030  0.24440  Biso   1.000  H
  H61      1.0000 0.84630  0.43970  0.74440  Biso   1.000  H
  H62      1.0000 0.15370  0.43970  0.75560  Biso   1.000  H
  H63      1.0000 0.34630  0.93970  0.74440  Biso   1.000  H
  H64      1.0000 0.65370  0.93970  0.75560  Biso   1.000  H
  H65      1.0000 0.10050  0.53490  0.20060  Biso   1.000  H
  H66      1.0000 0.89950  0.53490  0.29940  Biso   1.000  H
  H67      1.0000 0.60050  0.03490  0.20060  Biso   1.000  H
  H68      1.0000 0.39950  0.03490  0.29940  Biso   1.000  H
  H69      1.0000 0.89950  0.46510  0.79940  Biso   1.000  H
  H70      1.0000 0.10050  0.46510  0.70060  Biso   1.000  H
  H71      1.0000 0.39950  0.96510  0.79940  Biso   1.000  H
  H72      1.0000 0.60050  0.96510  0.70060  Biso   1.000  H
  C65      1.0000 0.15670  0.68360  0.15450  Biso   1.000  C
  C66      1.0000 0.84330  0.68360  0.34550  Biso   1.000  C
  C67      1.0000 0.65670  0.18360  0.15450  Biso   1.000  C
  C68      1.0000 0.34330  0.18360  0.34550  Biso   1.000  C
  C69      1.0000 0.84330  0.31640  0.84550  Biso   1.000  C
  C70      1.0000 0.15670  0.31640  0.65450  Biso   1.000  C
  C71      1.0000 0.34330  0.81640  0.84550  Biso   1.000  C
  C72      1.0000 0.65670  0.81640  0.65450  Biso   1.000  C
  C73      1.0000 0.12490  0.30850  0.11550  Biso   1.000  C
  C74      1.0000 0.87510  0.30850  0.38450  Biso   1.000  C
  C75      1.0000 0.62490  0.80850  0.11550  Biso   1.000  C
  C76      1.0000 0.37510  0.80850  0.38450  Biso   1.000  C
  C77      1.0000 0.87510  0.69150  0.88450  Biso   1.000  C
  C78      1.0000 0.12490  0.69150  0.61550  Biso   1.000  C
  C79      1.0000 0.37510  0.19150  0.88450  Biso   1.000  C
  C80      1.0000 0.62490  0.19150  0.61550  Biso   1.000  C
  H73      1.0000 0.08930  0.29480  0.13410  Biso   1.000  H
  H74      1.0000 0.91070  0.29480  0.36590  Biso   1.000  H
  H75      1.0000 0.58930  0.79480  0.13410  Biso   1.000  H
  H76      1.0000 0.41070  0.79480  0.36590  Biso   1.000  H
  H77      1.0000 0.91070  0.70520  0.86590  Biso   1.000  H
  H78      1.0000 0.08930  0.70520  0.63410  Biso   1.000  H
  H79      1.0000 0.41070  0.20520  0.86590  Biso   1.000  H
  H80      1.0000 0.58930  0.20520  0.63410  Biso   1.000  H
  H81      1.0000 0.13850  0.20000  0.10450  Biso   1.000  H
  H82      1.0000 0.86150  0.20000  0.39550  Biso   1.000  H
  H83      1.0000 0.63850  0.70000  0.10450  Biso   1.000  H
  H84      1.0000 0.36150  0.70000  0.39550  Biso   1.000  H
  H85      1.0000 0.86150  0.80000  0.89550  Biso   1.000  H
  H86      1.0000 0.13850  0.80000  0.60450  Biso   1.000  H
  H87      1.0000 0.36150  0.30000  0.89550  Biso   1.000  H
  H88      1.0000 0.63850  0.30000  0.60450  Biso   1.000  H
  C81      1.0000 0.11820  0.40620  0.04340  Biso   1.000  C
  C82      1.0000 0.88180  0.40620  0.45660  Biso   1.000  C
  C83      1.0000 0.61820  0.90620  0.04340  Biso   1.000  C
  C84      1.0000 0.38180  0.90620  0.45660  Biso   1.000  C
  C85      1.0000 0.88180  0.59380  0.95660  Biso   1.000  C
  C86      1.0000 0.11820  0.59380  0.54340  Biso   1.000  C
  C87      1.0000 0.38180  0.09380  0.95660  Biso   1.000  C
  C88      1.0000 0.61820  0.09380  0.54340  Biso   1.000  C
  C89      1.0000 0.07380  0.51000  0.02750  Biso   1.000  C
  C90      1.0000 0.92620  0.51000  0.47250  Biso   1.000  C
  C91      1.0000 0.57380  0.01000  0.02750  Biso   1.000  C
  C92      1.0000 0.42620  0.01000  0.47250  Biso   1.000  C
  C93      1.0000 0.92620  0.49000  0.97250  Biso   1.000  C
  C94      1.0000 0.07380  0.49000  0.52750  Biso   1.000  C
  C95      1.0000 0.42620  0.99000  0.97250  Biso   1.000  C
  C96      1.0000 0.57380  0.99000  0.52750  Biso   1.000  C
  H89      1.0000 0.04740  0.51840  0.06150  Biso   1.000  H
  H90      1.0000 0.95260  0.51840  0.43850  Biso   1.000  H
  H91      1.0000 0.54740  0.01840  0.06150  Biso   1.000  H
  H92      1.0000 0.45260  0.01840  0.43850  Biso   1.000  H
  H93      1.0000 0.95260  0.48160  0.93850  Biso   1.000  H
  H94      1.0000 0.04740  0.48160  0.56150  Biso   1.000  H
  H95      1.0000 0.45260  0.98160  0.93850  Biso   1.000  H
  H96      1.0000 0.54740  0.98160  0.56150  Biso   1.000  H
  C97      1.0000 0.06890  0.60000  0.96210  Biso   1.000  C
  C98      1.0000 0.93110  0.60000  0.53790  Biso   1.000  C
  C99      1.0000 0.56890  0.10000  0.96210  Biso   1.000  C
  C100     1.0000 0.43110  0.10000  0.53790  Biso   1.000  C
  C101     1.0000 0.93110  0.40000  0.03790  Biso   1.000  C
  C102     1.0000 0.06890  0.40000  0.46210  Biso   1.000  C
  C103     1.0000 0.43110  0.90000  0.03790  Biso   1.000  C
  C104     1.0000 0.56890  0.90000  0.46210  Biso   1.000  C
  H97      1.0000 0.03920  0.67000  0.95200  Biso   1.000  H
  H98      1.0000 0.96080  0.67000  0.54800  Biso   1.000  H
  H99      1.0000 0.53920  0.17000  0.95200  Biso   1.000  H
  H100     1.0000 0.46080  0.17000  0.54800  Biso   1.000  H
  H101     1.0000 0.96080  0.33000  0.04800  Biso   1.000  H
  H102     1.0000 0.03920  0.33000  0.45200  Biso   1.000  H
  H103     1.0000 0.46080  0.83000  0.04800  Biso   1.000  H
  H104     1.0000 0.53920  0.83000  0.45200  Biso   1.000  H
  C105     1.0000 0.10770  0.58820  0.91070  Biso   1.000  C
  C106     1.0000 0.89230  0.58820  0.58930  Biso   1.000  C
  C107     1.0000 0.60770  0.08820  0.91070  Biso   1.000  C
  C108     1.0000 0.39230  0.08820  0.58930  Biso   1.000  C
  C109     1.0000 0.89230  0.41180  0.08930  Biso   1.000  C
  C110     1.0000 0.10770  0.41180  0.41070  Biso   1.000  C
  C111     1.0000 0.39230  0.91180  0.08930  Biso   1.000  C
  C112     1.0000 0.60770  0.91180  0.41070  Biso   1.000  C
  H105     1.0000 0.10380  0.64950  0.86630  Biso   1.000  H
  H106     1.0000 0.89620  0.64950  0.63370  Biso   1.000  H
  H107     1.0000 0.60380  0.14950  0.86630  Biso   1.000  H
  H108     1.0000 0.39620  0.14950  0.63370  Biso   1.000  H
  H109     1.0000 0.89620  0.35050  0.13370  Biso   1.000  H
  H110     1.0000 0.10380  0.35050  0.36630  Biso   1.000  H
  H111     1.0000 0.39620  0.85050  0.13370  Biso   1.000  H
  H112     1.0000 0.60380  0.85050  0.36630  Biso   1.000  H
  C113     1.0000 0.15250  0.48480  0.92530  Biso   1.000  C
  C114     1.0000 0.84750  0.48480  0.57470  Biso   1.000  C
  C115     1.0000 0.65250  0.98480  0.92530  Biso   1.000  C
  C116     1.0000 0.34750  0.98480  0.57470  Biso   1.000  C
  C117     1.0000 0.84750  0.51520  0.07470  Biso   1.000  C
  C118     1.0000 0.15250  0.51520  0.42530  Biso   1.000  C
  C119     1.0000 0.34750  0.01520  0.07470  Biso   1.000  C
  C120     1.0000 0.65250  0.01520  0.42530  Biso   1.000  C
  H113     1.0000 0.17890  0.47620  0.89130  Biso   1.000  H
  H114     1.0000 0.82110  0.47620  0.60870  Biso   1.000  H
  H115     1.0000 0.67890  0.97620  0.89130  Biso   1.000  H
  H116     1.0000 0.32110  0.97620  0.60870  Biso   1.000  H
  H117     1.0000 0.82110  0.52380  0.10870  Biso   1.000  H
  H118     1.0000 0.17890  0.52380  0.39130  Biso   1.000  H
  H119     1.0000 0.32110  0.02380  0.10870  Biso   1.000  H
  H120     1.0000 0.67890  0.02380  0.39130  Biso   1.000  H
  C121     1.0000 0.15670  0.39510  0.99170  Biso   1.000  C
  C122     1.0000 0.84330  0.39510  0.50830  Biso   1.000  C
  C123     1.0000 0.65670  0.89510  0.99170  Biso   1.000  C
  C124     1.0000 0.34330  0.89510  0.50830  Biso   1.000  C
  C125     1.0000 0.84330  0.60490  0.00830  Biso   1.000  C
  C126     1.0000 0.15670  0.60490  0.49170  Biso   1.000  C
  C127     1.0000 0.34330  0.10490  0.00830  Biso   1.000  C
  C128     1.0000 0.65670  0.10490  0.49170  Biso   1.000  C
  H121     1.0000 0.18630  0.32500  0.00200  Biso   1.000  H
  H122     1.0000 0.81370  0.32500  0.49800  Biso   1.000  H
  H123     1.0000 0.68630  0.82500  0.00200  Biso   1.000  H
  H124     1.0000 0.31370  0.82500  0.49800  Biso   1.000  H
  H125     1.0000 0.81370  0.67500  0.99800  Biso   1.000  H
  H126     1.0000 0.18630  0.67500  0.50200  Biso   1.000  H
  H127     1.0000 0.31370  0.17500  0.99800  Biso   1.000  H
  H128     1.0000 0.68630  0.17500  0.50200  Biso   1.000  H
  O33      1.0000 0.00000  0.62630  0.25000  Biso   1.000  O
  O34      1.0000 0.50000  0.12630  0.25000  Biso   1.000  O
  O35      1.0000 0.00000  0.37370  0.75000  Biso   1.000  O
  O36      1.0000 0.50000  0.87370  0.75000  Biso   1.000  O
  H129     1.0000 0.02330  0.69400  0.26930  Biso   1.000  H
  H130     1.0000 0.97670  0.69400  0.23070  Biso   1.000  H
  H131     1.0000 0.52330  0.19400  0.26930  Biso   1.000  H
  H132     1.0000 0.47670  0.19400  0.23070  Biso   1.000  H
  H133     1.0000 0.97670  0.30600  0.73070  Biso   1.000  H
  H134     1.0000 0.02330  0.30600  0.76930  Biso   1.000  H
  H135     1.0000 0.47670  0.80600  0.73070  Biso   1.000  H
  H136     1.0000 0.52330  0.80600  0.76930  Biso   1.000  H
