data_image0
_cell_length_a       8.3978
_cell_length_b       7.3031
_cell_length_c       19.9835
_cell_angle_alpha    90
_cell_angle_beta     90.631
_cell_angle_gamma    90

_symmetry_space_group_name_H-M    "P 1"
_symmetry_int_tables_number       1

loop_
  _symmetry_equiv_pos_as_xyz
  'x, y, z'

loop_
  _atom_site_label
  _atom_site_occupancy
  _atom_site_fract_x
  _atom_site_fract_y
  _atom_site_fract_z
  _atom_site_thermal_displace_type
  _atom_site_B_iso_or_equiv
  _atom_site_type_symbol
  C1       1.0000 0.58850  0.55830  0.42737  Biso   1.000  C
  C2       1.0000 0.91150  0.05830  0.07263  Biso   1.000  C
  C3       1.0000 0.41150  0.44170  0.57263  Biso   1.000  C
  C4       1.0000 0.08850  0.94170  0.92737  Biso   1.000  C
  C5       1.0000 0.34860  0.22090  0.20989  Biso   1.000  C
  C6       1.0000 0.15140  0.72090  0.29011  Biso   1.000  C
  C7       1.0000 0.65140  0.77910  0.79011  Biso   1.000  C
  C8       1.0000 0.84860  0.27910  0.70989  Biso   1.000  C
  C9       1.0000 0.80580  0.34350  0.46642  Biso   1.000  C
  C10      1.0000 0.69420  0.84350  0.03358  Biso   1.000  C
  C11      1.0000 0.19420  0.65650  0.53358  Biso   1.000  C
  C12      1.0000 0.30580  0.15650  0.96642  Biso   1.000  C
  H1       1.0000 0.85120  0.22110  0.46010  Biso   1.000  H
  H2       1.0000 0.64880  0.72110  0.03990  Biso   1.000  H
  H3       1.0000 0.14880  0.77890  0.53990  Biso   1.000  H
  H4       1.0000 0.35120  0.27890  0.96010  Biso   1.000  H
  H5       1.0000 0.76750  0.35550  0.51240  Biso   1.000  H
  H6       1.0000 0.73250  0.85550  0.98760  Biso   1.000  H
  H7       1.0000 0.23250  0.64450  0.48760  Biso   1.000  H
  H8       1.0000 0.26750  0.14450  0.01240  Biso   1.000  H
  H9       1.0000 0.88780  0.43610  0.45820  Biso   1.000  H
  H10      1.0000 0.61220  0.93610  0.04180  Biso   1.000  H
  H11      1.0000 0.11220  0.56390  0.54180  Biso   1.000  H
  H12      1.0000 0.38780  0.06390  0.95820  Biso   1.000  H
  C13      1.0000 0.66810  0.37100  0.41773  Biso   1.000  C
  C14      1.0000 0.83190  0.87100  0.08227  Biso   1.000  C
  C15      1.0000 0.33190  0.62900  0.58227  Biso   1.000  C
  C16      1.0000 0.16810  0.12900  0.91773  Biso   1.000  C
  H13      1.0000 0.58670  0.27490  0.42740  Biso   1.000  H
  H14      1.0000 0.91330  0.77490  0.07260  Biso   1.000  H
  H15      1.0000 0.41330  0.72510  0.57260  Biso   1.000  H
  H16      1.0000 0.08670  0.22510  0.92740  Biso   1.000  H
  C17      1.0000 0.71260  0.35360  0.34409  Biso   1.000  C
  C18      1.0000 0.78740  0.85360  0.15591  Biso   1.000  C
  C19      1.0000 0.28740  0.64640  0.65591  Biso   1.000  C
  C20      1.0000 0.21260  0.14640  0.84409  Biso   1.000  C
  C21      1.0000 0.86690  0.33690  0.32258  Biso   1.000  C
  C22      1.0000 0.63310  0.83690  0.17742  Biso   1.000  C
  C23      1.0000 0.13310  0.66310  0.67742  Biso   1.000  C
  C24      1.0000 0.36690  0.16310  0.82258  Biso   1.000  C
  H17      1.0000 0.95270  0.33290  0.35390  Biso   1.000  H
  H18      1.0000 0.54730  0.83290  0.14610  Biso   1.000  H
  H19      1.0000 0.04730  0.66710  0.64610  Biso   1.000  H
  H20      1.0000 0.45270  0.16710  0.85390  Biso   1.000  H
  C25      1.0000 0.89510  0.32600  0.25460  Biso   1.000  C
  C26      1.0000 0.60490  0.82600  0.24540  Biso   1.000  C
  C27      1.0000 0.10490  0.67400  0.74540  Biso   1.000  C
  C28      1.0000 0.39510  0.17400  0.75460  Biso   1.000  C
  H21      1.0000 0.00100  0.31340  0.23900  Biso   1.000  H
  H22      1.0000 0.49900  0.81340  0.26100  Biso   1.000  H
  H23      1.0000 0.99900  0.68660  0.76100  Biso   1.000  H
  H24      1.0000 0.50100  0.18660  0.73900  Biso   1.000  H
  C29      1.0000 0.76980  0.33340  0.20957  Biso   1.000  C
  C30      1.0000 0.73020  0.83340  0.29043  Biso   1.000  C
  C31      1.0000 0.23020  0.66660  0.79043  Biso   1.000  C
  C32      1.0000 0.26980  0.16660  0.70957  Biso   1.000  C
  H25      1.0000 0.78830  0.32700  0.16280  Biso   1.000  H
  H26      1.0000 0.71170  0.82700  0.33720  Biso   1.000  H
  H27      1.0000 0.21170  0.67300  0.83720  Biso   1.000  H
  H28      1.0000 0.28830  0.17300  0.66280  Biso   1.000  H
  C33      1.0000 0.61740  0.35020  0.23342  Biso   1.000  C
  C34      1.0000 0.88260  0.85020  0.26658  Biso   1.000  C
  C35      1.0000 0.38260  0.64980  0.76658  Biso   1.000  C
  C36      1.0000 0.11740  0.14980  0.73342  Biso   1.000  C
  C37      1.0000 0.47020  0.36500  0.18832  Biso   1.000  C
  C38      1.0000 0.02980  0.86500  0.31168  Biso   1.000  C
  C39      1.0000 0.52980  0.63500  0.81168  Biso   1.000  C
  C40      1.0000 0.97020  0.13500  0.68832  Biso   1.000  C
  H29      1.0000 0.42150  0.48760  0.19680  Biso   1.000  H
  H30      1.0000 0.07850  0.98760  0.30320  Biso   1.000  H
  H31      1.0000 0.57850  0.51240  0.80320  Biso   1.000  H
  H32      1.0000 0.92150  0.01240  0.69680  Biso   1.000  H
  C41      1.0000 0.50680  0.35590  0.11422  Biso   1.000  C
  C42      1.0000 0.99320  0.85590  0.38578  Biso   1.000  C
  C43      1.0000 0.49320  0.64410  0.88578  Biso   1.000  C
  C44      1.0000 0.00680  0.14410  0.61422  Biso   1.000  C
  H33      1.0000 0.58210  0.45330  0.10280  Biso   1.000  H
  H34      1.0000 0.91790  0.95330  0.39720  Biso   1.000  H
  H35      1.0000 0.41790  0.54670  0.89720  Biso   1.000  H
  H36      1.0000 0.08210  0.04670  0.60280  Biso   1.000  H
  H37      1.0000 0.40820  0.37190  0.08820  Biso   1.000  H
  H38      1.0000 0.09180  0.87190  0.41180  Biso   1.000  H
  H39      1.0000 0.59180  0.62810  0.91180  Biso   1.000  H
  H40      1.0000 0.90820  0.12810  0.58820  Biso   1.000  H
  H41      1.0000 0.55380  0.23660  0.10380  Biso   1.000  H
  H42      1.0000 0.94620  0.73660  0.39620  Biso   1.000  H
  H43      1.0000 0.44620  0.76340  0.89620  Biso   1.000  H
  H44      1.0000 0.05380  0.26340  0.60380  Biso   1.000  H
  N1       1.0000 0.58960  0.36070  0.30015  Biso   1.000  N
  N2       1.0000 0.91040  0.86070  0.19985  Biso   1.000  N
  N3       1.0000 0.41040  0.63930  0.69985  Biso   1.000  N
  N4       1.0000 0.08960  0.13930  0.80015  Biso   1.000  N
  O1       1.0000 0.45940  0.58780  0.39380  Biso   1.000  O
  O2       1.0000 0.04060  0.08780  0.10620  Biso   1.000  O
  O3       1.0000 0.54060  0.41220  0.60620  Biso   1.000  O
  O4       1.0000 0.95940  0.91220  0.89380  Biso   1.000  O
  O5       1.0000 0.28230  0.24170  0.26572  Biso   1.000  O
  O6       1.0000 0.21770  0.74170  0.23428  Biso   1.000  O
  O7       1.0000 0.71770  0.75830  0.73428  Biso   1.000  O
  O8       1.0000 0.78230  0.25830  0.76572  Biso   1.000  O
  O9       1.0000 0.64790  0.67380  0.46499  Biso   1.000  O
  O10      1.0000 0.85210  0.17380  0.03501  Biso   1.000  O
  O11      1.0000 0.35210  0.32620  0.53501  Biso   1.000  O
  O12      1.0000 0.14790  0.82620  0.96499  Biso   1.000  O
  O13      1.0000 0.31850  0.09180  0.17042  Biso   1.000  O
  O14      1.0000 0.18150  0.59180  0.32958  Biso   1.000  O
  O15      1.0000 0.68150  0.90820  0.82958  Biso   1.000  O
  O16      1.0000 0.81850  0.40820  0.67042  Biso   1.000  O
  O17      1.0000 0.24870  0.25880  0.40663  Biso   1.000  O
  O18      1.0000 0.25130  0.75880  0.09337  Biso   1.000  O
  O19      1.0000 0.75130  0.74120  0.59337  Biso   1.000  O
  O20      1.0000 0.74870  0.24120  0.90663  Biso   1.000  O
  H45      1.0000 0.26660  0.30510  0.44750  Biso   1.000  H
  H46      1.0000 0.23340  0.80510  0.05250  Biso   1.000  H
  H47      1.0000 0.73340  0.69490  0.55250  Biso   1.000  H
  H48      1.0000 0.76660  0.19490  0.94750  Biso   1.000  H
  H49      1.0000 0.29620  0.16400  0.41010  Biso   1.000  H
  H50      1.0000 0.20380  0.66400  0.08990  Biso   1.000  H
  H51      1.0000 0.70380  0.83600  0.58990  Biso   1.000  H
  H52      1.0000 0.79620  0.33600  0.91010  Biso   1.000  H
  Cu1      1.0000 0.36756  0.41674  0.33050  Biso   1.000  Cu
  Cu2      1.0000 0.13244  0.91674  0.16950  Biso   1.000  Cu
  Cu3      1.0000 0.63244  0.58326  0.66950  Biso   1.000  Cu
  Cu4      1.0000 0.86756  0.08326  0.83050  Biso   1.000  Cu
  O21      1.0000 0.43360  0.95060  0.42570  Biso   1.000  O
  O22      1.0000 0.06640  0.45060  0.07430  Biso   1.000  O
  O23      1.0000 0.56640  0.04940  0.57430  Biso   1.000  O
  O24      1.0000 0.93360  0.54940  0.92570  Biso   1.000  O
  O25      1.0000 0.41720  0.95400  0.38910  Biso   1.000  O
  O26      1.0000 0.08280  0.45400  0.11090  Biso   1.000  O
  O27      1.0000 0.58280  0.04600  0.61090  Biso   1.000  O
  O28      1.0000 0.91720  0.54600  0.88910  Biso   1.000  O
