data_image0
_cell_length_a       16.159
_cell_length_b       14.035
_cell_length_c       15.438
_cell_angle_alpha    90
_cell_angle_beta     109.09
_cell_angle_gamma    90

_symmetry_space_group_name_H-M    "P 1"
_symmetry_int_tables_number       1

loop_
  _symmetry_equiv_pos_as_xyz
  'x, y, z'

loop_
  _atom_site_label
  _atom_site_occupancy
  _atom_site_fract_x
  _atom_site_fract_y
  _atom_site_fract_z
  _atom_site_thermal_displace_type
  _atom_site_B_iso_or_equiv
  _atom_site_type_symbol
  Cu1      1.0000 0.50000  0.39685  0.25000  Biso   1.000  Cu
  Cu2      1.0000 0.00000  0.89685  0.25000  Biso   1.000  Cu
  Cu3      1.0000 0.50000  0.60315  0.75000  Biso   1.000  Cu
  Cu4      1.0000 0.00000  0.10315  0.75000  Biso   1.000  Cu
  N1       1.0000 0.53870  0.29960  0.35030  Biso   1.000  N
  N2       1.0000 0.46130  0.29960  0.14970  Biso   1.000  N
  N3       1.0000 0.03870  0.79960  0.35030  Biso   1.000  N
  N4       1.0000 0.96130  0.79960  0.14970  Biso   1.000  N
  N5       1.0000 0.46130  0.70040  0.64970  Biso   1.000  N
  N6       1.0000 0.53870  0.70040  0.85030  Biso   1.000  N
  N7       1.0000 0.96130  0.20040  0.64970  Biso   1.000  N
  N8       1.0000 0.03870  0.20040  0.85030  Biso   1.000  N
  N9       1.0000 0.54340  0.17490  0.43780  Biso   1.000  N
  N10      1.0000 0.45660  0.17490  0.06220  Biso   1.000  N
  N11      1.0000 0.04340  0.67490  0.43780  Biso   1.000  N
  N12      1.0000 0.95660  0.67490  0.06220  Biso   1.000  N
  N13      1.0000 0.45660  0.82510  0.56220  Biso   1.000  N
  N14      1.0000 0.54340  0.82510  0.93780  Biso   1.000  N
  N15      1.0000 0.95660  0.32510  0.56220  Biso   1.000  N
  N16      1.0000 0.04340  0.32510  0.93780  Biso   1.000  N
  N17      1.0000 0.46120  0.50220  0.15630  Biso   1.000  N
  N18      1.0000 0.53880  0.50220  0.34370  Biso   1.000  N
  N19      1.0000 0.96120  0.00220  0.15630  Biso   1.000  N
  N20      1.0000 0.03880  0.00220  0.34370  Biso   1.000  N
  N21      1.0000 0.53880  0.49780  0.84370  Biso   1.000  N
  N22      1.0000 0.46120  0.49780  0.65630  Biso   1.000  N
  N23      1.0000 0.03880  0.99780  0.84370  Biso   1.000  N
  N24      1.0000 0.96120  0.99780  0.65630  Biso   1.000  N
  N25      1.0000 0.38650  0.62010  0.07540  Biso   1.000  N
  N26      1.0000 0.61350  0.62010  0.42460  Biso   1.000  N
  N27      1.0000 0.88650  0.12010  0.07540  Biso   1.000  N
  N28      1.0000 0.11350  0.12010  0.42460  Biso   1.000  N
  N29      1.0000 0.61350  0.37990  0.92460  Biso   1.000  N
  N30      1.0000 0.38650  0.37990  0.57540  Biso   1.000  N
  N31      1.0000 0.11350  0.87990  0.92460  Biso   1.000  N
  N32      1.0000 0.88650  0.87990  0.57540  Biso   1.000  N
  O1       1.0000 0.65500  0.37650  0.24470  Biso   1.000  O
  O2       1.0000 0.34500  0.37650  0.25530  Biso   1.000  O
  O3       1.0000 0.15500  0.87650  0.24470  Biso   1.000  O
  O4       1.0000 0.84500  0.87650  0.25530  Biso   1.000  O
  O5       1.0000 0.34500  0.62350  0.75530  Biso   1.000  O
  O6       1.0000 0.65500  0.62350  0.74470  Biso   1.000  O
  O7       1.0000 0.84500  0.12350  0.75530  Biso   1.000  O
  O8       1.0000 0.15500  0.12350  0.74470  Biso   1.000  O
  H1       1.0000 0.69220  0.33400  0.27080  Biso   1.000  H
  H2       1.0000 0.30780  0.33400  0.22920  Biso   1.000  H
  H3       1.0000 0.19220  0.83400  0.27080  Biso   1.000  H
  H4       1.0000 0.80780  0.83400  0.22920  Biso   1.000  H
  H5       1.0000 0.30780  0.66600  0.72920  Biso   1.000  H
  H6       1.0000 0.69220  0.66600  0.77080  Biso   1.000  H
  H7       1.0000 0.80780  0.16600  0.72920  Biso   1.000  H
  H8       1.0000 0.19220  0.16600  0.77080  Biso   1.000  H
  H9       1.0000 0.68860  0.41030  0.22480  Biso   1.000  H
  H10      1.0000 0.31140  0.41030  0.27520  Biso   1.000  H
  H11      1.0000 0.18860  0.91030  0.22480  Biso   1.000  H
  H12      1.0000 0.81140  0.91030  0.27520  Biso   1.000  H
  H13      1.0000 0.31140  0.58970  0.77520  Biso   1.000  H
  H14      1.0000 0.68860  0.58970  0.72480  Biso   1.000  H
  H15      1.0000 0.81140  0.08970  0.77520  Biso   1.000  H
  H16      1.0000 0.18860  0.08970  0.72480  Biso   1.000  H
  C1       1.0000 0.50120  0.21860  0.35800  Biso   1.000  C
  C2       1.0000 0.49880  0.21860  0.14200  Biso   1.000  C
  C3       1.0000 0.00120  0.71860  0.35800  Biso   1.000  C
  C4       1.0000 0.99880  0.71860  0.14200  Biso   1.000  C
  C5       1.0000 0.49880  0.78140  0.64200  Biso   1.000  C
  C6       1.0000 0.50120  0.78140  0.85800  Biso   1.000  C
  C7       1.0000 0.99880  0.28140  0.64200  Biso   1.000  C
  C8       1.0000 0.00120  0.28140  0.85800  Biso   1.000  C
  H17      1.0000 0.45170  0.19440  0.31380  Biso   1.000  H
  H18      1.0000 0.54830  0.19440  0.18620  Biso   1.000  H
  H19      1.0000 0.95170  0.69440  0.31380  Biso   1.000  H
  H20      1.0000 0.04830  0.69440  0.18620  Biso   1.000  H
  H21      1.0000 0.54830  0.80560  0.68620  Biso   1.000  H
  H22      1.0000 0.45170  0.80560  0.81380  Biso   1.000  H
  H23      1.0000 0.04830  0.30560  0.68620  Biso   1.000  H
  H24      1.0000 0.95170  0.30560  0.81380  Biso   1.000  H
  C9       1.0000 0.60950  0.30790  0.42960  Biso   1.000  C
  C10      1.0000 0.39050  0.30790  0.07040  Biso   1.000  C
  C11      1.0000 0.10950  0.80790  0.42960  Biso   1.000  C
  C12      1.0000 0.89050  0.80790  0.07040  Biso   1.000  C
  C13      1.0000 0.39050  0.69210  0.57040  Biso   1.000  C
  C14      1.0000 0.60950  0.69210  0.92960  Biso   1.000  C
  C15      1.0000 0.89050  0.19210  0.57040  Biso   1.000  C
  C16      1.0000 0.10950  0.19210  0.92960  Biso   1.000  C
  H25      1.0000 0.64860  0.35870  0.44380  Biso   1.000  H
  H26      1.0000 0.35140  0.35870  0.05620  Biso   1.000  H
  H27      1.0000 0.14860  0.85870  0.44380  Biso   1.000  H
  H28      1.0000 0.85140  0.85870  0.05620  Biso   1.000  H
  H29      1.0000 0.35140  0.64130  0.55620  Biso   1.000  H
  H30      1.0000 0.64860  0.64130  0.94380  Biso   1.000  H
  H31      1.0000 0.85140  0.14130  0.55620  Biso   1.000  H
  H32      1.0000 0.14860  0.14130  0.94380  Biso   1.000  H
  C17      1.0000 0.61340  0.23120  0.48340  Biso   1.000  C
  C18      1.0000 0.38660  0.23120  0.01660  Biso   1.000  C
  C19      1.0000 0.11340  0.73120  0.48340  Biso   1.000  C
  C20      1.0000 0.88660  0.73120  0.01660  Biso   1.000  C
  C21      1.0000 0.38660  0.76880  0.51660  Biso   1.000  C
  C22      1.0000 0.61340  0.76880  0.98340  Biso   1.000  C
  C23      1.0000 0.88660  0.26880  0.51660  Biso   1.000  C
  C24      1.0000 0.11340  0.26880  0.98340  Biso   1.000  C
  H33      1.0000 0.65520  0.21900  0.54010  Biso   1.000  H
  H34      1.0000 0.34480  0.21900  0.95990  Biso   1.000  H
  H35      1.0000 0.15520  0.71900  0.54010  Biso   1.000  H
  H36      1.0000 0.84480  0.71900  0.95990  Biso   1.000  H
  H37      1.0000 0.34480  0.78100  0.45990  Biso   1.000  H
  H38      1.0000 0.65520  0.78100  0.04010  Biso   1.000  H
  H39      1.0000 0.84480  0.28100  0.45990  Biso   1.000  H
  H40      1.0000 0.15520  0.28100  0.04010  Biso   1.000  H
  C25      1.0000 0.52120  0.08500  0.46920  Biso   1.000  C
  C26      1.0000 0.47880  0.08500  0.03080  Biso   1.000  C
  C27      1.0000 0.02120  0.58500  0.46920  Biso   1.000  C
  C28      1.0000 0.97880  0.58500  0.03080  Biso   1.000  C
  C29      1.0000 0.47880  0.91500  0.53080  Biso   1.000  C
  C30      1.0000 0.52120  0.91500  0.96920  Biso   1.000  C
  C31      1.0000 0.97880  0.41500  0.53080  Biso   1.000  C
  C32      1.0000 0.02120  0.41500  0.96920  Biso   1.000  C
  C33      1.0000 0.58560  0.02230  0.51290  Biso   1.000  C
  C34      1.0000 0.41440  0.02230  0.98710  Biso   1.000  C
  C35      1.0000 0.08560  0.52230  0.51290  Biso   1.000  C
  C36      1.0000 0.91440  0.52230  0.98710  Biso   1.000  C
  C37      1.0000 0.41440  0.97770  0.48710  Biso   1.000  C
  C38      1.0000 0.58560  0.97770  0.01290  Biso   1.000  C
  C39      1.0000 0.91440  0.47770  0.48710  Biso   1.000  C
  C40      1.0000 0.08560  0.47770  0.01290  Biso   1.000  C
  H41      1.0000 0.64380  0.03730  0.52120  Biso   1.000  H
  H42      1.0000 0.35620  0.03730  0.97880  Biso   1.000  H
  H43      1.0000 0.14380  0.53730  0.52120  Biso   1.000  H
  H44      1.0000 0.85620  0.53730  0.97880  Biso   1.000  H
  H45      1.0000 0.35620  0.96270  0.47880  Biso   1.000  H
  H46      1.0000 0.64380  0.96270  0.02120  Biso   1.000  H
  H47      1.0000 0.85620  0.46270  0.47880  Biso   1.000  H
  H48      1.0000 0.14380  0.46270  0.02120  Biso   1.000  H
  C41      1.0000 0.43500  0.06340  0.45510  Biso   1.000  C
  C42      1.0000 0.56500  0.06340  0.04490  Biso   1.000  C
  C43      1.0000 0.93500  0.56340  0.45510  Biso   1.000  C
  C44      1.0000 0.06500  0.56340  0.04490  Biso   1.000  C
  C45      1.0000 0.56500  0.93660  0.54490  Biso   1.000  C
  C46      1.0000 0.43500  0.93660  0.95510  Biso   1.000  C
  C47      1.0000 0.06500  0.43660  0.54490  Biso   1.000  C
  C48      1.0000 0.93500  0.43660  0.95510  Biso   1.000  C
  H49      1.0000 0.39110  0.10590  0.42430  Biso   1.000  H
  H50      1.0000 0.60890  0.10590  0.07570  Biso   1.000  H
  H51      1.0000 0.89110  0.60590  0.42430  Biso   1.000  H
  H52      1.0000 0.10890  0.60590  0.07570  Biso   1.000  H
  H53      1.0000 0.60890  0.89410  0.57570  Biso   1.000  H
  H54      1.0000 0.39110  0.89410  0.92430  Biso   1.000  H
  H55      1.0000 0.10890  0.39410  0.57570  Biso   1.000  H
  H56      1.0000 0.89110  0.39410  0.92430  Biso   1.000  H
  C49      1.0000 0.38830  0.54970  0.13520  Biso   1.000  C
  C50      1.0000 0.61170  0.54970  0.36480  Biso   1.000  C
  C51      1.0000 0.88830  0.04970  0.13520  Biso   1.000  C
  C52      1.0000 0.11170  0.04970  0.36480  Biso   1.000  C
  C53      1.0000 0.61170  0.45030  0.86480  Biso   1.000  C
  C54      1.0000 0.38830  0.45030  0.63520  Biso   1.000  C
  C55      1.0000 0.11170  0.95030  0.86480  Biso   1.000  C
  C56      1.0000 0.88830  0.95030  0.63520  Biso   1.000  C
  H57      1.0000 0.34320  0.53670  0.15850  Biso   1.000  H
  H58      1.0000 0.65680  0.53670  0.34150  Biso   1.000  H
  H59      1.0000 0.84320  0.03670  0.15850  Biso   1.000  H
  H60      1.0000 0.15680  0.03670  0.34150  Biso   1.000  H
  H61      1.0000 0.65680  0.46330  0.84150  Biso   1.000  H
  H62      1.0000 0.34320  0.46330  0.65850  Biso   1.000  H
  H63      1.0000 0.15680  0.96330  0.84150  Biso   1.000  H
  H64      1.0000 0.84320  0.96330  0.65850  Biso   1.000  H
  C57      1.0000 0.50920  0.54290  0.10870  Biso   1.000  C
  C58      1.0000 0.49080  0.54290  0.39130  Biso   1.000  C
  C59      1.0000 0.00920  0.04290  0.10870  Biso   1.000  C
  C60      1.0000 0.99080  0.04290  0.39130  Biso   1.000  C
  C61      1.0000 0.49080  0.45710  0.89130  Biso   1.000  C
  C62      1.0000 0.50920  0.45710  0.60870  Biso   1.000  C
  C63      1.0000 0.99080  0.95710  0.89130  Biso   1.000  C
  C64      1.0000 0.00920  0.95710  0.60870  Biso   1.000  C
  H65      1.0000 0.56480  0.52360  0.11050  Biso   1.000  H
  H66      1.0000 0.43520  0.52360  0.38950  Biso   1.000  H
  H67      1.0000 0.06480  0.02360  0.11050  Biso   1.000  H
  H68      1.0000 0.93520  0.02360  0.38950  Biso   1.000  H
  H69      1.0000 0.43520  0.47640  0.88950  Biso   1.000  H
  H70      1.0000 0.56480  0.47640  0.61050  Biso   1.000  H
  H71      1.0000 0.93520  0.97640  0.88950  Biso   1.000  H
  H72      1.0000 0.06480  0.97640  0.61050  Biso   1.000  H
  C65      1.0000 0.46380  0.61550  0.05850  Biso   1.000  C
  C66      1.0000 0.53620  0.61550  0.44150  Biso   1.000  C
  C67      1.0000 0.96380  0.11550  0.05850  Biso   1.000  C
  C68      1.0000 0.03620  0.11550  0.44150  Biso   1.000  C
  C69      1.0000 0.53620  0.38450  0.94150  Biso   1.000  C
  C70      1.0000 0.46380  0.38450  0.55850  Biso   1.000  C
  C71      1.0000 0.03620  0.88450  0.94150  Biso   1.000  C
  C72      1.0000 0.96380  0.88450  0.55850  Biso   1.000  C
  H73      1.0000 0.48180  0.65500  0.01960  Biso   1.000  H
  H74      1.0000 0.51820  0.65500  0.48040  Biso   1.000  H
  H75      1.0000 0.98180  0.15500  0.01960  Biso   1.000  H
  H76      1.0000 0.01820  0.15500  0.48040  Biso   1.000  H
  H77      1.0000 0.51820  0.34500  0.98040  Biso   1.000  H
  H78      1.0000 0.48180  0.34500  0.51960  Biso   1.000  H
  H79      1.0000 0.01820  0.84500  0.98040  Biso   1.000  H
  H80      1.0000 0.98180  0.84500  0.51960  Biso   1.000  H
  C73      1.0000 0.31650  0.68660  0.03720  Biso   1.000  C
  C74      1.0000 0.68350  0.68660  0.46280  Biso   1.000  C
  C75      1.0000 0.81650  0.18660  0.03720  Biso   1.000  C
  C76      1.0000 0.18350  0.18660  0.46280  Biso   1.000  C
  C77      1.0000 0.68350  0.31340  0.96280  Biso   1.000  C
  C78      1.0000 0.31650  0.31340  0.53720  Biso   1.000  C
  C79      1.0000 0.18350  0.81340  0.96280  Biso   1.000  C
  C80      1.0000 0.81650  0.81340  0.53720  Biso   1.000  C
  C81      1.0000 0.29410  0.71040  0.94610  Biso   1.000  C
  C82      1.0000 0.70590  0.71040  0.55390  Biso   1.000  C
  C83      1.0000 0.79410  0.21040  0.94610  Biso   1.000  C
  C84      1.0000 0.20590  0.21040  0.55390  Biso   1.000  C
  C85      1.0000 0.70590  0.28960  0.05390  Biso   1.000  C
  C86      1.0000 0.29410  0.28960  0.44610  Biso   1.000  C
  C87      1.0000 0.20590  0.78960  0.05390  Biso   1.000  C
  C88      1.0000 0.79410  0.78960  0.44610  Biso   1.000  C
  H81      1.0000 0.32410  0.68360  0.90990  Biso   1.000  H
  H82      1.0000 0.67590  0.68360  0.59010  Biso   1.000  H
  H83      1.0000 0.82410  0.18360  0.90990  Biso   1.000  H
  H84      1.0000 0.17590  0.18360  0.59010  Biso   1.000  H
  H85      1.0000 0.67590  0.31640  0.09010  Biso   1.000  H
  H86      1.0000 0.32410  0.31640  0.40990  Biso   1.000  H
  H87      1.0000 0.17590  0.81640  0.09010  Biso   1.000  H
  H88      1.0000 0.82410  0.81640  0.40990  Biso   1.000  H
  C89      1.0000 0.27330  0.72560  0.09170  Biso   1.000  C
  C90      1.0000 0.72670  0.72560  0.40830  Biso   1.000  C
  C91      1.0000 0.77330  0.22560  0.09170  Biso   1.000  C
  C92      1.0000 0.22670  0.22560  0.40830  Biso   1.000  C
  C93      1.0000 0.72670  0.27440  0.90830  Biso   1.000  C
  C94      1.0000 0.27330  0.27440  0.59170  Biso   1.000  C
  C95      1.0000 0.22670  0.77440  0.90830  Biso   1.000  C
  C96      1.0000 0.77330  0.77440  0.59170  Biso   1.000  C
  H89      1.0000 0.28910  0.70930  0.15340  Biso   1.000  H
  H90      1.0000 0.71090  0.70930  0.34660  Biso   1.000  H
  H91      1.0000 0.78910  0.20930  0.15340  Biso   1.000  H
  H92      1.0000 0.21090  0.20930  0.34660  Biso   1.000  H
  H93      1.0000 0.71090  0.29070  0.84660  Biso   1.000  H
  H94      1.0000 0.28910  0.29070  0.65340  Biso   1.000  H
  H95      1.0000 0.21090  0.79070  0.84660  Biso   1.000  H
  H96      1.0000 0.78910  0.79070  0.65340  Biso   1.000  H
  Cl1      1.0000 0.27719  0.08993  0.18178  Biso   1.000  Cl
  Cl2      1.0000 0.72281  0.08993  0.31822  Biso   1.000  Cl
  Cl3      1.0000 0.77719  0.58993  0.18178  Biso   1.000  Cl
  Cl4      1.0000 0.22281  0.58993  0.31822  Biso   1.000  Cl
  Cl5      1.0000 0.72281  0.91007  0.81822  Biso   1.000  Cl
  Cl6      1.0000 0.27719  0.91007  0.68178  Biso   1.000  Cl
  Cl7      1.0000 0.22281  0.41007  0.81822  Biso   1.000  Cl
  Cl8      1.0000 0.77719  0.41007  0.68178  Biso   1.000  Cl
  O9       1.0000 0.36700  0.08760  0.19680  Biso   1.000  O
  O10      1.0000 0.63300  0.08760  0.30320  Biso   1.000  O
  O11      1.0000 0.86700  0.58760  0.19680  Biso   1.000  O
  O12      1.0000 0.13300  0.58760  0.30320  Biso   1.000  O
  O13      1.0000 0.63300  0.91240  0.80320  Biso   1.000  O
  O14      1.0000 0.36700  0.91240  0.69680  Biso   1.000  O
  O15      1.0000 0.13300  0.41240  0.80320  Biso   1.000  O
  O16      1.0000 0.86700  0.41240  0.69680  Biso   1.000  O
  O17      1.0000 0.25850  0.04160  0.25210  Biso   1.000  O
  O18      1.0000 0.74150  0.04160  0.24790  Biso   1.000  O
  O19      1.0000 0.75850  0.54160  0.25210  Biso   1.000  O
  O20      1.0000 0.24150  0.54160  0.24790  Biso   1.000  O
  O21      1.0000 0.74150  0.95840  0.74790  Biso   1.000  O
  O22      1.0000 0.25850  0.95840  0.75210  Biso   1.000  O
  O23      1.0000 0.24150  0.45840  0.74790  Biso   1.000  O
  O24      1.0000 0.75850  0.45840  0.75210  Biso   1.000  O
  O25      1.0000 0.25540  0.18930  0.18920  Biso   1.000  O
  O26      1.0000 0.74460  0.18930  0.31080  Biso   1.000  O
  O27      1.0000 0.75540  0.68930  0.18920  Biso   1.000  O
  O28      1.0000 0.24460  0.68930  0.31080  Biso   1.000  O
  O29      1.0000 0.74460  0.81070  0.81080  Biso   1.000  O
  O30      1.0000 0.25540  0.81070  0.68920  Biso   1.000  O
  O31      1.0000 0.24460  0.31070  0.81080  Biso   1.000  O
  O32      1.0000 0.75540  0.31070  0.68920  Biso   1.000  O
  O33      1.0000 0.22950  0.05350  0.09450  Biso   1.000  O
  O34      1.0000 0.77050  0.05350  0.40550  Biso   1.000  O
  O35      1.0000 0.72950  0.55350  0.09450  Biso   1.000  O
  O36      1.0000 0.27050  0.55350  0.40550  Biso   1.000  O
  O37      1.0000 0.77050  0.94650  0.90550  Biso   1.000  O
  O38      1.0000 0.22950  0.94650  0.59450  Biso   1.000  O
  O39      1.0000 0.27050  0.44650  0.90550  Biso   1.000  O
  O40      1.0000 0.72950  0.44650  0.59450  Biso   1.000  O
  O41      1.0000 0.47270  0.84950  0.28500  Biso   1.000  O
  O42      1.0000 0.52730  0.84950  0.21500  Biso   1.000  O
  O43      1.0000 0.97270  0.34950  0.28500  Biso   1.000  O
  O44      1.0000 0.02730  0.34950  0.21500  Biso   1.000  O
  O45      1.0000 0.52730  0.15050  0.71500  Biso   1.000  O
  O46      1.0000 0.47270  0.15050  0.78500  Biso   1.000  O
  O47      1.0000 0.02730  0.65050  0.71500  Biso   1.000  O
  O48      1.0000 0.97270  0.65050  0.78500  Biso   1.000  O
  H97      1.0000 0.52500  0.86710  0.29300  Biso   1.000  H
  H98      1.0000 0.47500  0.86710  0.20700  Biso   1.000  H
  H99      1.0000 0.02500  0.36710  0.29300  Biso   1.000  H
  H100     1.0000 0.97500  0.36710  0.20700  Biso   1.000  H
  H101     1.0000 0.47500  0.13290  0.70700  Biso   1.000  H
  H102     1.0000 0.52500  0.13290  0.79300  Biso   1.000  H
  H103     1.0000 0.97500  0.63290  0.70700  Biso   1.000  H
  H104     1.0000 0.02500  0.63290  0.79300  Biso   1.000  H
  H105     1.0000 0.42120  0.86190  0.28520  Biso   1.000  H
  H106     1.0000 0.57880  0.86190  0.21480  Biso   1.000  H
  H107     1.0000 0.92120  0.36190  0.28520  Biso   1.000  H
  H108     1.0000 0.07880  0.36190  0.21480  Biso   1.000  H
  H109     1.0000 0.57880  0.13810  0.71480  Biso   1.000  H
  H110     1.0000 0.42120  0.13810  0.78520  Biso   1.000  H
  H111     1.0000 0.07880  0.63810  0.71480  Biso   1.000  H
  H112     1.0000 0.92120  0.63810  0.78520  Biso   1.000  H
