data_image0
_cell_length_a       10.439
_cell_length_b       16.863
_cell_length_c       11.302
_cell_angle_alpha    90
_cell_angle_beta     107.84
_cell_angle_gamma    90

_symmetry_space_group_name_H-M    "P 1"
_symmetry_int_tables_number       1

loop_
  _symmetry_equiv_pos_as_xyz
  'x, y, z'

loop_
  _atom_site_label
  _atom_site_occupancy
  _atom_site_fract_x
  _atom_site_fract_y
  _atom_site_fract_z
  _atom_site_thermal_displace_type
  _atom_site_B_iso_or_equiv
  _atom_site_type_symbol
  Cu1      1.0000 0.24846  0.84799  0.02346  Biso   1.000  Cu
  Cu2      1.0000 0.75154  0.34799  0.97654  Biso   1.000  Cu
  N1       1.0000 0.34740  0.82600  0.20420  Biso   1.000  N
  N2       1.0000 0.65260  0.32600  0.79580  Biso   1.000  N
  N3       1.0000 0.41860  0.83200  0.97510  Biso   1.000  N
  N4       1.0000 0.58140  0.33200  0.02490  Biso   1.000  N
  N5       1.0000 0.07440  0.84250  0.06950  Biso   1.000  N
  N6       1.0000 0.92560  0.34250  0.93050  Biso   1.000  N
  N7       1.0000 0.14450  0.84360  0.84070  Biso   1.000  N
  N8       1.0000 0.85550  0.34360  0.15930  Biso   1.000  N
  C1       1.0000 0.33310  0.87490  0.29340  Biso   1.000  C
  C2       1.0000 0.66690  0.37490  0.70660  Biso   1.000  C
  H1       1.0000 0.28090  0.92170  0.26880  Biso   1.000  H
  H2       1.0000 0.71910  0.42170  0.73120  Biso   1.000  H
  C3       1.0000 0.39020  0.86070  0.41790  Biso   1.000  C
  C4       1.0000 0.60980  0.36070  0.58210  Biso   1.000  C
  H3       1.0000 0.37710  0.89700  0.47740  Biso   1.000  H
  H4       1.0000 0.62290  0.39700  0.52260  Biso   1.000  H
  C5       1.0000 0.46780  0.79230  0.45710  Biso   1.000  C
  C6       1.0000 0.53220  0.29230  0.54290  Biso   1.000  C
  C7       1.0000 0.48390  0.74280  0.36430  Biso   1.000  C
  C8       1.0000 0.51610  0.24280  0.63570  Biso   1.000  C
  H5       1.0000 0.53750  0.69630  0.38610  Biso   1.000  H
  H6       1.0000 0.46250  0.19630  0.61390  Biso   1.000  H
  C9       1.0000 0.42310  0.76060  0.24190  Biso   1.000  C
  C10      1.0000 0.57690  0.26060  0.75810  Biso   1.000  C
  H7       1.0000 0.43470  0.72530  0.18050  Biso   1.000  H
  H8       1.0000 0.56530  0.22530  0.81950  Biso   1.000  H
  C11      1.0000 0.53170  0.77420  0.59240  Biso   1.000  C
  C12      1.0000 0.46830  0.27420  0.40760  Biso   1.000  C
  H9       1.0000 0.56410  0.71860  0.60110  Biso   1.000  H
  H10      1.0000 0.43590  0.21860  0.39890  Biso   1.000  H
  H11      1.0000 0.46300  0.77900  0.63590  Biso   1.000  H
  H12      1.0000 0.53700  0.27900  0.36410  Biso   1.000  H
  C13      1.0000 0.64820  0.82850  0.65400  Biso   1.000  C
  C14      1.0000 0.35180  0.32850  0.34600  Biso   1.000  C
  H13      1.0000 0.61490  0.88370  0.64890  Biso   1.000  H
  H14      1.0000 0.38510  0.38370  0.35110  Biso   1.000  H
  H15      1.0000 0.71480  0.82570  0.60780  Biso   1.000  H
  H16      1.0000 0.28520  0.32570  0.39220  Biso   1.000  H
  C15      1.0000 0.62150  0.81480  0.86480  Biso   1.000  C
  C16      1.0000 0.37850  0.31480  0.13520  Biso   1.000  C
  C17      1.0000 0.71890  0.80740  0.79170  Biso   1.000  C
  C18      1.0000 0.28110  0.30740  0.20830  Biso   1.000  C
  H17      1.0000 0.75390  0.75250  0.79780  Biso   1.000  H
  H18      1.0000 0.24610  0.25250  0.20220  Biso   1.000  H
  H19      1.0000 0.79590  0.84360  0.82640  Biso   1.000  H
  H20      1.0000 0.20410  0.34360  0.17360  Biso   1.000  H
  C19      1.0000 0.55260  0.74980  0.88780  Biso   1.000  C
  C20      1.0000 0.44740  0.24980  0.11220  Biso   1.000  C
  H21      1.0000 0.57520  0.69800  0.86760  Biso   1.000  H
  H22      1.0000 0.42480  0.19800  0.13240  Biso   1.000  H
  C21      1.0000 0.45040  0.76020  0.94030  Biso   1.000  C
  C22      1.0000 0.54960  0.26020  0.05970  Biso   1.000  C
  H23      1.0000 0.40100  0.71520  0.95230  Biso   1.000  H
  H24      1.0000 0.59900  0.21520  0.04770  Biso   1.000  H
  C23      1.0000 0.49030  0.89480  0.95960  Biso   1.000  C
  C24      1.0000 0.50970  0.39480  0.04040  Biso   1.000  C
  H25      1.0000 0.47130  0.94530  0.98750  Biso   1.000  H
  H26      1.0000 0.52870  0.44530  0.01250  Biso   1.000  H
  C25      1.0000 0.59120  0.88850  0.90430  Biso   1.000  C
  C26      1.0000 0.40880  0.38850  0.09570  Biso   1.000  C
  H27      1.0000 0.63950  0.93430  0.89340  Biso   1.000  H
  H28      1.0000 0.36050  0.43430  0.10660  Biso   1.000  H
  C27      1.0000 0.03690  0.77560  0.11360  Biso   1.000  C
  C28      1.0000 0.96310  0.27560  0.88640  Biso   1.000  C
  H29      1.0000 0.08340  0.72780  0.10910  Biso   1.000  H
  H30      1.0000 0.91660  0.22780  0.89090  Biso   1.000  H
  C29      1.0000 0.93360  0.77340  0.16520  Biso   1.000  C
  C30      1.0000 0.06640  0.27340  0.83480  Biso   1.000  C
  H31      1.0000 0.90810  0.72440  0.19280  Biso   1.000  H
  H32      1.0000 0.09190  0.22440  0.80720  Biso   1.000  H
  C31      1.0000 0.86650  0.84220  0.17730  Biso   1.000  C
  C32      1.0000 0.13350  0.34220  0.82270  Biso   1.000  C
  C33      1.0000 0.90190  0.91070  0.12730  Biso   1.000  C
  C34      1.0000 0.09810  0.41070  0.87270  Biso   1.000  C
  H33      1.0000 0.85560  0.95890  0.12980  Biso   1.000  H
  H34      1.0000 0.14440  0.45890  0.87020  Biso   1.000  H
  C35      1.0000 0.00430  0.90920  0.07390  Biso   1.000  C
  C36      1.0000 0.99570  0.40920  0.92610  Biso   1.000  C
  H35      1.0000 0.02630  0.95660  0.03910  Biso   1.000  H
  H36      1.0000 0.97370  0.45660  0.96090  Biso   1.000  H
  C37      1.0000 0.76600  0.84390  0.24880  Biso   1.000  C
  C38      1.0000 0.23400  0.34390  0.75120  Biso   1.000  C
  H37      1.0000 0.72320  0.79120  0.24470  Biso   1.000  H
  H38      1.0000 0.27680  0.29120  0.75530  Biso   1.000  H
  H39      1.0000 0.69480  0.88320  0.21120  Biso   1.000  H
  H40      1.0000 0.30520  0.38320  0.78880  Biso   1.000  H
  C39      1.0000 0.83880  0.86640  0.38790  Biso   1.000  C
  C40      1.0000 0.16120  0.36640  0.61210  Biso   1.000  C
  H41      1.0000 0.88330  0.91860  0.39140  Biso   1.000  H
  H42      1.0000 0.11670  0.41860  0.60860  Biso   1.000  H
  H43      1.0000 0.77140  0.87100  0.43290  Biso   1.000  H
  H44      1.0000 0.22860  0.37100  0.56710  Biso   1.000  H
  C41      1.0000 0.94030  0.80620  0.44940  Biso   1.000  C
  C42      1.0000 0.05970  0.30620  0.55060  Biso   1.000  C
  H45      1.0000 0.00960  0.80410  0.40620  Biso   1.000  H
  H46      1.0000 0.99040  0.30410  0.59380  Biso   1.000  H
  H47      1.0000 0.89600  0.75370  0.43990  Biso   1.000  H
  H48      1.0000 0.10400  0.25370  0.56010  Biso   1.000  H
  C43      1.0000 0.01000  0.82160  0.58810  Biso   1.000  C
  C44      1.0000 0.99000  0.32160  0.41190  Biso   1.000  C
  C45      1.0000 0.10130  0.88450  0.62940  Biso   1.000  C
  C46      1.0000 0.89870  0.38450  0.37060  Biso   1.000  C
  H49      1.0000 0.11830  0.92060  0.57140  Biso   1.000  H
  H50      1.0000 0.88170  0.42060  0.42860  Biso   1.000  H
  C47      1.0000 0.16610  0.89330  0.75540  Biso   1.000  C
  C48      1.0000 0.83390  0.39330  0.24460  Biso   1.000  C
  H51      1.0000 0.22780  0.93580  0.78270  Biso   1.000  H
  H52      1.0000 0.77220  0.43580  0.21730  Biso   1.000  H
  C49      1.0000 0.05450  0.78560  0.79870  Biso   1.000  C
  C50      1.0000 0.94550  0.28560  0.20130  Biso   1.000  C
  H53      1.0000 0.03650  0.75100  0.85800  Biso   1.000  H
  H54      1.0000 0.96350  0.25100  0.14200  Biso   1.000  H
  C51      1.0000 0.98640  0.77290  0.67500  Biso   1.000  C
  C52      1.0000 0.01360  0.27290  0.32500  Biso   1.000  C
  H55      1.0000 0.92360  0.73070  0.65070  Biso   1.000  H
  H56      1.0000 0.07640  0.23070  0.34930  Biso   1.000  H
  O1       1.0000 0.26740  0.97622  0.03390  Biso   1.000  O
  O2       1.0000 0.73260  0.47622  0.96610  Biso   1.000  O
  H57      1.0000 0.19050  0.99380  0.01240  Biso   1.000  H
  H58      1.0000 0.80950  0.49380  0.98760  Biso   1.000  H
  H59      1.0000 0.30840  0.99950  0.09800  Biso   1.000  H
  H60      1.0000 0.69160  0.49950  0.90200  Biso   1.000  H
  O3       1.0000 0.57770  0.04665  0.68620  Biso   1.000  O
  O4       1.0000 0.42230  0.54665  0.31380  Biso   1.000  O
  O5       1.0000 0.79140  0.06800  0.79360  Biso   1.000  O
  O6       1.0000 0.20860  0.56800  0.20640  Biso   1.000  O
  O7       1.0000 0.44830  0.04660  0.21810  Biso   1.000  O
  O8       1.0000 0.55170  0.54660  0.78190  Biso   1.000  O
  O9       1.0000 0.60820  0.05800  0.12650  Biso   1.000  O
  O10      1.0000 0.39180  0.55800  0.87350  Biso   1.000  O
  C53      1.0000 0.69800  0.06110  0.69260  Biso   1.000  C
  C54      1.0000 0.30200  0.56110  0.30740  Biso   1.000  C
  C55      1.0000 0.73370  0.07160  0.57270  Biso   1.000  C
  C56      1.0000 0.26630  0.57160  0.42730  Biso   1.000  C
  C57      1.0000 0.86240  0.09500  0.57690  Biso   1.000  C
  C58      1.0000 0.13760  0.59500  0.42310  Biso   1.000  C
  H61      1.0000 0.92770  0.10470  0.65500  Biso   1.000  H
  H62      1.0000 0.07230  0.60470  0.34500  Biso   1.000  H
  C59      1.0000 0.89680  0.10440  0.46910  Biso   1.000  C
  C60      1.0000 0.10320  0.60440  0.53090  Biso   1.000  C
  H63      1.0000 0.98580  0.11940  0.47330  Biso   1.000  H
  H64      1.0000 0.01420  0.61940  0.52670  Biso   1.000  H
  C61      1.0000 0.80080  0.09180  0.35450  Biso   1.000  C
  C62      1.0000 0.19920  0.59180  0.64550  Biso   1.000  C
  H65      1.0000 0.82460  0.09890  0.28050  Biso   1.000  H
  H66      1.0000 0.17540  0.59890  0.71950  Biso   1.000  H
  C63      1.0000 0.67200  0.06910  0.34650  Biso   1.000  C
  C64      1.0000 0.32800  0.56910  0.65350  Biso   1.000  C
  C65      1.0000 0.63820  0.05850  0.45670  Biso   1.000  C
  C66      1.0000 0.36180  0.55850  0.54330  Biso   1.000  C
  H67      1.0000 0.54970  0.04240  0.45240  Biso   1.000  H
  H68      1.0000 0.45030  0.54240  0.54760  Biso   1.000  H
  C67      1.0000 0.56880  0.05630  0.22180  Biso   1.000  C
  C68      1.0000 0.43120  0.55630  0.77820  Biso   1.000  C
  O11      1.0000 0.47080  0.09680  0.87440  Biso   1.000  O
  O12      1.0000 0.52920  0.59680  0.12560  Biso   1.000  O
  H69      1.0000 0.50750  0.08010  0.82490  Biso   1.000  H
  H70      1.0000 0.49250  0.58010  0.17510  Biso   1.000  H
  H71      1.0000 0.51550  0.08330  0.94460  Biso   1.000  H
  H72      1.0000 0.48450  0.58330  0.05540  Biso   1.000  H
  O13      1.0000 0.29930  0.02920  0.56220  Biso   1.000  O
  O14      1.0000 0.70070  0.52920  0.43780  Biso   1.000  O
  H73      1.0000 0.38120  0.03160  0.59420  Biso   1.000  H
  H74      1.0000 0.61880  0.53160  0.40580  Biso   1.000  H
  H75      1.0000 0.28160  0.04760  0.49190  Biso   1.000  H
  H76      1.0000 0.71840  0.54760  0.50810  Biso   1.000  H
  O15      1.0000 0.20970  0.11370  0.73330  Biso   1.000  O
  O16      1.0000 0.79030  0.61370  0.26670  Biso   1.000  O
  H77      1.0000 0.28920  0.10930  0.77420  Biso   1.000  H
  H78      1.0000 0.71080  0.60930  0.22580  Biso   1.000  H
  H79      1.0000 0.19940  0.10980  0.65860  Biso   1.000  H
  H80      1.0000 0.80060  0.60980  0.34140  Biso   1.000  H
  O17      1.0000 0.06600  0.06600  0.88320  Biso   1.000  O
  O18      1.0000 0.93400  0.56600  0.11680  Biso   1.000  O
  H81      1.0000 0.11870  0.08440  0.84950  Biso   1.000  H
  H82      1.0000 0.88130  0.58440  0.15050  Biso   1.000  H
  H83      1.0000 0.98870  0.08210  0.85350  Biso   1.000  H
  H84      1.0000 0.01130  0.58210  0.14650  Biso   1.000  H
  O19      1.0000 0.26240  0.09170  0.33270  Biso   1.000  O
  O20      1.0000 0.73760  0.59170  0.66730  Biso   1.000  O
  H85      1.0000 0.33100  0.08590  0.31270  Biso   1.000  H
  H86      1.0000 0.66900  0.58590  0.68730  Biso   1.000  H
  H87      1.0000 0.19820  0.09120  0.26900  Biso   1.000  H
  H88      1.0000 0.80180  0.59120  0.73100  Biso   1.000  H
  O21      1.0000 0.79120  0.12410  0.02050  Biso   1.000  O
  O22      1.0000 0.20880  0.62410  0.97950  Biso   1.000  O
  H89      1.0000 0.73510  0.10230  0.04690  Biso   1.000  H
  H90      1.0000 0.26490  0.60230  0.95310  Biso   1.000  H
  H91      1.0000 0.78640  0.10490  0.95260  Biso   1.000  H
  H92      1.0000 0.21360  0.60490  0.04740  Biso   1.000  H
  O23      1.0000 0.06290  0.12310  0.11690  Biso   1.000  O
  O24      1.0000 0.93710  0.62310  0.88310  Biso   1.000  O
  H93      1.0000 0.98220  0.11980  0.10800  Biso   1.000  H
  H94      1.0000 0.01780  0.61980  0.89200  Biso   1.000  H
  H95      1.0000 0.08070  0.11200  0.05300  Biso   1.000  H
  H96      1.0000 0.91930  0.61200  0.94700  Biso   1.000  H
