data_image0
_cell_length_a       18.586
_cell_length_b       18.586
_cell_length_c       38.461
_cell_angle_alpha    90
_cell_angle_beta     90
_cell_angle_gamma    120

_symmetry_space_group_name_H-M    "P 1"
_symmetry_int_tables_number       1

loop_
  _symmetry_equiv_pos_as_xyz
  'x, y, z'

loop_
  _atom_site_label
  _atom_site_occupancy
  _atom_site_fract_x
  _atom_site_fract_y
  _atom_site_fract_z
  _atom_site_thermal_displace_type
  _atom_site_B_iso_or_equiv
  _atom_site_type_symbol
  C1       1.0000 0.09260  0.45240  0.97293  Biso   1.000  C
  C2       1.0000 0.54760  0.64020  0.97293  Biso   1.000  C
  C3       1.0000 0.35980  0.90740  0.97293  Biso   1.000  C
  C4       1.0000 0.64020  0.54760  0.02707  Biso   1.000  C
  C5       1.0000 0.90740  0.35980  0.02707  Biso   1.000  C
  C6       1.0000 0.45240  0.09260  0.02707  Biso   1.000  C
  C7       1.0000 0.75927  0.78573  0.30626  Biso   1.000  C
  C8       1.0000 0.21427  0.97353  0.30626  Biso   1.000  C
  C9       1.0000 0.02647  0.24073  0.30626  Biso   1.000  C
  C10      1.0000 0.30687  0.88093  0.36040  Biso   1.000  C
  C11      1.0000 0.57407  0.69313  0.36040  Biso   1.000  C
  C12      1.0000 0.11907  0.42593  0.36040  Biso   1.000  C
  C13      1.0000 0.42593  0.11907  0.63960  Biso   1.000  C
  C14      1.0000 0.88093  0.30687  0.63960  Biso   1.000  C
  C15      1.0000 0.69313  0.57407  0.63960  Biso   1.000  C
  C16      1.0000 0.97353  0.21427  0.69374  Biso   1.000  C
  C17      1.0000 0.24073  0.02647  0.69374  Biso   1.000  C
  C18      1.0000 0.78573  0.75927  0.69374  Biso   1.000  C
  C19      1.0000 0.90740  0.54760  0.02707  Biso   1.000  C
  C20      1.0000 0.45240  0.35980  0.02707  Biso   1.000  C
  C21      1.0000 0.64020  0.09260  0.02707  Biso   1.000  C
  C22      1.0000 0.35980  0.45240  0.97293  Biso   1.000  C
  C23      1.0000 0.09260  0.64020  0.97293  Biso   1.000  C
  C24      1.0000 0.54760  0.90740  0.97293  Biso   1.000  C
  C25      1.0000 0.57407  0.88093  0.36040  Biso   1.000  C
  C26      1.0000 0.11907  0.69313  0.36040  Biso   1.000  C
  C27      1.0000 0.30687  0.42593  0.36040  Biso   1.000  C
  C28      1.0000 0.02647  0.78573  0.30626  Biso   1.000  C
  C29      1.0000 0.75927  0.97353  0.30626  Biso   1.000  C
  C30      1.0000 0.21427  0.24073  0.30626  Biso   1.000  C
  C31      1.0000 0.24073  0.21427  0.69374  Biso   1.000  C
  C32      1.0000 0.78573  0.02647  0.69374  Biso   1.000  C
  C33      1.0000 0.97353  0.75927  0.69374  Biso   1.000  C
  C34      1.0000 0.69313  0.11907  0.63960  Biso   1.000  C
  C35      1.0000 0.42593  0.30687  0.63960  Biso   1.000  C
  C36      1.0000 0.88093  0.57407  0.63960  Biso   1.000  C
  C37      1.0000 0.15080  0.43120  0.95598  Biso   1.000  C
  C38      1.0000 0.56880  0.71960  0.95598  Biso   1.000  C
  C39      1.0000 0.28040  0.84920  0.95598  Biso   1.000  C
  C40      1.0000 0.71960  0.56880  0.04402  Biso   1.000  C
  C41      1.0000 0.84920  0.28040  0.04402  Biso   1.000  C
  C42      1.0000 0.43120  0.15080  0.04402  Biso   1.000  C
  C43      1.0000 0.81747  0.76453  0.28931  Biso   1.000  C
  C44      1.0000 0.23547  0.05293  0.28931  Biso   1.000  C
  C45      1.0000 0.94707  0.18253  0.28931  Biso   1.000  C
  C46      1.0000 0.38627  0.90213  0.37735  Biso   1.000  C
  C47      1.0000 0.51587  0.61373  0.37735  Biso   1.000  C
  C48      1.0000 0.09787  0.48413  0.37735  Biso   1.000  C
  C49      1.0000 0.48413  0.09787  0.62265  Biso   1.000  C
  C50      1.0000 0.90213  0.38627  0.62265  Biso   1.000  C
  C51      1.0000 0.61373  0.51587  0.62265  Biso   1.000  C
  C52      1.0000 0.05293  0.23547  0.71069  Biso   1.000  C
  C53      1.0000 0.18253  0.94707  0.71069  Biso   1.000  C
  C54      1.0000 0.76453  0.81747  0.71069  Biso   1.000  C
  C55      1.0000 0.84920  0.56880  0.04402  Biso   1.000  C
  C56      1.0000 0.43120  0.28040  0.04402  Biso   1.000  C
  C57      1.0000 0.71960  0.15080  0.04402  Biso   1.000  C
  C58      1.0000 0.28040  0.43120  0.95598  Biso   1.000  C
  C59      1.0000 0.15080  0.71960  0.95598  Biso   1.000  C
  C60      1.0000 0.56880  0.84920  0.95598  Biso   1.000  C
  C61      1.0000 0.51587  0.90213  0.37735  Biso   1.000  C
  C62      1.0000 0.09787  0.61373  0.37735  Biso   1.000  C
  C63      1.0000 0.38627  0.48413  0.37735  Biso   1.000  C
  C64      1.0000 0.94707  0.76453  0.28931  Biso   1.000  C
  C65      1.0000 0.81747  0.05293  0.28931  Biso   1.000  C
  C66      1.0000 0.23547  0.18253  0.28931  Biso   1.000  C
  C67      1.0000 0.18253  0.23547  0.71069  Biso   1.000  C
  C68      1.0000 0.76453  0.94707  0.71069  Biso   1.000  C
  C69      1.0000 0.05293  0.81747  0.71069  Biso   1.000  C
  C70      1.0000 0.61373  0.09787  0.62265  Biso   1.000  C
  C71      1.0000 0.48413  0.38627  0.62265  Biso   1.000  C
  C72      1.0000 0.90213  0.51587  0.62265  Biso   1.000  C
  C73      1.0000 0.22310  0.44620  0.97312  Biso   1.000  C
  C74      1.0000 0.55380  0.77690  0.97312  Biso   1.000  C
  C75      1.0000 0.22310  0.77690  0.97312  Biso   1.000  C
  C76      1.0000 0.77690  0.55380  0.02688  Biso   1.000  C
  C77      1.0000 0.77690  0.22310  0.02688  Biso   1.000  C
  C78      1.0000 0.44620  0.22310  0.02688  Biso   1.000  C
  C79      1.0000 0.88977  0.77953  0.30645  Biso   1.000  C
  C80      1.0000 0.22047  0.11023  0.30645  Biso   1.000  C
  C81      1.0000 0.88977  0.11023  0.30645  Biso   1.000  C
  C82      1.0000 0.44357  0.88713  0.36021  Biso   1.000  C
  C83      1.0000 0.44357  0.55643  0.36021  Biso   1.000  C
  C84      1.0000 0.11287  0.55643  0.36021  Biso   1.000  C
  C85      1.0000 0.55643  0.11287  0.63979  Biso   1.000  C
  C86      1.0000 0.88713  0.44357  0.63979  Biso   1.000  C
  C87      1.0000 0.55643  0.44357  0.63979  Biso   1.000  C
  C88      1.0000 0.11023  0.22047  0.69355  Biso   1.000  C
  C89      1.0000 0.11023  0.88977  0.69355  Biso   1.000  C
  C90      1.0000 0.77953  0.88977  0.69355  Biso   1.000  C
  H1       1.0000 0.23330  0.46650  0.99630  Biso   1.000  H
  H2       1.0000 0.53350  0.76680  0.99630  Biso   1.000  H
  H3       1.0000 0.23320  0.76670  0.99630  Biso   1.000  H
  H4       1.0000 0.76680  0.53350  0.00370  Biso   1.000  H
  H5       1.0000 0.76670  0.23320  0.00370  Biso   1.000  H
  H6       1.0000 0.46650  0.23330  0.00370  Biso   1.000  H
  H7       1.0000 0.89997  0.79983  0.32963  Biso   1.000  H
  H8       1.0000 0.20017  0.10013  0.32963  Biso   1.000  H
  H9       1.0000 0.89987  0.10003  0.32963  Biso   1.000  H
  H10      1.0000 0.43347  0.86683  0.33703  Biso   1.000  H
  H11      1.0000 0.43337  0.56653  0.33703  Biso   1.000  H
  H12      1.0000 0.13317  0.56663  0.33703  Biso   1.000  H
  H13      1.0000 0.56663  0.13317  0.66297  Biso   1.000  H
  H14      1.0000 0.86683  0.43347  0.66297  Biso   1.000  H
  H15      1.0000 0.56653  0.43337  0.66297  Biso   1.000  H
  H16      1.0000 0.10013  0.20017  0.67037  Biso   1.000  H
  H17      1.0000 0.10003  0.89987  0.67037  Biso   1.000  H
  H18      1.0000 0.79983  0.89997  0.67037  Biso   1.000  H
  C91      1.0000 0.13630  0.40180  0.92226  Biso   1.000  C
  C92      1.0000 0.59820  0.73450  0.92226  Biso   1.000  C
  C93      1.0000 0.26550  0.86370  0.92226  Biso   1.000  C
  C94      1.0000 0.73450  0.59820  0.07774  Biso   1.000  C
  C95      1.0000 0.86370  0.26550  0.07774  Biso   1.000  C
  C96      1.0000 0.40180  0.13630  0.07774  Biso   1.000  C
  C97      1.0000 0.80297  0.73513  0.25559  Biso   1.000  C
  C98      1.0000 0.26487  0.06783  0.25559  Biso   1.000  C
  C99      1.0000 0.93217  0.19703  0.25559  Biso   1.000  C
  C100     1.0000 0.40117  0.93153  0.41107  Biso   1.000  C
  C101     1.0000 0.53037  0.59883  0.41107  Biso   1.000  C
  C102     1.0000 0.06847  0.46963  0.41107  Biso   1.000  C
  C103     1.0000 0.46963  0.06847  0.58893  Biso   1.000  C
  C104     1.0000 0.93153  0.40117  0.58893  Biso   1.000  C
  C105     1.0000 0.59883  0.53037  0.58893  Biso   1.000  C
  C106     1.0000 0.06783  0.26487  0.74441  Biso   1.000  C
  C107     1.0000 0.19703  0.93217  0.74441  Biso   1.000  C
  C108     1.0000 0.73513  0.80297  0.74441  Biso   1.000  C
  C109     1.0000 0.86370  0.59820  0.07774  Biso   1.000  C
  C110     1.0000 0.40180  0.26550  0.07774  Biso   1.000  C
  C111     1.0000 0.73450  0.13630  0.07774  Biso   1.000  C
  C112     1.0000 0.26550  0.40180  0.92226  Biso   1.000  C
  C113     1.0000 0.13630  0.73450  0.92226  Biso   1.000  C
  C114     1.0000 0.59820  0.86370  0.92226  Biso   1.000  C
  C115     1.0000 0.53037  0.93153  0.41107  Biso   1.000  C
  C116     1.0000 0.06847  0.59883  0.41107  Biso   1.000  C
  C117     1.0000 0.40117  0.46963  0.41107  Biso   1.000  C
  C118     1.0000 0.93217  0.73513  0.25559  Biso   1.000  C
  C119     1.0000 0.80297  0.06783  0.25559  Biso   1.000  C
  C120     1.0000 0.26487  0.19703  0.25559  Biso   1.000  C
  C121     1.0000 0.19703  0.26487  0.74441  Biso   1.000  C
  C122     1.0000 0.73513  0.93217  0.74441  Biso   1.000  C
  C123     1.0000 0.06783  0.80297  0.74441  Biso   1.000  C
  C124     1.0000 0.59883  0.06847  0.58893  Biso   1.000  C
  C125     1.0000 0.46963  0.40117  0.58893  Biso   1.000  C
  C126     1.0000 0.93153  0.53037  0.58893  Biso   1.000  C
  H19      1.0000 0.08670  0.39110  0.91080  Biso   1.000  H
  H20      1.0000 0.60890  0.69560  0.91080  Biso   1.000  H
  H21      1.0000 0.30440  0.91330  0.91080  Biso   1.000  H
  H22      1.0000 0.69560  0.60890  0.08920  Biso   1.000  H
  H23      1.0000 0.91330  0.30440  0.08920  Biso   1.000  H
  H24      1.0000 0.39110  0.08670  0.08920  Biso   1.000  H
  H25      1.0000 0.75337  0.72443  0.24413  Biso   1.000  H
  H26      1.0000 0.27557  0.02893  0.24413  Biso   1.000  H
  H27      1.0000 0.97107  0.24663  0.24413  Biso   1.000  H
  H28      1.0000 0.36227  0.94223  0.42253  Biso   1.000  H
  H29      1.0000 0.57997  0.63773  0.42253  Biso   1.000  H
  H30      1.0000 0.05777  0.42003  0.42253  Biso   1.000  H
  H31      1.0000 0.42003  0.05777  0.57747  Biso   1.000  H
  H32      1.0000 0.94223  0.36227  0.57747  Biso   1.000  H
  H33      1.0000 0.63773  0.57997  0.57747  Biso   1.000  H
  H34      1.0000 0.02893  0.27557  0.75587  Biso   1.000  H
  H35      1.0000 0.24663  0.97107  0.75587  Biso   1.000  H
  H36      1.0000 0.72443  0.75337  0.75587  Biso   1.000  H
  H37      1.0000 0.91330  0.60890  0.08920  Biso   1.000  H
  H38      1.0000 0.39110  0.30440  0.08920  Biso   1.000  H
  H39      1.0000 0.69560  0.08670  0.08920  Biso   1.000  H
  H40      1.0000 0.30440  0.39110  0.91080  Biso   1.000  H
  H41      1.0000 0.08670  0.69560  0.91080  Biso   1.000  H
  H42      1.0000 0.60890  0.91330  0.91080  Biso   1.000  H
  H43      1.0000 0.57997  0.94223  0.42253  Biso   1.000  H
  H44      1.0000 0.05777  0.63773  0.42253  Biso   1.000  H
  H45      1.0000 0.36227  0.42003  0.42253  Biso   1.000  H
  H46      1.0000 0.97107  0.72443  0.24413  Biso   1.000  H
  H47      1.0000 0.75337  0.02893  0.24413  Biso   1.000  H
  H48      1.0000 0.27557  0.24663  0.24413  Biso   1.000  H
  H49      1.0000 0.24663  0.27557  0.75587  Biso   1.000  H
  H50      1.0000 0.72443  0.97107  0.75587  Biso   1.000  H
  H51      1.0000 0.02893  0.75337  0.75587  Biso   1.000  H
  H52      1.0000 0.63773  0.05777  0.57747  Biso   1.000  H
  H53      1.0000 0.42003  0.36227  0.57747  Biso   1.000  H
  H54      1.0000 0.94223  0.57997  0.57747  Biso   1.000  H
  C127     1.0000 0.19380  0.38760  0.90504  Biso   1.000  C
  C128     1.0000 0.61240  0.80620  0.90504  Biso   1.000  C
  C129     1.0000 0.19380  0.80620  0.90504  Biso   1.000  C
  C130     1.0000 0.80620  0.61240  0.09496  Biso   1.000  C
  C131     1.0000 0.80620  0.19380  0.09496  Biso   1.000  C
  C132     1.0000 0.38760  0.19380  0.09496  Biso   1.000  C
  C133     1.0000 0.86047  0.72093  0.23837  Biso   1.000  C
  C134     1.0000 0.27907  0.13953  0.23837  Biso   1.000  C
  C135     1.0000 0.86047  0.13953  0.23837  Biso   1.000  C
  C136     1.0000 0.47287  0.94573  0.42829  Biso   1.000  C
  C137     1.0000 0.47287  0.52713  0.42829  Biso   1.000  C
  C138     1.0000 0.05427  0.52713  0.42829  Biso   1.000  C
  C139     1.0000 0.52713  0.05427  0.57171  Biso   1.000  C
  C140     1.0000 0.94573  0.47287  0.57171  Biso   1.000  C
  C141     1.0000 0.52713  0.47287  0.57171  Biso   1.000  C
  C142     1.0000 0.13953  0.27907  0.76163  Biso   1.000  C
  C143     1.0000 0.13953  0.86047  0.76163  Biso   1.000  C
  C144     1.0000 0.72093  0.86047  0.76163  Biso   1.000  C
  C145     1.0000 0.17990  0.35990  0.86787  Biso   1.000  C
  C146     1.0000 0.64010  0.82000  0.86787  Biso   1.000  C
  C147     1.0000 0.18000  0.82010  0.86787  Biso   1.000  C
  C148     1.0000 0.82000  0.64010  0.13213  Biso   1.000  C
  C149     1.0000 0.82010  0.18000  0.13213  Biso   1.000  C
  C150     1.0000 0.35990  0.17990  0.13213  Biso   1.000  C
  C151     1.0000 0.84657  0.69323  0.20120  Biso   1.000  C
  C152     1.0000 0.30677  0.15333  0.20120  Biso   1.000  C
  C153     1.0000 0.84667  0.15343  0.20120  Biso   1.000  C
  C154     1.0000 0.48667  0.97343  0.46546  Biso   1.000  C
  C155     1.0000 0.48677  0.51333  0.46546  Biso   1.000  C
  C156     1.0000 0.02657  0.51323  0.46546  Biso   1.000  C
  C157     1.0000 0.51323  0.02657  0.53454  Biso   1.000  C
  C158     1.0000 0.97343  0.48667  0.53454  Biso   1.000  C
  C159     1.0000 0.51333  0.48677  0.53454  Biso   1.000  C
  C160     1.0000 0.15333  0.30677  0.79880  Biso   1.000  C
  C161     1.0000 0.15343  0.84667  0.79880  Biso   1.000  C
  C162     1.0000 0.69323  0.84657  0.79880  Biso   1.000  C
  C163     1.0000 0.15050  0.39490  0.84440  Biso   1.000  C
  C164     1.0000 0.60510  0.75560  0.84440  Biso   1.000  C
  C165     1.0000 0.24440  0.84950  0.84440  Biso   1.000  C
  C166     1.0000 0.75560  0.60510  0.15560  Biso   1.000  C
  C167     1.0000 0.84950  0.24440  0.15560  Biso   1.000  C
  C168     1.0000 0.39490  0.15050  0.15560  Biso   1.000  C
  C169     1.0000 0.81717  0.72823  0.17773  Biso   1.000  C
  C170     1.0000 0.27177  0.08893  0.17773  Biso   1.000  C
  C171     1.0000 0.91107  0.18283  0.17773  Biso   1.000  C
  C172     1.0000 0.42227  0.93843  0.48893  Biso   1.000  C
  C173     1.0000 0.51617  0.57773  0.48893  Biso   1.000  C
  C174     1.0000 0.06157  0.48383  0.48893  Biso   1.000  C
  C175     1.0000 0.48383  0.06157  0.51107  Biso   1.000  C
  C176     1.0000 0.93843  0.42227  0.51107  Biso   1.000  C
  C177     1.0000 0.57773  0.51617  0.51107  Biso   1.000  C
  C178     1.0000 0.08893  0.27177  0.82227  Biso   1.000  C
  C179     1.0000 0.18283  0.91107  0.82227  Biso   1.000  C
  C180     1.0000 0.72823  0.81717  0.82227  Biso   1.000  C
  C181     1.0000 0.84950  0.60510  0.15560  Biso   1.000  C
  C182     1.0000 0.39490  0.24440  0.15560  Biso   1.000  C
  C183     1.0000 0.75560  0.15050  0.15560  Biso   1.000  C
  C184     1.0000 0.24440  0.39490  0.84440  Biso   1.000  C
  C185     1.0000 0.15050  0.75560  0.84440  Biso   1.000  C
  C186     1.0000 0.60510  0.84950  0.84440  Biso   1.000  C
  C187     1.0000 0.51617  0.93843  0.48893  Biso   1.000  C
  C188     1.0000 0.06157  0.57773  0.48893  Biso   1.000  C
  C189     1.0000 0.42227  0.48383  0.48893  Biso   1.000  C
  C190     1.0000 0.91107  0.72823  0.17773  Biso   1.000  C
  C191     1.0000 0.81717  0.08893  0.17773  Biso   1.000  C
  C192     1.0000 0.27177  0.18283  0.17773  Biso   1.000  C
  C193     1.0000 0.18283  0.27177  0.82227  Biso   1.000  C
  C194     1.0000 0.72823  0.91107  0.82227  Biso   1.000  C
  C195     1.0000 0.08893  0.81717  0.82227  Biso   1.000  C
  C196     1.0000 0.57773  0.06157  0.51107  Biso   1.000  C
  C197     1.0000 0.48383  0.42227  0.51107  Biso   1.000  C
  C198     1.0000 0.93843  0.51617  0.51107  Biso   1.000  C
  H55      1.0000 0.13720  0.43560  0.85190  Biso   1.000  H
  H56      1.0000 0.56440  0.70160  0.85190  Biso   1.000  H
  H57      1.0000 0.29840  0.86280  0.85190  Biso   1.000  H
  H58      1.0000 0.70160  0.56440  0.14810  Biso   1.000  H
  H59      1.0000 0.86280  0.29840  0.14810  Biso   1.000  H
  H60      1.0000 0.43560  0.13720  0.14810  Biso   1.000  H
  H61      1.0000 0.80387  0.76893  0.18523  Biso   1.000  H
  H62      1.0000 0.23107  0.03493  0.18523  Biso   1.000  H
  H63      1.0000 0.96507  0.19613  0.18523  Biso   1.000  H
  H64      1.0000 0.36827  0.89773  0.48143  Biso   1.000  H
  H65      1.0000 0.52947  0.63173  0.48143  Biso   1.000  H
  H66      1.0000 0.10227  0.47053  0.48143  Biso   1.000  H
  H67      1.0000 0.47053  0.10227  0.51857  Biso   1.000  H
  H68      1.0000 0.89773  0.36827  0.51857  Biso   1.000  H
  H69      1.0000 0.63173  0.52947  0.51857  Biso   1.000  H
  H70      1.0000 0.03493  0.23107  0.81477  Biso   1.000  H
  H71      1.0000 0.19613  0.96507  0.81477  Biso   1.000  H
  H72      1.0000 0.76893  0.80387  0.81477  Biso   1.000  H
  H73      1.0000 0.86280  0.56440  0.14810  Biso   1.000  H
  H74      1.0000 0.43560  0.29840  0.14810  Biso   1.000  H
  H75      1.0000 0.70160  0.13720  0.14810  Biso   1.000  H
  H76      1.0000 0.29840  0.43560  0.85190  Biso   1.000  H
  H77      1.0000 0.13720  0.70160  0.85190  Biso   1.000  H
  H78      1.0000 0.56440  0.86280  0.85190  Biso   1.000  H
  H79      1.0000 0.52947  0.89773  0.48143  Biso   1.000  H
  H80      1.0000 0.10227  0.63173  0.48143  Biso   1.000  H
  H81      1.0000 0.36827  0.47053  0.48143  Biso   1.000  H
  H82      1.0000 0.96507  0.76893  0.18523  Biso   1.000  H
  H83      1.0000 0.80387  0.03493  0.18523  Biso   1.000  H
  H84      1.0000 0.23107  0.19613  0.18523  Biso   1.000  H
  H85      1.0000 0.19613  0.23107  0.81477  Biso   1.000  H
  H86      1.0000 0.76893  0.96507  0.81477  Biso   1.000  H
  H87      1.0000 0.03493  0.80387  0.81477  Biso   1.000  H
  H88      1.0000 0.63173  0.10227  0.51857  Biso   1.000  H
  H89      1.0000 0.47053  0.36827  0.51857  Biso   1.000  H
  H90      1.0000 0.89773  0.52947  0.51857  Biso   1.000  H
  C199     1.0000 0.10310  0.29630  0.85710  Biso   1.000  C
  C200     1.0000 0.70370  0.80680  0.85710  Biso   1.000  C
  C201     1.0000 0.19320  0.89690  0.85710  Biso   1.000  C
  C202     1.0000 0.80680  0.70370  0.14290  Biso   1.000  C
  C203     1.0000 0.89690  0.19320  0.14290  Biso   1.000  C
  C204     1.0000 0.29630  0.10310  0.14290  Biso   1.000  C
  C205     1.0000 0.76977  0.62963  0.19043  Biso   1.000  C
  C206     1.0000 0.37037  0.14013  0.19043  Biso   1.000  C
  C207     1.0000 0.85987  0.23023  0.19043  Biso   1.000  C
  C208     1.0000 0.47347  0.03703  0.47623  Biso   1.000  C
  C209     1.0000 0.56357  0.52653  0.47623  Biso   1.000  C
  C210     1.0000 0.96297  0.43643  0.47623  Biso   1.000  C
  C211     1.0000 0.43643  0.96297  0.52377  Biso   1.000  C
  C212     1.0000 0.03703  0.47347  0.52377  Biso   1.000  C
  C213     1.0000 0.52653  0.56357  0.52377  Biso   1.000  C
  C214     1.0000 0.14013  0.37037  0.80957  Biso   1.000  C
  C215     1.0000 0.23023  0.85987  0.80957  Biso   1.000  C
  C216     1.0000 0.62963  0.76977  0.80957  Biso   1.000  C
  C217     1.0000 0.89690  0.70370  0.14290  Biso   1.000  C
  C218     1.0000 0.29630  0.19320  0.14290  Biso   1.000  C
  C219     1.0000 0.80680  0.10310  0.14290  Biso   1.000  C
  C220     1.0000 0.19320  0.29630  0.85710  Biso   1.000  C
  C221     1.0000 0.10310  0.80680  0.85710  Biso   1.000  C
  C222     1.0000 0.70370  0.89690  0.85710  Biso   1.000  C
  C223     1.0000 0.56357  0.03703  0.47623  Biso   1.000  C
  C224     1.0000 0.96297  0.52653  0.47623  Biso   1.000  C
  C225     1.0000 0.47347  0.43643  0.47623  Biso   1.000  C
  C226     1.0000 0.85987  0.62963  0.19043  Biso   1.000  C
  C227     1.0000 0.76977  0.14013  0.19043  Biso   1.000  C
  C228     1.0000 0.37037  0.23023  0.19043  Biso   1.000  C
  C229     1.0000 0.23023  0.37037  0.80957  Biso   1.000  C
  C230     1.0000 0.62963  0.85987  0.80957  Biso   1.000  C
  C231     1.0000 0.14013  0.76977  0.80957  Biso   1.000  C
  C232     1.0000 0.52653  0.96297  0.52377  Biso   1.000  C
  C233     1.0000 0.43643  0.47347  0.52377  Biso   1.000  C
  C234     1.0000 0.03703  0.56357  0.52377  Biso   1.000  C
  N1       1.0000 0.02930  0.24090  0.88050  Biso   1.000  N
  N2       1.0000 0.75910  0.78840  0.88050  Biso   1.000  N
  N3       1.0000 0.21160  0.97070  0.88050  Biso   1.000  N
  N4       1.0000 0.78840  0.75910  0.11950  Biso   1.000  N
  N5       1.0000 0.97070  0.21160  0.11950  Biso   1.000  N
  N6       1.0000 0.24090  0.02930  0.11950  Biso   1.000  N
  N7       1.0000 0.69597  0.57423  0.21383  Biso   1.000  N
  N8       1.0000 0.42577  0.12173  0.21383  Biso   1.000  N
  N9       1.0000 0.87827  0.30403  0.21383  Biso   1.000  N
  N10      1.0000 0.45507  0.09243  0.45283  Biso   1.000  N
  N11      1.0000 0.63737  0.54493  0.45283  Biso   1.000  N
  N12      1.0000 0.90757  0.36263  0.45283  Biso   1.000  N
  N13      1.0000 0.36263  0.90757  0.54717  Biso   1.000  N
  N14      1.0000 0.09243  0.45507  0.54717  Biso   1.000  N
  N15      1.0000 0.54493  0.63737  0.54717  Biso   1.000  N
  N16      1.0000 0.12173  0.42577  0.78617  Biso   1.000  N
  N17      1.0000 0.30403  0.87827  0.78617  Biso   1.000  N
  N18      1.0000 0.57423  0.69597  0.78617  Biso   1.000  N
  N19      1.0000 0.97070  0.75910  0.11950  Biso   1.000  N
  N20      1.0000 0.24090  0.21160  0.11950  Biso   1.000  N
  N21      1.0000 0.78840  0.02930  0.11950  Biso   1.000  N
  N22      1.0000 0.21160  0.24090  0.88050  Biso   1.000  N
  N23      1.0000 0.02930  0.78840  0.88050  Biso   1.000  N
  N24      1.0000 0.75910  0.97070  0.88050  Biso   1.000  N
  N25      1.0000 0.63737  0.09243  0.45283  Biso   1.000  N
  N26      1.0000 0.90757  0.54493  0.45283  Biso   1.000  N
  N27      1.0000 0.45507  0.36263  0.45283  Biso   1.000  N
  N28      1.0000 0.87827  0.57423  0.21383  Biso   1.000  N
  N29      1.0000 0.69597  0.12173  0.21383  Biso   1.000  N
  N30      1.0000 0.42577  0.30403  0.21383  Biso   1.000  N
  N31      1.0000 0.30403  0.42577  0.78617  Biso   1.000  N
  N32      1.0000 0.57423  0.87827  0.78617  Biso   1.000  N
  N33      1.0000 0.12173  0.69597  0.78617  Biso   1.000  N
  N34      1.0000 0.54493  0.90757  0.54717  Biso   1.000  N
  N35      1.0000 0.36263  0.45507  0.54717  Biso   1.000  N
  N36      1.0000 0.09243  0.63737  0.54717  Biso   1.000  N
  O1       1.0000 0.11047  0.48204  0.00347  Biso   1.000  O
  O2       1.0000 0.51796  0.62843  0.00347  Biso   1.000  O
  O3       1.0000 0.37157  0.88953  0.00347  Biso   1.000  O
  O4       1.0000 0.62843  0.51796  0.99653  Biso   1.000  O
  O5       1.0000 0.88953  0.37157  0.99653  Biso   1.000  O
  O6       1.0000 0.48204  0.11047  0.99653  Biso   1.000  O
  O7       1.0000 0.77714  0.81537  0.33680  Biso   1.000  O
  O8       1.0000 0.18463  0.96176  0.33680  Biso   1.000  O
  O9       1.0000 0.03824  0.22286  0.33680  Biso   1.000  O
  O10      1.0000 0.29510  0.85129  0.32986  Biso   1.000  O
  O11      1.0000 0.55620  0.70490  0.32986  Biso   1.000  O
  O12      1.0000 0.14871  0.44380  0.32986  Biso   1.000  O
  O13      1.0000 0.44380  0.14871  0.67014  Biso   1.000  O
  O14      1.0000 0.85129  0.29510  0.67014  Biso   1.000  O
  O15      1.0000 0.70490  0.55620  0.67014  Biso   1.000  O
  O16      1.0000 0.96176  0.18463  0.66320  Biso   1.000  O
  O17      1.0000 0.22286  0.03824  0.66320  Biso   1.000  O
  O18      1.0000 0.81537  0.77714  0.66320  Biso   1.000  O
  O19      1.0000 0.88953  0.51796  0.99653  Biso   1.000  O
  O20      1.0000 0.48204  0.37157  0.99653  Biso   1.000  O
  O21      1.0000 0.62843  0.11047  0.99653  Biso   1.000  O
  O22      1.0000 0.37157  0.48204  0.00347  Biso   1.000  O
  O23      1.0000 0.11047  0.62843  0.00347  Biso   1.000  O
  O24      1.0000 0.51796  0.88953  0.00347  Biso   1.000  O
  O25      1.0000 0.55620  0.85129  0.32986  Biso   1.000  O
  O26      1.0000 0.14871  0.70490  0.32986  Biso   1.000  O
  O27      1.0000 0.29510  0.44380  0.32986  Biso   1.000  O
  O28      1.0000 0.03824  0.81537  0.33680  Biso   1.000  O
  O29      1.0000 0.77714  0.96176  0.33680  Biso   1.000  O
  O30      1.0000 0.18463  0.22286  0.33680  Biso   1.000  O
  O31      1.0000 0.22286  0.18463  0.66320  Biso   1.000  O
  O32      1.0000 0.81537  0.03824  0.66320  Biso   1.000  O
  O33      1.0000 0.96176  0.77714  0.66320  Biso   1.000  O
  O34      1.0000 0.70490  0.14871  0.67014  Biso   1.000  O
  O35      1.0000 0.44380  0.29510  0.67014  Biso   1.000  O
  O36      1.0000 0.85129  0.55620  0.67014  Biso   1.000  O
  O37      1.0000 0.03036  0.44172  0.95596  Biso   1.000  O
  O38      1.0000 0.55828  0.58864  0.95596  Biso   1.000  O
  O39      1.0000 0.41136  0.96964  0.95596  Biso   1.000  O
  O40      1.0000 0.58864  0.55828  0.04404  Biso   1.000  O
  O41      1.0000 0.96964  0.41136  0.04404  Biso   1.000  O
  O42      1.0000 0.44172  0.03036  0.04404  Biso   1.000  O
  O43      1.0000 0.69703  0.77505  0.28929  Biso   1.000  O
  O44      1.0000 0.22495  0.92197  0.28929  Biso   1.000  O
  O45      1.0000 0.07803  0.30297  0.28929  Biso   1.000  O
  O46      1.0000 0.25531  0.89161  0.37737  Biso   1.000  O
  O47      1.0000 0.63631  0.74469  0.37737  Biso   1.000  O
  O48      1.0000 0.10839  0.36369  0.37737  Biso   1.000  O
  O49      1.0000 0.36369  0.10839  0.62263  Biso   1.000  O
  O50      1.0000 0.89161  0.25531  0.62263  Biso   1.000  O
  O51      1.0000 0.74469  0.63631  0.62263  Biso   1.000  O
  O52      1.0000 0.92197  0.22495  0.71071  Biso   1.000  O
  O53      1.0000 0.30297  0.07803  0.71071  Biso   1.000  O
  O54      1.0000 0.77505  0.69703  0.71071  Biso   1.000  O
  O55      1.0000 0.96964  0.55828  0.04404  Biso   1.000  O
  O56      1.0000 0.44172  0.41136  0.04404  Biso   1.000  O
  O57      1.0000 0.58864  0.03036  0.04404  Biso   1.000  O
  O58      1.0000 0.41136  0.44172  0.95596  Biso   1.000  O
  O59      1.0000 0.03036  0.58864  0.95596  Biso   1.000  O
  O60      1.0000 0.55828  0.96964  0.95596  Biso   1.000  O
  O61      1.0000 0.63631  0.89161  0.37737  Biso   1.000  O
  O62      1.0000 0.10839  0.74469  0.37737  Biso   1.000  O
  O63      1.0000 0.25531  0.36369  0.37737  Biso   1.000  O
  O64      1.0000 0.07803  0.77505  0.28929  Biso   1.000  O
  O65      1.0000 0.69703  0.92197  0.28929  Biso   1.000  O
  O66      1.0000 0.22495  0.30297  0.28929  Biso   1.000  O
  O67      1.0000 0.30297  0.22495  0.71071  Biso   1.000  O
  O68      1.0000 0.77505  0.07803  0.71071  Biso   1.000  O
  O69      1.0000 0.92197  0.69703  0.71071  Biso   1.000  O
  O70      1.0000 0.74469  0.10839  0.62263  Biso   1.000  O
  O71      1.0000 0.36369  0.25531  0.62263  Biso   1.000  O
  O72      1.0000 0.89161  0.63631  0.62263  Biso   1.000  O
  O73      1.0000 0.11810  0.55904  0.07639  Biso   1.000  O
  O74      1.0000 0.44096  0.55906  0.07639  Biso   1.000  O
  O75      1.0000 0.44094  0.88190  0.07639  Biso   1.000  O
  O76      1.0000 0.55906  0.44096  0.92361  Biso   1.000  O
  O77      1.0000 0.88190  0.44094  0.92361  Biso   1.000  O
  O78      1.0000 0.55904  0.11810  0.92361  Biso   1.000  O
  O79      1.0000 0.78477  0.89237  0.40972  Biso   1.000  O
  O80      1.0000 0.10763  0.89239  0.40972  Biso   1.000  O
  O81      1.0000 0.10761  0.21523  0.40972  Biso   1.000  O
  O82      1.0000 0.22573  0.77429  0.25694  Biso   1.000  O
  O83      1.0000 0.54857  0.77427  0.25694  Biso   1.000  O
  O84      1.0000 0.22571  0.45143  0.25694  Biso   1.000  O
  O85      1.0000 0.45143  0.22571  0.74306  Biso   1.000  O
  O86      1.0000 0.77429  0.22573  0.74306  Biso   1.000  O
  O87      1.0000 0.77427  0.54857  0.74306  Biso   1.000  O
  O88      1.0000 0.89239  0.10763  0.59028  Biso   1.000  O
  O89      1.0000 0.21523  0.10761  0.59028  Biso   1.000  O
  O90      1.0000 0.89237  0.78477  0.59028  Biso   1.000  O
  Cu1      1.0000 0.04730  0.52365  0.02832  Biso   1.000  Cu
  Cu2      1.0000 0.47635  0.52365  0.02832  Biso   1.000  Cu
  Cu3      1.0000 0.47635  0.95270  0.02832  Biso   1.000  Cu
  Cu4      1.0000 0.52365  0.47635  0.97168  Biso   1.000  Cu
  Cu5      1.0000 0.95270  0.47635  0.97168  Biso   1.000  Cu
  Cu6      1.0000 0.52365  0.04730  0.97168  Biso   1.000  Cu
  Cu7      1.0000 0.71397  0.85698  0.36166  Biso   1.000  Cu
  Cu8      1.0000 0.14302  0.85698  0.36166  Biso   1.000  Cu
  Cu9      1.0000 0.14302  0.28603  0.36166  Biso   1.000  Cu
  Cu10     1.0000 0.19032  0.80968  0.30501  Biso   1.000  Cu
  Cu11     1.0000 0.61937  0.80968  0.30501  Biso   1.000  Cu
  Cu12     1.0000 0.19032  0.38063  0.30501  Biso   1.000  Cu
  Cu13     1.0000 0.38063  0.19032  0.69499  Biso   1.000  Cu
  Cu14     1.0000 0.80968  0.19032  0.69499  Biso   1.000  Cu
  Cu15     1.0000 0.80968  0.61937  0.69499  Biso   1.000  Cu
  Cu16     1.0000 0.85698  0.14302  0.63834  Biso   1.000  Cu
  Cu17     1.0000 0.28603  0.14302  0.63834  Biso   1.000  Cu
  Cu18     1.0000 0.85698  0.71397  0.63834  Biso   1.000  Cu
