data_image0
_cell_length_a       17.4438
_cell_length_b       19.7205
_cell_length_c       15.7838
_cell_angle_alpha    90
_cell_angle_beta     119.749
_cell_angle_gamma    90

_symmetry_space_group_name_H-M    "P 1"
_symmetry_int_tables_number       1

loop_
  _symmetry_equiv_pos_as_xyz
  'x, y, z'

loop_
  _atom_site_label
  _atom_site_occupancy
  _atom_site_fract_x
  _atom_site_fract_y
  _atom_site_fract_z
  _atom_site_thermal_displace_type
  _atom_site_B_iso_or_equiv
  _atom_site_type_symbol
  Cu1      1.0000 0.74447  0.05421  0.77102  Biso   1.000  Cu
  Cu2      1.0000 0.25553  0.05421  0.72898  Biso   1.000  Cu
  Cu3      1.0000 0.24447  0.55421  0.77102  Biso   1.000  Cu
  Cu4      1.0000 0.75553  0.55421  0.72898  Biso   1.000  Cu
  Cu5      1.0000 0.25553  0.94579  0.22898  Biso   1.000  Cu
  Cu6      1.0000 0.74447  0.94579  0.27102  Biso   1.000  Cu
  Cu7      1.0000 0.75553  0.44580  0.22898  Biso   1.000  Cu
  Cu8      1.0000 0.24447  0.44580  0.27102  Biso   1.000  Cu
  O1       1.0000 0.33765  0.20901  0.61070  Biso   1.000  O
  O2       1.0000 0.66235  0.20901  0.88930  Biso   1.000  O
  O3       1.0000 0.83765  0.70901  0.61070  Biso   1.000  O
  O4       1.0000 0.16235  0.70901  0.88930  Biso   1.000  O
  O5       1.0000 0.66235  0.79099  0.38930  Biso   1.000  O
  O6       1.0000 0.33765  0.79099  0.11070  Biso   1.000  O
  O7       1.0000 0.16235  0.29099  0.38930  Biso   1.000  O
  O8       1.0000 0.83765  0.29099  0.11070  Biso   1.000  O
  N1       1.0000 0.61127  0.07010  0.68680  Biso   1.000  N
  N2       1.0000 0.38873  0.07010  0.81320  Biso   1.000  N
  N3       1.0000 0.11127  0.57010  0.68680  Biso   1.000  N
  N4       1.0000 0.88873  0.57010  0.81320  Biso   1.000  N
  N5       1.0000 0.38873  0.92990  0.31320  Biso   1.000  N
  N6       1.0000 0.61127  0.92990  0.18680  Biso   1.000  N
  N7       1.0000 0.88873  0.42990  0.31320  Biso   1.000  N
  N8       1.0000 0.11127  0.42990  0.18680  Biso   1.000  N
  C1       1.0000 0.55140  0.02210  0.63740  Biso   1.000  C
  C2       1.0000 0.44860  0.02210  0.86260  Biso   1.000  C
  C3       1.0000 0.05140  0.52210  0.63740  Biso   1.000  C
  C4       1.0000 0.94860  0.52210  0.86260  Biso   1.000  C
  C5       1.0000 0.44860  0.97790  0.36260  Biso   1.000  C
  C6       1.0000 0.55140  0.97790  0.13740  Biso   1.000  C
  C7       1.0000 0.94860  0.47790  0.36260  Biso   1.000  C
  C8       1.0000 0.05140  0.47790  0.13740  Biso   1.000  C
  H1       1.0000 0.57000  0.97730  0.64290  Biso   1.000  H
  H2       1.0000 0.43000  0.97730  0.85710  Biso   1.000  H
  H3       1.0000 0.07000  0.47730  0.64290  Biso   1.000  H
  H4       1.0000 0.93000  0.47730  0.85710  Biso   1.000  H
  H5       1.0000 0.43000  0.02270  0.35710  Biso   1.000  H
  H6       1.0000 0.57000  0.02270  0.14290  Biso   1.000  H
  H7       1.0000 0.93000  0.52270  0.35710  Biso   1.000  H
  H8       1.0000 0.07000  0.52270  0.14290  Biso   1.000  H
  O9       1.0000 0.74954  0.09131  0.90820  Biso   1.000  O
  O10      1.0000 0.25046  0.09131  0.59180  Biso   1.000  O
  O11      1.0000 0.24954  0.59131  0.90820  Biso   1.000  O
  O12      1.0000 0.75046  0.59131  0.59180  Biso   1.000  O
  O13      1.0000 0.25046  0.90869  0.09180  Biso   1.000  O
  O14      1.0000 0.74954  0.90869  0.40820  Biso   1.000  O
  O15      1.0000 0.75046  0.40869  0.09180  Biso   1.000  O
  O16      1.0000 0.24954  0.40869  0.40820  Biso   1.000  O
  H9       1.0000 0.71900  0.12000  0.89800  Biso   1.000  H
  H10      1.0000 0.28100  0.12000  0.60200  Biso   1.000  H
  H11      1.0000 0.21900  0.62000  0.89800  Biso   1.000  H
  H12      1.0000 0.78100  0.62000  0.60200  Biso   1.000  H
  H13      1.0000 0.28100  0.88000  0.10200  Biso   1.000  H
  H14      1.0000 0.71900  0.88000  0.39800  Biso   1.000  H
  H15      1.0000 0.78100  0.38000  0.10200  Biso   1.000  H
  H16      1.0000 0.21900  0.38000  0.39800  Biso   1.000  H
  H17      1.0000 0.73900  0.06100  0.94200  Biso   1.000  H
  H18      1.0000 0.26100  0.06100  0.55800  Biso   1.000  H
  H19      1.0000 0.23900  0.56100  0.94200  Biso   1.000  H
  H20      1.0000 0.76100  0.56100  0.55800  Biso   1.000  H
  H21      1.0000 0.26100  0.93900  0.05800  Biso   1.000  H
  H22      1.0000 0.73900  0.93900  0.44200  Biso   1.000  H
  H23      1.0000 0.76100  0.43900  0.05800  Biso   1.000  H
  H24      1.0000 0.23900  0.43900  0.44200  Biso   1.000  H
  O17      1.0000 0.53366  0.34851  0.64950  Biso   1.000  O
  O18      1.0000 0.46634  0.34851  0.85050  Biso   1.000  O
  O19      1.0000 0.03366  0.84851  0.64950  Biso   1.000  O
  O20      1.0000 0.96634  0.84851  0.85050  Biso   1.000  O
  O21      1.0000 0.46634  0.65149  0.35050  Biso   1.000  O
  O22      1.0000 0.53366  0.65149  0.14950  Biso   1.000  O
  O23      1.0000 0.96634  0.15149  0.35050  Biso   1.000  O
  O24      1.0000 0.03366  0.15149  0.14950  Biso   1.000  O
  N9       1.0000 0.47118  0.22066  0.62140  Biso   1.000  N
  N10      1.0000 0.52882  0.22066  0.87860  Biso   1.000  N
  N11      1.0000 0.97118  0.72066  0.62140  Biso   1.000  N
  N12      1.0000 0.02882  0.72066  0.87860  Biso   1.000  N
  N13      1.0000 0.52882  0.77934  0.37860  Biso   1.000  N
  N14      1.0000 0.47118  0.77934  0.12140  Biso   1.000  N
  N15      1.0000 0.02882  0.27934  0.37860  Biso   1.000  N
  N16      1.0000 0.97118  0.27934  0.12140  Biso   1.000  N
  H25      1.0000 0.50860  0.25010  0.62390  Biso   1.000  H
  H26      1.0000 0.49140  0.25010  0.87610  Biso   1.000  H
  H27      1.0000 0.00860  0.75010  0.62390  Biso   1.000  H
  H28      1.0000 0.99140  0.75010  0.87610  Biso   1.000  H
  H29      1.0000 0.49140  0.74990  0.37610  Biso   1.000  H
  H30      1.0000 0.50860  0.74990  0.12390  Biso   1.000  H
  H31      1.0000 0.99140  0.24990  0.37610  Biso   1.000  H
  H32      1.0000 0.00860  0.24990  0.12390  Biso   1.000  H
  C9       1.0000 0.46340  0.03649  0.57880  Biso   1.000  C
  C10      1.0000 0.53660  0.03649  0.92120  Biso   1.000  C
  C11      1.0000 0.96340  0.53649  0.57880  Biso   1.000  C
  C12      1.0000 0.03660  0.53649  0.92120  Biso   1.000  C
  C13      1.0000 0.53660  0.96351  0.42120  Biso   1.000  C
  C14      1.0000 0.46340  0.96351  0.07880  Biso   1.000  C
  C15      1.0000 0.03660  0.46351  0.42120  Biso   1.000  C
  C16      1.0000 0.96340  0.46351  0.07880  Biso   1.000  C
  H33      1.0000 0.42390  0.00160  0.54550  Biso   1.000  H
  H34      1.0000 0.57610  0.00160  0.95450  Biso   1.000  H
  H35      1.0000 0.92390  0.50160  0.54550  Biso   1.000  H
  H36      1.0000 0.07610  0.50160  0.95450  Biso   1.000  H
  H37      1.0000 0.57610  0.99840  0.45450  Biso   1.000  H
  H38      1.0000 0.42390  0.99840  0.04550  Biso   1.000  H
  H39      1.0000 0.07610  0.49840  0.45450  Biso   1.000  H
  H40      1.0000 0.92390  0.49840  0.04550  Biso   1.000  H
  N17      1.0000 0.43680  0.43365  0.62060  Biso   1.000  N
  N18      1.0000 0.56320  0.43365  0.87940  Biso   1.000  N
  N19      1.0000 0.93680  0.93365  0.62060  Biso   1.000  N
  N20      1.0000 0.06320  0.93365  0.87940  Biso   1.000  N
  N21      1.0000 0.56320  0.56635  0.37940  Biso   1.000  N
  N22      1.0000 0.43680  0.56635  0.12060  Biso   1.000  N
  N23      1.0000 0.06320  0.06635  0.37940  Biso   1.000  N
  N24      1.0000 0.93680  0.06635  0.12060  Biso   1.000  N
  H41      1.0000 0.38650  0.44250  0.61580  Biso   1.000  H
  H42      1.0000 0.61350  0.44250  0.88420  Biso   1.000  H
  H43      1.0000 0.88650  0.94250  0.61580  Biso   1.000  H
  H44      1.0000 0.11350  0.94250  0.88420  Biso   1.000  H
  H45      1.0000 0.61350  0.55750  0.38420  Biso   1.000  H
  H46      1.0000 0.38650  0.55750  0.11580  Biso   1.000  H
  H47      1.0000 0.11350  0.05750  0.38420  Biso   1.000  H
  H48      1.0000 0.88650  0.05750  0.11580  Biso   1.000  H
  C17      1.0000 0.43360  0.10150  0.56920  Biso   1.000  C
  C18      1.0000 0.56640  0.10150  0.93080  Biso   1.000  C
  C19      1.0000 0.93360  0.60150  0.56920  Biso   1.000  C
  C20      1.0000 0.06640  0.60150  0.93080  Biso   1.000  C
  C21      1.0000 0.56640  0.89850  0.43080  Biso   1.000  C
  C22      1.0000 0.43360  0.89850  0.06920  Biso   1.000  C
  C23      1.0000 0.06640  0.39850  0.43080  Biso   1.000  C
  C24      1.0000 0.93360  0.39850  0.06920  Biso   1.000  C
  H49      1.0000 0.37460  0.11200  0.52710  Biso   1.000  H
  H50      1.0000 0.62540  0.11200  0.97290  Biso   1.000  H
  H51      1.0000 0.87460  0.61200  0.52710  Biso   1.000  H
  H52      1.0000 0.12540  0.61200  0.97290  Biso   1.000  H
  H53      1.0000 0.62540  0.88800  0.47290  Biso   1.000  H
  H54      1.0000 0.37460  0.88800  0.02710  Biso   1.000  H
  H55      1.0000 0.12540  0.38800  0.47290  Biso   1.000  H
  H56      1.0000 0.87460  0.38800  0.02710  Biso   1.000  H
  O25      1.0000 0.57780  0.77231  0.00100  Biso   1.000  O
  O26      1.0000 0.42220  0.77231  0.49900  Biso   1.000  O
  O27      1.0000 0.07780  0.27231  0.00100  Biso   1.000  O
  O28      1.0000 0.92220  0.27231  0.49900  Biso   1.000  O
  O29      1.0000 0.42220  0.22769  0.99900  Biso   1.000  O
  O30      1.0000 0.57780  0.22769  0.50100  Biso   1.000  O
  O31      1.0000 0.92220  0.72769  0.99900  Biso   1.000  O
  O32      1.0000 0.07780  0.72769  0.50100  Biso   1.000  O
  O33      1.0000 0.55320  0.87450  0.94870  Biso   1.000  O
  O34      1.0000 0.44680  0.87450  0.55130  Biso   1.000  O
  O35      1.0000 0.05320  0.37450  0.94870  Biso   1.000  O
  O36      1.0000 0.94680  0.37450  0.55130  Biso   1.000  O
  O37      1.0000 0.44680  0.12550  0.05130  Biso   1.000  O
  O38      1.0000 0.55320  0.12550  0.44870  Biso   1.000  O
  O39      1.0000 0.94680  0.62550  0.05130  Biso   1.000  O
  O40      1.0000 0.05320  0.62550  0.44870  Biso   1.000  O
  C25      1.0000 0.49410  0.15155  0.62420  Biso   1.000  C
  C26      1.0000 0.50590  0.15155  0.87580  Biso   1.000  C
  C27      1.0000 0.99410  0.65155  0.62420  Biso   1.000  C
  C28      1.0000 0.00590  0.65155  0.87580  Biso   1.000  C
  C29      1.0000 0.50590  0.84845  0.37580  Biso   1.000  C
  C30      1.0000 0.49410  0.84845  0.12420  Biso   1.000  C
  C31      1.0000 0.00590  0.34845  0.37580  Biso   1.000  C
  C32      1.0000 0.99410  0.34845  0.12420  Biso   1.000  C
  N25      1.0000 0.62127  0.54501  0.65840  Biso   1.000  N
  N26      1.0000 0.37873  0.54501  0.84160  Biso   1.000  N
  N27      1.0000 0.12127  0.04501  0.65840  Biso   1.000  N
  N28      1.0000 0.87873  0.04501  0.84160  Biso   1.000  N
  N29      1.0000 0.37873  0.45499  0.34160  Biso   1.000  N
  N30      1.0000 0.62127  0.45499  0.15840  Biso   1.000  N
  N31      1.0000 0.87873  0.95499  0.34160  Biso   1.000  N
  N32      1.0000 0.12127  0.95499  0.15840  Biso   1.000  N
  C33      1.0000 0.58140  0.13376  0.68030  Biso   1.000  C
  C34      1.0000 0.41860  0.13376  0.81970  Biso   1.000  C
  C35      1.0000 0.08140  0.63376  0.68030  Biso   1.000  C
  C36      1.0000 0.91860  0.63376  0.81970  Biso   1.000  C
  C37      1.0000 0.41860  0.86624  0.31970  Biso   1.000  C
  C38      1.0000 0.58140  0.86624  0.18030  Biso   1.000  C
  C39      1.0000 0.91860  0.36624  0.31970  Biso   1.000  C
  C40      1.0000 0.08140  0.36624  0.18030  Biso   1.000  C
  H57      1.0000 0.62190  0.16760  0.71570  Biso   1.000  H
  H58      1.0000 0.37810  0.16760  0.78430  Biso   1.000  H
  H59      1.0000 0.12190  0.66760  0.71570  Biso   1.000  H
  H60      1.0000 0.87810  0.66760  0.78430  Biso   1.000  H
  H61      1.0000 0.37810  0.83240  0.28430  Biso   1.000  H
  H62      1.0000 0.62190  0.83240  0.21570  Biso   1.000  H
  H63      1.0000 0.87810  0.33240  0.28430  Biso   1.000  H
  H64      1.0000 0.12190  0.33240  0.21570  Biso   1.000  H
  O41      1.0000 0.73500  0.89658  0.69710  Biso   1.000  O
  O42      1.0000 0.26500  0.89658  0.80290  Biso   1.000  O
  O43      1.0000 0.23500  0.39658  0.69710  Biso   1.000  O
  O44      1.0000 0.76500  0.39658  0.80290  Biso   1.000  O
  O45      1.0000 0.26500  0.10342  0.30290  Biso   1.000  O
  O46      1.0000 0.73500  0.10342  0.19710  Biso   1.000  O
  O47      1.0000 0.76500  0.60342  0.30290  Biso   1.000  O
  O48      1.0000 0.23500  0.60342  0.19710  Biso   1.000  O
  N33      1.0000 0.58390  0.81890  0.95320  Biso   1.000  N
  N34      1.0000 0.41610  0.81890  0.54680  Biso   1.000  N
  N35      1.0000 0.08390  0.31890  0.95320  Biso   1.000  N
  N36      1.0000 0.91610  0.31890  0.54680  Biso   1.000  N
  N37      1.0000 0.41610  0.18110  0.04680  Biso   1.000  N
  N38      1.0000 0.58390  0.18110  0.45320  Biso   1.000  N
  N39      1.0000 0.91610  0.68110  0.04680  Biso   1.000  N
  N40      1.0000 0.08390  0.68110  0.45320  Biso   1.000  N
  O49      1.0000 0.72634  0.96386  0.80602  Biso   1.000  O
  O50      1.0000 0.27366  0.96386  0.69398  Biso   1.000  O
  O51      1.0000 0.22634  0.46386  0.80602  Biso   1.000  O
  O52      1.0000 0.77366  0.46386  0.69398  Biso   1.000  O
  O53      1.0000 0.27366  0.03614  0.19398  Biso   1.000  O
  O54      1.0000 0.72634  0.03614  0.30602  Biso   1.000  O
  O55      1.0000 0.77366  0.53614  0.19398  Biso   1.000  O
  O56      1.0000 0.22634  0.53614  0.30602  Biso   1.000  O
  C41      1.0000 0.39680  0.24471  0.61530  Biso   1.000  C
  C42      1.0000 0.60320  0.24471  0.88470  Biso   1.000  C
  C43      1.0000 0.89680  0.74471  0.61530  Biso   1.000  C
  C44      1.0000 0.10320  0.74471  0.88470  Biso   1.000  C
  C45      1.0000 0.60320  0.75529  0.38470  Biso   1.000  C
  C46      1.0000 0.39680  0.75529  0.11530  Biso   1.000  C
  C47      1.0000 0.10320  0.25529  0.38470  Biso   1.000  C
  C48      1.0000 0.89680  0.25529  0.11530  Biso   1.000  C
  C49      1.0000 0.38490  0.32061  0.61320  Biso   1.000  C
  C50      1.0000 0.61510  0.32061  0.88680  Biso   1.000  C
  C51      1.0000 0.88490  0.82061  0.61320  Biso   1.000  C
  C52      1.0000 0.11510  0.82061  0.88680  Biso   1.000  C
  C53      1.0000 0.61510  0.67939  0.38680  Biso   1.000  C
  C54      1.0000 0.38490  0.67939  0.11320  Biso   1.000  C
  C55      1.0000 0.11510  0.17939  0.38680  Biso   1.000  C
  C56      1.0000 0.88490  0.17939  0.11320  Biso   1.000  C
  H65      1.0000 0.33120  0.33860  0.60150  Biso   1.000  H
  H66      1.0000 0.66880  0.33860  0.89850  Biso   1.000  H
  H67      1.0000 0.83120  0.83860  0.60150  Biso   1.000  H
  H68      1.0000 0.16880  0.83860  0.89850  Biso   1.000  H
  H69      1.0000 0.66880  0.66140  0.39850  Biso   1.000  H
  H70      1.0000 0.33120  0.66140  0.10150  Biso   1.000  H
  H71      1.0000 0.16880  0.16140  0.39850  Biso   1.000  H
  H72      1.0000 0.83120  0.16140  0.10150  Biso   1.000  H
  O57      1.0000 0.71580  0.61221  0.88250  Biso   1.000  O
  O58      1.0000 0.28420  0.61221  0.61750  Biso   1.000  O
  O59      1.0000 0.21580  0.11221  0.88250  Biso   1.000  O
  O60      1.0000 0.78420  0.11221  0.61750  Biso   1.000  O
  O61      1.0000 0.28420  0.38779  0.11750  Biso   1.000  O
  O62      1.0000 0.71580  0.38779  0.38250  Biso   1.000  O
  O63      1.0000 0.78420  0.88779  0.11750  Biso   1.000  O
  O64      1.0000 0.21580  0.88779  0.38250  Biso   1.000  O
  O65      1.0000 0.73910  0.64579  0.76278  Biso   1.000  O
  O66      1.0000 0.26090  0.64579  0.73722  Biso   1.000  O
  O67      1.0000 0.23910  0.14579  0.76278  Biso   1.000  O
  O68      1.0000 0.76090  0.14579  0.73722  Biso   1.000  O
  O69      1.0000 0.26090  0.35421  0.23722  Biso   1.000  O
  O70      1.0000 0.73910  0.35421  0.26278  Biso   1.000  O
  O71      1.0000 0.76090  0.85421  0.23722  Biso   1.000  O
  O72      1.0000 0.23910  0.85421  0.26278  Biso   1.000  O
  C57      1.0000 0.46010  0.36772  0.63020  Biso   1.000  C
  C58      1.0000 0.53990  0.36772  0.86980  Biso   1.000  C
  C59      1.0000 0.96010  0.86772  0.63020  Biso   1.000  C
  C60      1.0000 0.03990  0.86772  0.86980  Biso   1.000  C
  C61      1.0000 0.53990  0.63228  0.36980  Biso   1.000  C
  C62      1.0000 0.46010  0.63228  0.13020  Biso   1.000  C
  C63      1.0000 0.03990  0.13228  0.36980  Biso   1.000  C
  C64      1.0000 0.96010  0.13228  0.13020  Biso   1.000  C
  C65      1.0000 0.48550  0.48954  0.61760  Biso   1.000  C
  C66      1.0000 0.51450  0.48954  0.88240  Biso   1.000  C
  C67      1.0000 0.98550  0.98954  0.61760  Biso   1.000  C
  C68      1.0000 0.01450  0.98954  0.88240  Biso   1.000  C
  C69      1.0000 0.51450  0.51046  0.38240  Biso   1.000  C
  C70      1.0000 0.48550  0.51046  0.11760  Biso   1.000  C
  C71      1.0000 0.01450  0.01046  0.38240  Biso   1.000  C
  C72      1.0000 0.98550  0.01046  0.11760  Biso   1.000  C
  C73      1.0000 0.57710  0.49086  0.66380  Biso   1.000  C
  C74      1.0000 0.42290  0.49086  0.83620  Biso   1.000  C
  C75      1.0000 0.07710  0.99086  0.66380  Biso   1.000  C
  C76      1.0000 0.92290  0.99086  0.83620  Biso   1.000  C
  C77      1.0000 0.42290  0.50914  0.33620  Biso   1.000  C
  C78      1.0000 0.57710  0.50914  0.16380  Biso   1.000  C
  C79      1.0000 0.92290  0.00914  0.33620  Biso   1.000  C
  C80      1.0000 0.07710  0.00914  0.16380  Biso   1.000  C
  H73      1.0000 0.60880  0.45320  0.69960  Biso   1.000  H
  H74      1.0000 0.39120  0.45320  0.80040  Biso   1.000  H
  H75      1.0000 0.10880  0.95320  0.69960  Biso   1.000  H
  H76      1.0000 0.89120  0.95320  0.80040  Biso   1.000  H
  H77      1.0000 0.39120  0.54680  0.30040  Biso   1.000  H
  H78      1.0000 0.60880  0.54680  0.19960  Biso   1.000  H
  H79      1.0000 0.89120  0.04680  0.30040  Biso   1.000  H
  H80      1.0000 0.10880  0.04680  0.19960  Biso   1.000  H
  C81      1.0000 0.57430  0.59894  0.60510  Biso   1.000  C
  C82      1.0000 0.42570  0.59894  0.89490  Biso   1.000  C
  C83      1.0000 0.07430  0.09894  0.60510  Biso   1.000  C
  C84      1.0000 0.92570  0.09894  0.89490  Biso   1.000  C
  C85      1.0000 0.42570  0.40106  0.39490  Biso   1.000  C
  C86      1.0000 0.57430  0.40106  0.10510  Biso   1.000  C
  C87      1.0000 0.92570  0.90106  0.39490  Biso   1.000  C
  C88      1.0000 0.07430  0.90106  0.10510  Biso   1.000  C
  H81      1.0000 0.60440  0.63630  0.60000  Biso   1.000  H
  H82      1.0000 0.39560  0.63630  0.90000  Biso   1.000  H
  H83      1.0000 0.10440  0.13630  0.60000  Biso   1.000  H
  H84      1.0000 0.89560  0.13630  0.90000  Biso   1.000  H
  H85      1.0000 0.39560  0.36370  0.40000  Biso   1.000  H
  H86      1.0000 0.60440  0.36370  0.10000  Biso   1.000  H
  H87      1.0000 0.89560  0.86370  0.40000  Biso   1.000  H
  H88      1.0000 0.10440  0.86370  0.10000  Biso   1.000  H
  C89      1.0000 0.48410  0.60061  0.55830  Biso   1.000  C
  C90      1.0000 0.51590  0.60061  0.94170  Biso   1.000  C
  C91      1.0000 0.98410  0.10061  0.55830  Biso   1.000  C
  C92      1.0000 0.01590  0.10061  0.94170  Biso   1.000  C
  C93      1.0000 0.51590  0.39939  0.44170  Biso   1.000  C
  C94      1.0000 0.48410  0.39939  0.05830  Biso   1.000  C
  C95      1.0000 0.01590  0.89939  0.44170  Biso   1.000  C
  C96      1.0000 0.98410  0.89939  0.05830  Biso   1.000  C
  H89      1.0000 0.45370  0.63870  0.52280  Biso   1.000  H
  H90      1.0000 0.54630  0.63870  0.97720  Biso   1.000  H
  H91      1.0000 0.95370  0.13870  0.52280  Biso   1.000  H
  H92      1.0000 0.04630  0.13870  0.97720  Biso   1.000  H
  H93      1.0000 0.54630  0.36130  0.47720  Biso   1.000  H
  H94      1.0000 0.45370  0.36130  0.02280  Biso   1.000  H
  H95      1.0000 0.04630  0.86130  0.47720  Biso   1.000  H
  H96      1.0000 0.95370  0.86130  0.02280  Biso   1.000  H
  C97      1.0000 0.43860  0.54572  0.56420  Biso   1.000  C
  C98      1.0000 0.56140  0.54572  0.93580  Biso   1.000  C
  C99      1.0000 0.93860  0.04572  0.56420  Biso   1.000  C
  C100     1.0000 0.06140  0.04572  0.93580  Biso   1.000  C
  C101     1.0000 0.56140  0.45428  0.43580  Biso   1.000  C
  C102     1.0000 0.43860  0.45428  0.06420  Biso   1.000  C
  C103     1.0000 0.06140  0.95428  0.43580  Biso   1.000  C
  C104     1.0000 0.93860  0.95428  0.06420  Biso   1.000  C
  H97      1.0000 0.37720  0.54620  0.53290  Biso   1.000  H
  H98      1.0000 0.62280  0.54620  0.96710  Biso   1.000  H
  H99      1.0000 0.87720  0.04620  0.53290  Biso   1.000  H
  H100     1.0000 0.12280  0.04620  0.96710  Biso   1.000  H
  H101     1.0000 0.62280  0.45380  0.46710  Biso   1.000  H
  H102     1.0000 0.37720  0.45380  0.03290  Biso   1.000  H
  H103     1.0000 0.12280  0.95380  0.46710  Biso   1.000  H
  H104     1.0000 0.87720  0.95380  0.03290  Biso   1.000  H
  C105     1.0000 0.71620  0.78195  0.79620  Biso   1.000  C
  C106     1.0000 0.28380  0.78195  0.70380  Biso   1.000  C
  C107     1.0000 0.21620  0.28195  0.79620  Biso   1.000  C
  C108     1.0000 0.78380  0.28195  0.70380  Biso   1.000  C
  C109     1.0000 0.28380  0.21805  0.20380  Biso   1.000  C
  C110     1.0000 0.71620  0.21805  0.29620  Biso   1.000  C
  C111     1.0000 0.78380  0.71805  0.20380  Biso   1.000  C
  C112     1.0000 0.21620  0.71805  0.29620  Biso   1.000  C
  H105     1.0000 0.74300  0.77350  0.75890  Biso   1.000  H
  H106     1.0000 0.25700  0.77350  0.74110  Biso   1.000  H
  H107     1.0000 0.24300  0.27350  0.75890  Biso   1.000  H
  H108     1.0000 0.75700  0.27350  0.74110  Biso   1.000  H
  H109     1.0000 0.25700  0.22650  0.24110  Biso   1.000  H
  H110     1.0000 0.74300  0.22650  0.25890  Biso   1.000  H
  H111     1.0000 0.75700  0.72650  0.24110  Biso   1.000  H
  H112     1.0000 0.24300  0.72650  0.25890  Biso   1.000  H
  C113     1.0000 0.69720  0.84803  0.80900  Biso   1.000  C
  C114     1.0000 0.30280  0.84803  0.69100  Biso   1.000  C
  C115     1.0000 0.19720  0.34803  0.80900  Biso   1.000  C
  C116     1.0000 0.80280  0.34803  0.69100  Biso   1.000  C
  C117     1.0000 0.30280  0.15197  0.19100  Biso   1.000  C
  C118     1.0000 0.69720  0.15197  0.30900  Biso   1.000  C
  C119     1.0000 0.80280  0.65197  0.19100  Biso   1.000  C
  C120     1.0000 0.19720  0.65197  0.30900  Biso   1.000  C
  C121     1.0000 0.65400  0.86062  0.86110  Biso   1.000  C
  C122     1.0000 0.34600  0.86062  0.63890  Biso   1.000  C
  C123     1.0000 0.15400  0.36062  0.86110  Biso   1.000  C
  C124     1.0000 0.84600  0.36062  0.63890  Biso   1.000  C
  C125     1.0000 0.34600  0.13938  0.13890  Biso   1.000  C
  C126     1.0000 0.65400  0.13938  0.36110  Biso   1.000  C
  C127     1.0000 0.84600  0.63938  0.13890  Biso   1.000  C
  C128     1.0000 0.15400  0.63938  0.36110  Biso   1.000  C
  H113     1.0000 0.64040  0.90470  0.86990  Biso   1.000  H
  H114     1.0000 0.35960  0.90470  0.63010  Biso   1.000  H
  H115     1.0000 0.14040  0.40470  0.86990  Biso   1.000  H
  H116     1.0000 0.85960  0.40470  0.63010  Biso   1.000  H
  H117     1.0000 0.35960  0.09530  0.13010  Biso   1.000  H
  H118     1.0000 0.64040  0.09530  0.36990  Biso   1.000  H
  H119     1.0000 0.85960  0.59530  0.13010  Biso   1.000  H
  H120     1.0000 0.14040  0.59530  0.36990  Biso   1.000  H
  C129     1.0000 0.63150  0.80624  0.90000  Biso   1.000  C
  C130     1.0000 0.36850  0.80624  0.60000  Biso   1.000  C
  C131     1.0000 0.13150  0.30624  0.90000  Biso   1.000  C
  C132     1.0000 0.86850  0.30624  0.60000  Biso   1.000  C
  C133     1.0000 0.36850  0.19376  0.10000  Biso   1.000  C
  C134     1.0000 0.63150  0.19376  0.40000  Biso   1.000  C
  C135     1.0000 0.86850  0.69376  0.10000  Biso   1.000  C
  C136     1.0000 0.13150  0.69376  0.40000  Biso   1.000  C
  C137     1.0000 0.65270  0.74014  0.89050  Biso   1.000  C
  C138     1.0000 0.34730  0.74014  0.60950  Biso   1.000  C
  C139     1.0000 0.15270  0.24014  0.89050  Biso   1.000  C
  C140     1.0000 0.84730  0.24014  0.60950  Biso   1.000  C
  C141     1.0000 0.34730  0.25986  0.10950  Biso   1.000  C
  C142     1.0000 0.65270  0.25986  0.39050  Biso   1.000  C
  C143     1.0000 0.84730  0.75986  0.10950  Biso   1.000  C
  C144     1.0000 0.15270  0.75986  0.39050  Biso   1.000  C
  H121     1.0000 0.63830  0.70450  0.91860  Biso   1.000  H
  H122     1.0000 0.36170  0.70450  0.58140  Biso   1.000  H
  H123     1.0000 0.13830  0.20450  0.91860  Biso   1.000  H
  H124     1.0000 0.86170  0.20450  0.58140  Biso   1.000  H
  H125     1.0000 0.36170  0.29550  0.08140  Biso   1.000  H
  H126     1.0000 0.63830  0.29550  0.41860  Biso   1.000  H
  H127     1.0000 0.86170  0.79550  0.08140  Biso   1.000  H
  H128     1.0000 0.13830  0.79550  0.41860  Biso   1.000  H
  C145     1.0000 0.69590  0.72808  0.83840  Biso   1.000  C
  C146     1.0000 0.30410  0.72808  0.66160  Biso   1.000  C
  C147     1.0000 0.19590  0.22808  0.83840  Biso   1.000  C
  C148     1.0000 0.80410  0.22808  0.66160  Biso   1.000  C
  C149     1.0000 0.30410  0.27192  0.16160  Biso   1.000  C
  C150     1.0000 0.69590  0.27192  0.33840  Biso   1.000  C
  C151     1.0000 0.80410  0.77192  0.16160  Biso   1.000  C
  C152     1.0000 0.19590  0.77192  0.33840  Biso   1.000  C
  C153     1.0000 0.71850  0.65588  0.82840  Biso   1.000  C
  C154     1.0000 0.28150  0.65588  0.67160  Biso   1.000  C
  C155     1.0000 0.21850  0.15588  0.82840  Biso   1.000  C
  C156     1.0000 0.78150  0.15588  0.67160  Biso   1.000  C
  C157     1.0000 0.28150  0.34412  0.17160  Biso   1.000  C
  C158     1.0000 0.71850  0.34412  0.32840  Biso   1.000  C
  C159     1.0000 0.78150  0.84412  0.17160  Biso   1.000  C
  C160     1.0000 0.21850  0.84412  0.32840  Biso   1.000  C
  C161     1.0000 0.72180  0.90686  0.76590  Biso   1.000  C
  C162     1.0000 0.27820  0.90686  0.73410  Biso   1.000  C
  C163     1.0000 0.22180  0.40686  0.76590  Biso   1.000  C
  C164     1.0000 0.77820  0.40686  0.73410  Biso   1.000  C
  C165     1.0000 0.27820  0.09314  0.23410  Biso   1.000  C
  C166     1.0000 0.72180  0.09314  0.26590  Biso   1.000  C
  C167     1.0000 0.77820  0.59314  0.23410  Biso   1.000  C
  C168     1.0000 0.22180  0.59314  0.26590  Biso   1.000  C
  O73      1.0000 0.76147  0.02214  0.07390  Biso   1.000  O
  O74      1.0000 0.23853  0.02214  0.42610  Biso   1.000  O
  O75      1.0000 0.26147  0.52214  0.07390  Biso   1.000  O
  O76      1.0000 0.73853  0.52214  0.42610  Biso   1.000  O
  O77      1.0000 0.23853  0.97786  0.92610  Biso   1.000  O
  O78      1.0000 0.76147  0.97786  0.57390  Biso   1.000  O
  O79      1.0000 0.73853  0.47786  0.92610  Biso   1.000  O
  O80      1.0000 0.26147  0.47786  0.57390  Biso   1.000  O
  H129     1.0000 0.74800  0.04470  0.10600  Biso   1.000  H
  H130     1.0000 0.25200  0.04470  0.39400  Biso   1.000  H
  H131     1.0000 0.24800  0.54470  0.10600  Biso   1.000  H
  H132     1.0000 0.75200  0.54470  0.39400  Biso   1.000  H
  H133     1.0000 0.25200  0.95530  0.89400  Biso   1.000  H
  H134     1.0000 0.74800  0.95530  0.60600  Biso   1.000  H
  H135     1.0000 0.75200  0.45530  0.89400  Biso   1.000  H
  H136     1.0000 0.24800  0.45530  0.60600  Biso   1.000  H
  H137     1.0000 0.76900  0.98400  0.08900  Biso   1.000  H
  H138     1.0000 0.23100  0.98400  0.41100  Biso   1.000  H
  H139     1.0000 0.26900  0.48400  0.08900  Biso   1.000  H
  H140     1.0000 0.73100  0.48400  0.41100  Biso   1.000  H
  H141     1.0000 0.23100  0.01600  0.91100  Biso   1.000  H
  H142     1.0000 0.76900  0.01600  0.58900  Biso   1.000  H
  H143     1.0000 0.73100  0.51600  0.91100  Biso   1.000  H
  H144     1.0000 0.26900  0.51600  0.58900  Biso   1.000  H
