data_image0
_cell_length_a       21.49
_cell_length_b       6.8822
_cell_length_c       7.8075
_cell_angle_alpha    90
_cell_angle_beta     90
_cell_angle_gamma    90

_symmetry_space_group_name_H-M    "P 1"
_symmetry_int_tables_number       1

loop_
  _symmetry_equiv_pos_as_xyz
  'x, y, z'

loop_
  _atom_site_label
  _atom_site_occupancy
  _atom_site_fract_x
  _atom_site_fract_y
  _atom_site_fract_z
  _atom_site_thermal_displace_type
  _atom_site_B_iso_or_equiv
  _atom_site_type_symbol
  Cu1      1.0000 0.29461  0.48324  0.26876  Biso   1.000  Cu
  Cu2      1.0000 0.70539  0.51676  0.26876  Biso   1.000  Cu
  Cu3      1.0000 0.20539  0.98324  0.73124  Biso   1.000  Cu
  Cu4      1.0000 0.79461  0.01676  0.73124  Biso   1.000  Cu
  O1       1.0000 0.33536  0.64350  0.09490  Biso   1.000  O
  O2       1.0000 0.66464  0.35650  0.09490  Biso   1.000  O
  O3       1.0000 0.16464  0.14350  0.90510  Biso   1.000  O
  O4       1.0000 0.83536  0.85650  0.90510  Biso   1.000  O
  O5       1.0000 0.25485  0.73930  0.93120  Biso   1.000  O
  O6       1.0000 0.74515  0.26070  0.93120  Biso   1.000  O
  O7       1.0000 0.24515  0.23930  0.06880  Biso   1.000  O
  O8       1.0000 0.75485  0.76070  0.06880  Biso   1.000  O
  O9       1.0000 0.24533  0.82150  0.55440  Biso   1.000  O
  O10      1.0000 0.75467  0.17850  0.55440  Biso   1.000  O
  O11      1.0000 0.25467  0.32150  0.44560  Biso   1.000  O
  O12      1.0000 0.74533  0.67850  0.44560  Biso   1.000  O
  O13      1.0000 0.33763  0.68940  0.49330  Biso   1.000  O
  O14      1.0000 0.66237  0.31060  0.49330  Biso   1.000  O
  O15      1.0000 0.16237  0.18940  0.50670  Biso   1.000  O
  O16      1.0000 0.83763  0.81060  0.50670  Biso   1.000  O
  N1       1.0000 0.29000  0.09760  0.74510  Biso   1.000  N
  N2       1.0000 0.71000  0.90240  0.74510  Biso   1.000  N
  N3       1.0000 0.21000  0.59760  0.25490  Biso   1.000  N
  N4       1.0000 0.79000  0.40240  0.25490  Biso   1.000  N
  H1       1.0000 0.29340  0.19830  0.67210  Biso   1.000  H
  H2       1.0000 0.70660  0.80170  0.67210  Biso   1.000  H
  H3       1.0000 0.20660  0.69830  0.32790  Biso   1.000  H
  H4       1.0000 0.79340  0.30170  0.32790  Biso   1.000  H
  H5       1.0000 0.29750  0.14090  0.85190  Biso   1.000  H
  H6       1.0000 0.70250  0.85910  0.85190  Biso   1.000  H
  H7       1.0000 0.20250  0.64090  0.14810  Biso   1.000  H
  H8       1.0000 0.79750  0.35910  0.14810  Biso   1.000  H
  N5       1.0000 0.37030  0.31420  0.31820  Biso   1.000  N
  N6       1.0000 0.62970  0.68580  0.31820  Biso   1.000  N
  N7       1.0000 0.12970  0.81420  0.68180  Biso   1.000  N
  N8       1.0000 0.87030  0.18580  0.68180  Biso   1.000  N
  N9       1.0000 0.36800  0.31520  0.22550  Biso   1.000  N
  N10      1.0000 0.63200  0.68480  0.22550  Biso   1.000  N
  N11      1.0000 0.13200  0.81520  0.77450  Biso   1.000  N
  N12      1.0000 0.86800  0.18480  0.77450  Biso   1.000  N
  C1       1.0000 0.31140  0.73090  0.96680  Biso   1.000  C
  C2       1.0000 0.68860  0.26910  0.96680  Biso   1.000  C
  C3       1.0000 0.18860  0.23090  0.03320  Biso   1.000  C
  C4       1.0000 0.81140  0.76910  0.03320  Biso   1.000  C
  C5       1.0000 0.35980  0.83330  0.85400  Biso   1.000  C
  C6       1.0000 0.64020  0.16670  0.85400  Biso   1.000  C
  C7       1.0000 0.14020  0.33330  0.14600  Biso   1.000  C
  C8       1.0000 0.85980  0.66670  0.14600  Biso   1.000  C
  H9       1.0000 0.38290  0.92350  0.92510  Biso   1.000  H
  H10      1.0000 0.61710  0.07650  0.92510  Biso   1.000  H
  H11      1.0000 0.11710  0.42350  0.07490  Biso   1.000  H
  H12      1.0000 0.88290  0.57650  0.07490  Biso   1.000  H
  H13      1.0000 0.38890  0.73650  0.81280  Biso   1.000  H
  H14      1.0000 0.61110  0.26350  0.81280  Biso   1.000  H
  H15      1.0000 0.11110  0.23650  0.18720  Biso   1.000  H
  H16      1.0000 0.88890  0.76350  0.18720  Biso   1.000  H
  C9       1.0000 0.33450  0.94470  0.69960  Biso   1.000  C
  C10      1.0000 0.66550  0.05530  0.69960  Biso   1.000  C
  C11      1.0000 0.16550  0.44470  0.30040  Biso   1.000  C
  C12      1.0000 0.83450  0.55530  0.30040  Biso   1.000  C
  H17      1.0000 0.36990  0.00690  0.64240  Biso   1.000  H
  H18      1.0000 0.63010  0.99310  0.64240  Biso   1.000  H
  H19      1.0000 0.13010  0.50690  0.35760  Biso   1.000  H
  H20      1.0000 0.86990  0.49310  0.35760  Biso   1.000  H
  C13      1.0000 0.30420  0.80600  0.57070  Biso   1.000  C
  C14      1.0000 0.69580  0.19400  0.57070  Biso   1.000  C
  C15      1.0000 0.19580  0.30600  0.42930  Biso   1.000  C
  C16      1.0000 0.80420  0.69400  0.42930  Biso   1.000  C
  C17      1.0000 0.42630  0.38240  0.17910  Biso   1.000  C
  C18      1.0000 0.57370  0.61760  0.17910  Biso   1.000  C
  C19      1.0000 0.07370  0.88240  0.82090  Biso   1.000  C
  C20      1.0000 0.92630  0.11760  0.82090  Biso   1.000  C
  C21      1.0000 0.42710  0.38200  0.37750  Biso   1.000  C
  C22      1.0000 0.57290  0.61800  0.37750  Biso   1.000  C
  C23      1.0000 0.07290  0.88200  0.62250  Biso   1.000  C
  C24      1.0000 0.92710  0.11800  0.62250  Biso   1.000  C
  C25      1.0000 0.47960  0.26380  0.17130  Biso   1.000  C
  C26      1.0000 0.52040  0.73620  0.17130  Biso   1.000  C
  C27      1.0000 0.02040  0.76380  0.82870  Biso   1.000  C
  C28      1.0000 0.97960  0.23620  0.82870  Biso   1.000  C
  C29      1.0000 0.47740  0.25740  0.39120  Biso   1.000  C
  C30      1.0000 0.52260  0.74260  0.39120  Biso   1.000  C
  C31      1.0000 0.02260  0.75740  0.60880  Biso   1.000  C
  C32      1.0000 0.97740  0.24260  0.60880  Biso   1.000  C
  C33      1.0000 0.47120  0.06940  0.21020  Biso   1.000  C
  C34      1.0000 0.52880  0.93060  0.21020  Biso   1.000  C
  C35      1.0000 0.02880  0.56940  0.78980  Biso   1.000  C
  C36      1.0000 0.97120  0.43060  0.78980  Biso   1.000  C
  C37      1.0000 0.47310  0.06950  0.34790  Biso   1.000  C
  C38      1.0000 0.52690  0.93050  0.34790  Biso   1.000  C
  C39      1.0000 0.02690  0.56950  0.65210  Biso   1.000  C
  C40      1.0000 0.97310  0.43050  0.65210  Biso   1.000  C
  C41      1.0000 0.41420  0.99760  0.27410  Biso   1.000  C
  C42      1.0000 0.58580  0.00240  0.27410  Biso   1.000  C
  C43      1.0000 0.08580  0.49760  0.72590  Biso   1.000  C
  C44      1.0000 0.91420  0.50240  0.72590  Biso   1.000  C
  H21      1.0000 0.40610  0.85750  0.27130  Biso   1.000  H
  H22      1.0000 0.59390  0.14250  0.27130  Biso   1.000  H
  H23      1.0000 0.09390  0.35750  0.72870  Biso   1.000  H
  H24      1.0000 0.90610  0.64250  0.72870  Biso   1.000  H
  C45      1.0000 0.36520  0.12420  0.27350  Biso   1.000  C
  C46      1.0000 0.63480  0.87580  0.27350  Biso   1.000  C
  C47      1.0000 0.13480  0.62420  0.72650  Biso   1.000  C
  C48      1.0000 0.86520  0.37580  0.72650  Biso   1.000  C
  H25      1.0000 0.32360  0.06680  0.28170  Biso   1.000  H
  H26      1.0000 0.67640  0.93320  0.28170  Biso   1.000  H
  H27      1.0000 0.17640  0.56680  0.71830  Biso   1.000  H
  H28      1.0000 0.82360  0.43320  0.71830  Biso   1.000  H
