data_image0
_cell_length_a       10.3197
_cell_length_b       19.6947
_cell_length_c       11.0388
_cell_angle_alpha    90
_cell_angle_beta     112.798
_cell_angle_gamma    90

_symmetry_space_group_name_H-M    "P 1"
_symmetry_int_tables_number       1

loop_
  _symmetry_equiv_pos_as_xyz
  'x, y, z'

loop_
  _atom_site_label
  _atom_site_occupancy
  _atom_site_fract_x
  _atom_site_fract_y
  _atom_site_fract_z
  _atom_site_thermal_displace_type
  _atom_site_B_iso_or_equiv
  _atom_site_type_symbol
  Cu1      1.0000 0.13135  0.22802  0.58113  Biso   1.000  Cu
  Cu2      1.0000 0.86865  0.72802  0.91887  Biso   1.000  Cu
  Cu3      1.0000 0.86865  0.77198  0.41887  Biso   1.000  Cu
  Cu4      1.0000 0.13135  0.27198  0.08113  Biso   1.000  Cu
  S1       1.0000 0.21976  0.96486  0.65574  Biso   1.000  S
  S2       1.0000 0.78024  0.46486  0.84426  Biso   1.000  S
  S3       1.0000 0.78024  0.03514  0.34426  Biso   1.000  S
  S4       1.0000 0.21976  0.53514  0.15574  Biso   1.000  S
  O1       1.0000 0.26400  0.20418  0.49860  Biso   1.000  O
  O2       1.0000 0.73600  0.70418  0.00140  Biso   1.000  O
  O3       1.0000 0.73600  0.79582  0.50140  Biso   1.000  O
  O4       1.0000 0.26400  0.29582  0.99860  Biso   1.000  O
  O5       1.0000 0.35480  0.11626  0.43090  Biso   1.000  O
  O6       1.0000 0.64520  0.61626  0.06910  Biso   1.000  O
  O7       1.0000 0.64520  0.88374  0.56910  Biso   1.000  O
  O8       1.0000 0.35480  0.38374  0.93090  Biso   1.000  O
  O9       1.0000 0.12280  0.98930  0.71160  Biso   1.000  O
  O10      1.0000 0.87720  0.48930  0.78840  Biso   1.000  O
  O11      1.0000 0.87720  0.01070  0.28840  Biso   1.000  O
  O12      1.0000 0.12280  0.51070  0.21160  Biso   1.000  O
  O13      1.0000 0.15770  0.91870  0.54980  Biso   1.000  O
  O14      1.0000 0.84230  0.41870  0.95020  Biso   1.000  O
  O15      1.0000 0.84230  0.08130  0.45020  Biso   1.000  O
  O16      1.0000 0.15770  0.58130  0.04980  Biso   1.000  O
  O17      1.0000 0.34940  0.93860  0.75080  Biso   1.000  O
  O18      1.0000 0.65060  0.43860  0.74920  Biso   1.000  O
  O19      1.0000 0.65060  0.06140  0.24920  Biso   1.000  O
  O20      1.0000 0.34940  0.56140  0.25080  Biso   1.000  O
  O21      1.0000 0.30750  0.22892  0.79130  Biso   1.000  O
  O22      1.0000 0.69250  0.72892  0.70870  Biso   1.000  O
  O23      1.0000 0.69250  0.77108  0.20870  Biso   1.000  O
  O24      1.0000 0.30750  0.27108  0.29130  Biso   1.000  O
  O25      1.0000 0.53290  0.32810  0.83110  Biso   1.000  O
  O26      1.0000 0.46710  0.82810  0.66890  Biso   1.000  O
  O27      1.0000 0.46710  0.67190  0.16890  Biso   1.000  O
  O28      1.0000 0.53290  0.17190  0.33110  Biso   1.000  O
  N1       1.0000 0.97470  0.24590  0.63880  Biso   1.000  N
  N2       1.0000 0.02530  0.74590  0.86120  Biso   1.000  N
  N3       1.0000 0.02530  0.75410  0.36120  Biso   1.000  N
  N4       1.0000 0.97470  0.25410  0.13880  Biso   1.000  N
  N5       1.0000 0.77920  0.23690  0.67060  Biso   1.000  N
  N6       1.0000 0.22080  0.73690  0.82940  Biso   1.000  N
  N7       1.0000 0.22080  0.76310  0.32940  Biso   1.000  N
  N8       1.0000 0.77920  0.26310  0.17060  Biso   1.000  N
  N9       1.0000 0.76850  0.92140  0.99180  Biso   1.000  N
  N10      1.0000 0.23150  0.42140  0.50820  Biso   1.000  N
  N11      1.0000 0.23150  0.07860  0.00820  Biso   1.000  N
  N12      1.0000 0.76850  0.57860  0.49180  Biso   1.000  N
  C1       1.0000 0.96580  0.86770  0.03870  Biso   1.000  C
  C2       1.0000 0.03420  0.36770  0.46130  Biso   1.000  C
  C3       1.0000 0.03420  0.13230  0.96130  Biso   1.000  C
  C4       1.0000 0.96580  0.63230  0.53870  Biso   1.000  C
  N13      1.0000 0.12380  0.12720  0.60250  Biso   1.000  N
  N14      1.0000 0.87620  0.62720  0.89750  Biso   1.000  N
  N15      1.0000 0.87620  0.87280  0.39750  Biso   1.000  N
  N16      1.0000 0.12380  0.37280  0.10250  Biso   1.000  N
  C5       1.0000 0.96960  0.29750  0.72060  Biso   1.000  C
  C6       1.0000 0.03040  0.79750  0.77940  Biso   1.000  C
  C7       1.0000 0.03040  0.70250  0.27940  Biso   1.000  C
  C8       1.0000 0.96960  0.20250  0.22060  Biso   1.000  C
  C9       1.0000 0.84850  0.29190  0.74160  Biso   1.000  C
  C10      1.0000 0.15150  0.79190  0.75840  Biso   1.000  C
  C11      1.0000 0.15150  0.70810  0.25840  Biso   1.000  C
  C12      1.0000 0.84850  0.20810  0.24160  Biso   1.000  C
  H1       1.0000 0.81900  0.31990  0.79380  Biso   1.000  H
  H2       1.0000 0.18100  0.81990  0.70620  Biso   1.000  H
  H3       1.0000 0.18100  0.68010  0.20620  Biso   1.000  H
  H4       1.0000 0.81900  0.18010  0.29380  Biso   1.000  H
  C13      1.0000 0.85710  0.21050  0.61130  Biso   1.000  C
  C14      1.0000 0.14290  0.71050  0.88870  Biso   1.000  C
  C15      1.0000 0.14290  0.78950  0.38870  Biso   1.000  C
  C16      1.0000 0.85710  0.28950  0.11130  Biso   1.000  C
  H5       1.0000 0.83270  0.17240  0.55750  Biso   1.000  H
  H6       1.0000 0.16730  0.67240  0.94250  Biso   1.000  H
  H7       1.0000 0.16730  0.82760  0.44250  Biso   1.000  H
  H8       1.0000 0.83270  0.32760  0.05750  Biso   1.000  H
  C17      1.0000 0.64060  0.21080  0.66200  Biso   1.000  C
  C18      1.0000 0.35940  0.71080  0.83800  Biso   1.000  C
  C19      1.0000 0.35940  0.78920  0.33800  Biso   1.000  C
  C20      1.0000 0.64060  0.28920  0.16200  Biso   1.000  C
  C21      1.0000 0.65300  0.14960  0.74590  Biso   1.000  C
  C22      1.0000 0.34700  0.64960  0.75410  Biso   1.000  C
  C23      1.0000 0.34700  0.85040  0.25410  Biso   1.000  C
  C24      1.0000 0.65300  0.35040  0.24590  Biso   1.000  C
  C25      1.0000 0.64640  0.15590  0.86830  Biso   1.000  C
  C26      1.0000 0.35360  0.65590  0.63170  Biso   1.000  C
  C27      1.0000 0.35360  0.84410  0.13170  Biso   1.000  C
  C28      1.0000 0.64640  0.34410  0.36830  Biso   1.000  C
  H9       1.0000 0.63670  0.19860  0.89950  Biso   1.000  H
  H10      1.0000 0.36330  0.69860  0.60050  Biso   1.000  H
  H11      1.0000 0.36330  0.80140  0.10050  Biso   1.000  H
  H12      1.0000 0.63670  0.30140  0.39950  Biso   1.000  H
  C29      1.0000 0.65400  0.09900  0.94480  Biso   1.000  C
  C30      1.0000 0.34600  0.59900  0.55520  Biso   1.000  C
  C31      1.0000 0.34600  0.90100  0.05520  Biso   1.000  C
  C32      1.0000 0.65400  0.40100  0.44480  Biso   1.000  C
  C33      1.0000 0.66840  0.03440  0.90080  Biso   1.000  C
  C34      1.0000 0.33160  0.53440  0.59920  Biso   1.000  C
  C35      1.0000 0.33160  0.96560  0.09920  Biso   1.000  C
  C36      1.0000 0.66840  0.46560  0.40080  Biso   1.000  C
  C37      1.0000 0.67870  0.02830  0.77880  Biso   1.000  C
  C38      1.0000 0.32130  0.52830  0.72120  Biso   1.000  C
  C39      1.0000 0.32130  0.97170  0.22120  Biso   1.000  C
  C40      1.0000 0.67870  0.47170  0.27880  Biso   1.000  C
  H13      1.0000 0.69210  0.98580  0.74900  Biso   1.000  H
  H14      1.0000 0.30790  0.48580  0.75100  Biso   1.000  H
  H15      1.0000 0.30790  0.01420  0.25100  Biso   1.000  H
  H16      1.0000 0.69210  0.51420  0.24900  Biso   1.000  H
  C41      1.0000 0.66920  0.08460  0.70230  Biso   1.000  C
  C42      1.0000 0.33080  0.58460  0.79770  Biso   1.000  C
  C43      1.0000 0.33080  0.91540  0.29770  Biso   1.000  C
  C44      1.0000 0.66920  0.41540  0.20230  Biso   1.000  C
  C45      1.0000 0.66310  0.97350  0.98080  Biso   1.000  C
  C46      1.0000 0.33690  0.47350  0.51920  Biso   1.000  C
  C47      1.0000 0.33690  0.02650  0.01920  Biso   1.000  C
  C48      1.0000 0.66310  0.52650  0.48080  Biso   1.000  C
  H17      1.0000 0.67600  0.98850  0.06840  Biso   1.000  H
  H18      1.0000 0.32400  0.48850  0.43160  Biso   1.000  H
  H19      1.0000 0.32400  0.01150  0.93160  Biso   1.000  H
  H20      1.0000 0.67600  0.51150  0.56840  Biso   1.000  H
  H21      1.0000 0.57040  0.95320  0.94140  Biso   1.000  H
  H22      1.0000 0.42960  0.45320  0.55860  Biso   1.000  H
  H23      1.0000 0.42960  0.04680  0.05860  Biso   1.000  H
  H24      1.0000 0.57040  0.54680  0.44140  Biso   1.000  H
  C49      1.0000 0.74210  0.85880  0.94110  Biso   1.000  C
  C50      1.0000 0.25790  0.35880  0.55890  Biso   1.000  C
  C51      1.0000 0.25790  0.14120  0.05890  Biso   1.000  C
  C52      1.0000 0.74210  0.64120  0.44110  Biso   1.000  C
  N17      1.0000 0.85980  0.82400  0.96780  Biso   1.000  N
  N18      1.0000 0.14020  0.32400  0.53220  Biso   1.000  N
  N19      1.0000 0.14020  0.17600  0.03220  Biso   1.000  N
  N20      1.0000 0.85980  0.67600  0.46780  Biso   1.000  N
  C53      1.0000 0.91140  0.92720  0.05510  Biso   1.000  C
  C54      1.0000 0.08860  0.42720  0.44490  Biso   1.000  C
  C55      1.0000 0.08860  0.07280  0.94490  Biso   1.000  C
  C56      1.0000 0.91140  0.57280  0.55510  Biso   1.000  C
  C57      1.0000 0.28610  0.14050  0.49010  Biso   1.000  C
  C58      1.0000 0.71390  0.64050  0.00990  Biso   1.000  C
  C59      1.0000 0.71390  0.85950  0.50990  Biso   1.000  C
  C60      1.0000 0.28610  0.35950  0.99010  Biso   1.000  C
  C61      1.0000 0.21950  0.09190  0.55630  Biso   1.000  C
  C62      1.0000 0.78050  0.59190  0.94370  Biso   1.000  C
  C63      1.0000 0.78050  0.90810  0.44370  Biso   1.000  C
  C64      1.0000 0.21950  0.40810  0.05630  Biso   1.000  C
  C65      1.0000 0.30630  0.03990  0.62700  Biso   1.000  C
  C66      1.0000 0.69370  0.53990  0.87300  Biso   1.000  C
  C67      1.0000 0.69370  0.96010  0.37300  Biso   1.000  C
  C68      1.0000 0.30630  0.46010  0.12700  Biso   1.000  C
  H25      1.0000 0.03800  0.32900  0.75400  Biso   1.000  H
  H26      1.0000 0.96200  0.82900  0.74600  Biso   1.000  H
  H27      1.0000 0.96200  0.67100  0.24600  Biso   1.000  H
  H28      1.0000 0.03800  0.17100  0.25400  Biso   1.000  H
  H29      1.0000 0.58900  0.20000  0.57600  Biso   1.000  H
  H30      1.0000 0.41100  0.70000  0.92400  Biso   1.000  H
  H31      1.0000 0.41100  0.80000  0.42400  Biso   1.000  H
  H32      1.0000 0.58900  0.30000  0.07600  Biso   1.000  H
  H33      1.0000 0.59300  0.24600  0.68300  Biso   1.000  H
  H34      1.0000 0.40700  0.74600  0.81700  Biso   1.000  H
  H35      1.0000 0.40700  0.75400  0.31700  Biso   1.000  H
  H36      1.0000 0.59300  0.25400  0.18300  Biso   1.000  H
  H37      1.0000 0.65900  0.10500  0.02300  Biso   1.000  H
  H38      1.0000 0.34100  0.60500  0.47700  Biso   1.000  H
  H39      1.0000 0.34100  0.89500  0.97700  Biso   1.000  H
  H40      1.0000 0.65900  0.39500  0.52300  Biso   1.000  H
  H41      1.0000 0.67500  0.08100  0.62100  Biso   1.000  H
  H42      1.0000 0.32500  0.58100  0.87900  Biso   1.000  H
  H43      1.0000 0.32500  0.91900  0.37900  Biso   1.000  H
  H44      1.0000 0.67500  0.41900  0.12100  Biso   1.000  H
  H45      1.0000 0.65800  0.84300  0.90800  Biso   1.000  H
  H46      1.0000 0.34200  0.34300  0.59200  Biso   1.000  H
  H47      1.0000 0.34200  0.15700  0.09200  Biso   1.000  H
  H48      1.0000 0.65800  0.65700  0.40800  Biso   1.000  H
  H49      1.0000 0.04500  0.85300  0.06400  Biso   1.000  H
  H50      1.0000 0.95500  0.35300  0.43600  Biso   1.000  H
  H51      1.0000 0.95500  0.14700  0.93600  Biso   1.000  H
  H52      1.0000 0.04500  0.64700  0.56400  Biso   1.000  H
  H53      1.0000 0.95200  0.96500  0.09400  Biso   1.000  H
  H54      1.0000 0.04800  0.46500  0.40600  Biso   1.000  H
  H55      1.0000 0.04800  0.03500  0.90600  Biso   1.000  H
  H56      1.0000 0.95200  0.53500  0.59400  Biso   1.000  H
  H57      1.0000 0.04300  0.11300  0.55500  Biso   1.000  H
  H58      1.0000 0.95700  0.61300  0.94500  Biso   1.000  H
  H59      1.0000 0.95700  0.88700  0.44500  Biso   1.000  H
  H60      1.0000 0.04300  0.38700  0.05500  Biso   1.000  H
  H61      1.0000 0.13500  0.12700  0.66600  Biso   1.000  H
  H62      1.0000 0.86500  0.62700  0.83400  Biso   1.000  H
  H63      1.0000 0.86500  0.87300  0.33400  Biso   1.000  H
  H64      1.0000 0.13500  0.37300  0.16600  Biso   1.000  H
  H65      1.0000 0.58180  0.36350  0.82190  Biso   1.000  H
  H66      1.0000 0.41820  0.86350  0.67810  Biso   1.000  H
  H67      1.0000 0.41820  0.63650  0.17810  Biso   1.000  H
  H68      1.0000 0.58180  0.13650  0.32190  Biso   1.000  H
  H69      1.0000 0.48670  0.34730  0.86010  Biso   1.000  H
  H70      1.0000 0.51330  0.84730  0.63990  Biso   1.000  H
  H71      1.0000 0.51330  0.65270  0.13990  Biso   1.000  H
  H72      1.0000 0.48670  0.15270  0.36010  Biso   1.000  H
  H73      1.0000 0.29920  0.24480  0.86290  Biso   1.000  H
  H74      1.0000 0.70080  0.74480  0.63710  Biso   1.000  H
  H75      1.0000 0.70080  0.75520  0.13710  Biso   1.000  H
  H76      1.0000 0.29920  0.25520  0.36290  Biso   1.000  H
  H77      1.0000 0.38430  0.24270  0.79960  Biso   1.000  H
  H78      1.0000 0.61570  0.74270  0.70040  Biso   1.000  H
  H79      1.0000 0.61570  0.75730  0.20040  Biso   1.000  H
  H80      1.0000 0.38430  0.25730  0.29960  Biso   1.000  H
  C69      1.0000 0.21950  0.02610  0.53410  Biso   1.000  C
  C70      1.0000 0.78050  0.52610  0.96590  Biso   1.000  C
  C71      1.0000 0.78050  0.97390  0.46590  Biso   1.000  C
  C72      1.0000 0.21950  0.47390  0.03410  Biso   1.000  C
