data_image0
_cell_length_a       23.234
_cell_length_b       5.1735
_cell_length_c       11.294
_cell_angle_alpha    90
_cell_angle_beta     90
_cell_angle_gamma    90

_symmetry_space_group_name_H-M    "P 1"
_symmetry_int_tables_number       1

loop_
  _symmetry_equiv_pos_as_xyz
  'x, y, z'

loop_
  _atom_site_label
  _atom_site_occupancy
  _atom_site_fract_x
  _atom_site_fract_y
  _atom_site_fract_z
  _atom_site_thermal_displace_type
  _atom_site_B_iso_or_equiv
  _atom_site_type_symbol
  Cu1      1.0000 0.73724  0.97332  0.70654  Biso   1.000  Cu
  Cu2      1.0000 0.26276  0.02668  0.70654  Biso   1.000  Cu
  Cu3      1.0000 0.76276  0.47332  0.29346  Biso   1.000  Cu
  Cu4      1.0000 0.23724  0.52668  0.29346  Biso   1.000  Cu
  O1       1.0000 0.72550  0.70960  0.53980  Biso   1.000  O
  O2       1.0000 0.27450  0.29040  0.53980  Biso   1.000  O
  O3       1.0000 0.77450  0.20960  0.46020  Biso   1.000  O
  O4       1.0000 0.22550  0.79040  0.46020  Biso   1.000  O
  O5       1.0000 0.69920  0.68040  0.35160  Biso   1.000  O
  O6       1.0000 0.30080  0.31960  0.35160  Biso   1.000  O
  O7       1.0000 0.80080  0.18040  0.64840  Biso   1.000  O
  O8       1.0000 0.19920  0.81960  0.64840  Biso   1.000  O
  O9       1.0000 0.66970  0.78030  0.76680  Biso   1.000  O
  O10      1.0000 0.33030  0.21970  0.76680  Biso   1.000  O
  O11      1.0000 0.83030  0.28030  0.23320  Biso   1.000  O
  O12      1.0000 0.16970  0.71970  0.23320  Biso   1.000  O
  O13      1.0000 0.59060  0.62560  0.68790  Biso   1.000  O
  O14      1.0000 0.40940  0.37440  0.68790  Biso   1.000  O
  O15      1.0000 0.90940  0.12560  0.31210  Biso   1.000  O
  O16      1.0000 0.09060  0.87440  0.31210  Biso   1.000  O
  O17      1.0000 0.50000  0.50000  0.54910  Biso   1.000  O
  O18      1.0000 0.00000  0.00000  0.45090  Biso   1.000  O
  O19      1.0000 0.50000  0.00000  0.38000  Biso   1.000  O
  O20      1.0000 0.00000  0.50000  0.62000  Biso   1.000  O
  N1       1.0000 0.67640  0.18660  0.62940  Biso   1.000  N
  N2       1.0000 0.32360  0.81340  0.62940  Biso   1.000  N
  N3       1.0000 0.82360  0.68660  0.37060  Biso   1.000  N
  N4       1.0000 0.17640  0.31340  0.37060  Biso   1.000  N
  H1       1.0000 0.66420  0.31180  0.67870  Biso   1.000  H
  H2       1.0000 0.33580  0.68820  0.67870  Biso   1.000  H
  H3       1.0000 0.83580  0.81180  0.32130  Biso   1.000  H
  H4       1.0000 0.16420  0.18820  0.32130  Biso   1.000  H
  H5       1.0000 0.68990  0.26050  0.56290  Biso   1.000  H
  H6       1.0000 0.31010  0.73950  0.56290  Biso   1.000  H
  H7       1.0000 0.81010  0.76050  0.43710  Biso   1.000  H
  H8       1.0000 0.18990  0.23950  0.43710  Biso   1.000  H
  N5       1.0000 0.78950  0.82810  0.82810  Biso   1.000  N
  N6       1.0000 0.21050  0.17190  0.82810  Biso   1.000  N
  N7       1.0000 0.71050  0.32810  0.17190  Biso   1.000  N
  N8       1.0000 0.28950  0.67190  0.17190  Biso   1.000  N
  N9       1.0000 0.85930  0.82140  0.95370  Biso   1.000  N
  N10      1.0000 0.14070  0.17860  0.95370  Biso   1.000  N
  N11      1.0000 0.64070  0.32140  0.04630  Biso   1.000  N
  N12      1.0000 0.35930  0.67860  0.04630  Biso   1.000  N
  C1       1.0000 0.69200  0.75220  0.45670  Biso   1.000  C
  C2       1.0000 0.30800  0.24780  0.45670  Biso   1.000  C
  C3       1.0000 0.80800  0.25220  0.54330  Biso   1.000  C
  C4       1.0000 0.19200  0.74780  0.54330  Biso   1.000  C
  C5       1.0000 0.63780  0.90800  0.47800  Biso   1.000  C
  C6       1.0000 0.36220  0.09200  0.47800  Biso   1.000  C
  C7       1.0000 0.86220  0.40800  0.52200  Biso   1.000  C
  C8       1.0000 0.13780  0.59200  0.52200  Biso   1.000  C
  H9       1.0000 0.63800  0.05470  0.42430  Biso   1.000  H
  H10      1.0000 0.36200  0.94530  0.42430  Biso   1.000  H
  H11      1.0000 0.86200  0.55470  0.57570  Biso   1.000  H
  H12      1.0000 0.13800  0.44530  0.57570  Biso   1.000  H
  H13      1.0000 0.60490  0.80160  0.45750  Biso   1.000  H
  H14      1.0000 0.39510  0.19840  0.45750  Biso   1.000  H
  H15      1.0000 0.89510  0.30160  0.54250  Biso   1.000  H
  H16      1.0000 0.10490  0.69840  0.54250  Biso   1.000  H
  C9       1.0000 0.62920  0.00800  0.60160  Biso   1.000  C
  C10      1.0000 0.37080  0.99200  0.60160  Biso   1.000  C
  C11      1.0000 0.87080  0.50800  0.39840  Biso   1.000  C
  C12      1.0000 0.12920  0.49200  0.39840  Biso   1.000  C
  H17      1.0000 0.59250  0.10050  0.60620  Biso   1.000  H
  H18      1.0000 0.40750  0.89950  0.60620  Biso   1.000  H
  H19      1.0000 0.90750  0.60050  0.39380  Biso   1.000  H
  H20      1.0000 0.09250  0.39950  0.39380  Biso   1.000  H
  C13      1.0000 0.62960  0.78670  0.69290  Biso   1.000  C
  C14      1.0000 0.37040  0.21330  0.69290  Biso   1.000  C
  C15      1.0000 0.87040  0.28670  0.30710  Biso   1.000  C
  C16      1.0000 0.12960  0.71330  0.30710  Biso   1.000  C
  C17      1.0000 0.77990  0.62500  0.90380  Biso   1.000  C
  C18      1.0000 0.22010  0.37500  0.90380  Biso   1.000  C
  C19      1.0000 0.72010  0.12500  0.09620  Biso   1.000  C
  C20      1.0000 0.27990  0.87500  0.09620  Biso   1.000  C
  H21      1.0000 0.74880  0.51230  0.90090  Biso   1.000  H
  H22      1.0000 0.25120  0.48770  0.90090  Biso   1.000  H
  H23      1.0000 0.75120  0.01230  0.09910  Biso   1.000  H
  H24      1.0000 0.24880  0.98770  0.09910  Biso   1.000  H
  C21      1.0000 0.82360  0.61600  0.98370  Biso   1.000  C
  C22      1.0000 0.17640  0.38400  0.98370  Biso   1.000  C
  C23      1.0000 0.67640  0.11600  0.01630  Biso   1.000  C
  C24      1.0000 0.32360  0.88400  0.01630  Biso   1.000  C
  H25      1.0000 0.82850  0.49840  0.04510  Biso   1.000  H
  H26      1.0000 0.17150  0.50160  0.04510  Biso   1.000  H
  H27      1.0000 0.67150  0.99840  0.95490  Biso   1.000  H
  H28      1.0000 0.32850  0.00160  0.95490  Biso   1.000  H
  C25      1.0000 0.83680  0.93480  0.86080  Biso   1.000  C
  C26      1.0000 0.16320  0.06520  0.86080  Biso   1.000  C
  C27      1.0000 0.66320  0.43480  0.13920  Biso   1.000  C
  C28      1.0000 0.33680  0.56520  0.13920  Biso   1.000  C
  H29      1.0000 0.85320  0.07640  0.82290  Biso   1.000  H
  H30      1.0000 0.14680  0.92360  0.82290  Biso   1.000  H
  H31      1.0000 0.64680  0.57640  0.17710  Biso   1.000  H
  H32      1.0000 0.35320  0.42360  0.17710  Biso   1.000  H
  C29      1.0000 0.91130  0.89800  0.01910  Biso   1.000  C
  C30      1.0000 0.08870  0.10200  0.01910  Biso   1.000  C
  C31      1.0000 0.58870  0.39800  0.98090  Biso   1.000  C
  C32      1.0000 0.41130  0.60200  0.98090  Biso   1.000  C
  H33      1.0000 0.90090  0.93640  0.10040  Biso   1.000  H
  H34      1.0000 0.09910  0.06360  0.10040  Biso   1.000  H
  H35      1.0000 0.59910  0.43640  0.89960  Biso   1.000  H
  H36      1.0000 0.40090  0.56360  0.89960  Biso   1.000  H
  H37      1.0000 0.92680  0.05440  0.98420  Biso   1.000  H
  H38      1.0000 0.07320  0.94560  0.98420  Biso   1.000  H
  H39      1.0000 0.57320  0.55440  0.01580  Biso   1.000  H
  H40      1.0000 0.42680  0.44560  0.01580  Biso   1.000  H
  C33      1.0000 0.95740  0.69100  0.01870  Biso   1.000  C
  C34      1.0000 0.04260  0.30900  0.01870  Biso   1.000  C
  C35      1.0000 0.54260  0.19100  0.98130  Biso   1.000  C
  C36      1.0000 0.45740  0.80900  0.98130  Biso   1.000  C
  C37      1.0000 0.97880  0.59400  0.12230  Biso   1.000  C
  C38      1.0000 0.02120  0.40600  0.12230  Biso   1.000  C
  C39      1.0000 0.52120  0.09400  0.87770  Biso   1.000  C
  C40      1.0000 0.47880  0.90600  0.87770  Biso   1.000  C
  H41      1.0000 0.96460  0.65460  0.19410  Biso   1.000  H
  H42      1.0000 0.03540  0.34540  0.19410  Biso   1.000  H
  H43      1.0000 0.53540  0.15460  0.80590  Biso   1.000  H
  H44      1.0000 0.46460  0.84540  0.80590  Biso   1.000  H
  C41      1.0000 0.97880  0.59100  0.91340  Biso   1.000  C
  C42      1.0000 0.02120  0.40900  0.91340  Biso   1.000  C
  C43      1.0000 0.52120  0.09100  0.08660  Biso   1.000  C
  C44      1.0000 0.47880  0.90900  0.08660  Biso   1.000  C
  H45      1.0000 0.96410  0.64990  0.84170  Biso   1.000  H
  H46      1.0000 0.03590  0.35010  0.84170  Biso   1.000  H
  H47      1.0000 0.53590  0.14990  0.15830  Biso   1.000  H
  H48      1.0000 0.46410  0.85010  0.15830  Biso   1.000  H
