data_image0
_cell_length_a       9.602
_cell_length_b       11.394
_cell_length_c       14.2
_cell_angle_alpha    79.385
_cell_angle_beta     83.276
_cell_angle_gamma    65.372

_symmetry_space_group_name_H-M    "P 1"
_symmetry_int_tables_number       1

loop_
  _symmetry_equiv_pos_as_xyz
  'x, y, z'

loop_
  _atom_site_label
  _atom_site_occupancy
  _atom_site_fract_x
  _atom_site_fract_y
  _atom_site_fract_z
  _atom_site_thermal_displace_type
  _atom_site_B_iso_or_equiv
  _atom_site_type_symbol
  Cu1      1.0000 0.52404  0.59733  0.06715  Biso   1.000  Cu
  Cu2      1.0000 0.47596  0.40267  0.93285  Biso   1.000  Cu
  O1       1.0000 0.35130  0.59310  0.00720  Biso   1.000  O
  O2       1.0000 0.64870  0.40690  0.99280  Biso   1.000  O
  O3       1.0000 0.21220  0.78860  0.04710  Biso   1.000  O
  O4       1.0000 0.78780  0.21140  0.95290  Biso   1.000  O
  O5       1.0000 0.71060  0.58420  0.11790  Biso   1.000  O
  O6       1.0000 0.28940  0.41580  0.88210  Biso   1.000  O
  O7       1.0000 0.55760  0.75750  0.18440  Biso   1.000  O
  O8       1.0000 0.44240  0.24250  0.81560  Biso   1.000  O
  N1       1.0000 0.46940  0.51160  0.19380  Biso   1.000  N
  N2       1.0000 0.53060  0.48840  0.80620  Biso   1.000  N
  N3       1.0000 0.44250  0.22380  0.51090  Biso   1.000  N
  N4       1.0000 0.55750  0.77620  0.48910  Biso   1.000  N
  N5       1.0000 0.58820  0.08020  0.68860  Biso   1.000  N
  N6       1.0000 0.41180  0.91980  0.31140  Biso   1.000  N
  H1       1.0000 0.52900  0.14500  0.72200  Biso   1.000  H
  H2       1.0000 0.47100  0.85500  0.27800  Biso   1.000  H
  N7       1.0000 0.56300  0.71720  0.95370  Biso   1.000  N
  N8       1.0000 0.43700  0.28280  0.04630  Biso   1.000  N
  C1       1.0000 0.22510  0.69260  0.01160  Biso   1.000  C
  C2       1.0000 0.77490  0.30740  0.98840  Biso   1.000  C
  C3       1.0000 0.68720  0.67360  0.16620  Biso   1.000  C
  C4       1.0000 0.31280  0.32640  0.83380  Biso   1.000  C
  C5       1.0000 0.34050  0.57750  0.24300  Biso   1.000  C
  C6       1.0000 0.65950  0.42250  0.75700  Biso   1.000  C
  H3       1.0000 0.27940  0.66550  0.21800  Biso   1.000  H
  H4       1.0000 0.72060  0.33450  0.78200  Biso   1.000  H
  C7       1.0000 0.29340  0.52270  0.32810  Biso   1.000  C
  C8       1.0000 0.70660  0.47730  0.67190  Biso   1.000  C
  H5       1.0000 0.20090  0.57240  0.36050  Biso   1.000  H
  H6       1.0000 0.79910  0.42760  0.63950  Biso   1.000  H
  C9       1.0000 0.55670  0.38890  0.23270  Biso   1.000  C
  C10      1.0000 0.44330  0.61110  0.76730  Biso   1.000  C
  H7       1.0000 0.65060  0.34200  0.20030  Biso   1.000  H
  H8       1.0000 0.34940  0.65800  0.79970  Biso   1.000  H
  C11      1.0000 0.51490  0.32810  0.31830  Biso   1.000  C
  C12      1.0000 0.48510  0.67190  0.68170  Biso   1.000  C
  H9       1.0000 0.57870  0.24090  0.34320  Biso   1.000  H
  H10      1.0000 0.42130  0.75910  0.65680  Biso   1.000  H
  C13      1.0000 0.38080  0.39510  0.36670  Biso   1.000  C
  C14      1.0000 0.61920  0.60490  0.63330  Biso   1.000  C
  C15      1.0000 0.32170  0.33250  0.45580  Biso   1.000  C
  C16      1.0000 0.67830  0.66750  0.54420  Biso   1.000  C
  H11      1.0000 0.26390  0.39970  0.49750  Biso   1.000  H
  H12      1.0000 0.73610  0.60030  0.50250  Biso   1.000  H
  H13      1.0000 0.24930  0.30010  0.43730  Biso   1.000  H
  H14      1.0000 0.75070  0.69990  0.56270  Biso   1.000  H
  C17      1.0000 0.37450  0.14980  0.58180  Biso   1.000  C
  C18      1.0000 0.62550  0.85020  0.41820  Biso   1.000  C
  H15      1.0000 0.31460  0.11830  0.54860  Biso   1.000  H
  H16      1.0000 0.68540  0.88170  0.45140  Biso   1.000  H
  H17      1.0000 0.30320  0.20810  0.62610  Biso   1.000  H
  H18      1.0000 0.69680  0.79190  0.37390  Biso   1.000  H
  C19      1.0000 0.49410  0.03550  0.63840  Biso   1.000  C
  C20      1.0000 0.50590  0.96450  0.36160  Biso   1.000  C
  H19      1.0000 0.56170  0.97400  0.59490  Biso   1.000  H
  H20      1.0000 0.43830  0.02600  0.40510  Biso   1.000  H
  H21      1.0000 0.44390  0.98890  0.68630  Biso   1.000  H
  H22      1.0000 0.55610  0.01110  0.31370  Biso   1.000  H
  C21      1.0000 0.65470  0.15890  0.61660  Biso   1.000  C
  C22      1.0000 0.34530  0.84110  0.38340  Biso   1.000  C
  H23      1.0000 0.72790  0.10250  0.57190  Biso   1.000  H
  H24      1.0000 0.27210  0.89750  0.42810  Biso   1.000  H
  H25      1.0000 0.71130  0.19340  0.64990  Biso   1.000  H
  H26      1.0000 0.28870  0.80660  0.35010  Biso   1.000  H
  C23      1.0000 0.52950  0.27050  0.56110  Biso   1.000  C
  C24      1.0000 0.47050  0.72950  0.43890  Biso   1.000  C
  H27      1.0000 0.45930  0.32900  0.60560  Biso   1.000  H
  H28      1.0000 0.54070  0.67100  0.39440  Biso   1.000  H
  H29      1.0000 0.57530  0.32150  0.51390  Biso   1.000  H
  H30      1.0000 0.42470  0.67850  0.48610  Biso   1.000  H
  C25      1.0000 0.71410  0.97020  0.74540  Biso   1.000  C
  C26      1.0000 0.28590  0.02980  0.25460  Biso   1.000  C
  H31      1.0000 0.76690  0.00740  0.77930  Biso   1.000  H
  H32      1.0000 0.23310  0.99260  0.22070  Biso   1.000  H
  H33      1.0000 0.79020  0.91590  0.70070  Biso   1.000  H
  H34      1.0000 0.20980  0.08410  0.29930  Biso   1.000  H
  C27      1.0000 0.72930  0.74900  0.82260  Biso   1.000  C
  C28      1.0000 0.27070  0.25100  0.17740  Biso   1.000  C
  H35      1.0000 0.81210  0.71140  0.77870  Biso   1.000  H
  H36      1.0000 0.18790  0.28860  0.22130  Biso   1.000  H
  C29      1.0000 0.65550  0.88450  0.81790  Biso   1.000  C
  C30      1.0000 0.34450  0.11550  0.18210  Biso   1.000  C
  C31      1.0000 0.53420  0.93230  0.88250  Biso   1.000  C
  C32      1.0000 0.46580  0.06770  0.11750  Biso   1.000  C
  H37      1.0000 0.48130  0.02380  0.88230  Biso   1.000  H
  H38      1.0000 0.51870  0.97620  0.11770  Biso   1.000  H
  C33      1.0000 0.68080  0.67140  0.89120  Biso   1.000  C
  C34      1.0000 0.31920  0.32860  0.10880  Biso   1.000  C
  H39      1.0000 0.73410  0.57940  0.89460  Biso   1.000  H
  H40      1.0000 0.26590  0.42060  0.10540  Biso   1.000  H
  C35      1.0000 0.49000  0.84740  0.94710  Biso   1.000  C
  C36      1.0000 0.51000  0.15260  0.05290  Biso   1.000  C
  H41      1.0000 0.40350  0.88250  0.98930  Biso   1.000  H
  H42      1.0000 0.59650  0.11750  0.01070  Biso   1.000  H
  C37      1.0000 0.82920  0.67510  0.20220  Biso   1.000  C
  C38      1.0000 0.17080  0.32490  0.79780  Biso   1.000  C
  H43      1.0000 0.85640  0.61430  0.26330  Biso   1.000  H
  H44      1.0000 0.14360  0.38570  0.73670  Biso   1.000  H
  H45      1.0000 0.80500  0.76390  0.21580  Biso   1.000  H
  H46      1.0000 0.19500  0.23610  0.78420  Biso   1.000  H
  C39      1.0000 0.96770  0.63660  0.13160  Biso   1.000  C
  C40      1.0000 0.03230  0.36340  0.86840  Biso   1.000  C
  H47      1.0000 0.05810  0.63040  0.16270  Biso   1.000  H
  H48      1.0000 0.94190  0.36960  0.83730  Biso   1.000  H
  H49      1.0000 0.98970  0.54910  0.11630  Biso   1.000  H
  H50      1.0000 0.01030  0.45090  0.88370  Biso   1.000  H
  C41      1.0000 0.94580  0.73160  0.03890  Biso   1.000  C
  C42      1.0000 0.05420  0.26840  0.96110  Biso   1.000  C
  H51      1.0000 0.92470  0.81920  0.05360  Biso   1.000  H
  H52      1.0000 0.07530  0.18080  0.94640  Biso   1.000  H
  H53      1.0000 0.85580  0.73800  0.00720  Biso   1.000  H
  H54      1.0000 0.14420  0.26200  0.99280  Biso   1.000  H
  C43      1.0000 0.08750  0.68890  0.97000  Biso   1.000  C
  C44      1.0000 0.91250  0.31110  0.03000  Biso   1.000  C
  H55      1.0000 0.11260  0.59920  0.95810  Biso   1.000  H
  H56      1.0000 0.88740  0.40080  0.04190  Biso   1.000  H
  H57      1.0000 0.06460  0.74770  0.90790  Biso   1.000  H
  H58      1.0000 0.93540  0.25230  0.09210  Biso   1.000  H
  O9       1.0000 0.00220  0.61570  0.64130  Biso   1.000  O
  O10      1.0000 0.99780  0.38430  0.35870  Biso   1.000  O
  O11      1.0000 0.15600  0.66970  0.53700  Biso   1.000  O
  O12      1.0000 0.84400  0.33030  0.46300  Biso   1.000  O
  O13      1.0000 0.09520  0.76210  0.66760  Biso   1.000  O
  O14      1.0000 0.90480  0.23790  0.33240  Biso   1.000  O
  O15      1.0000 0.11400  0.02600  0.62900  Biso   1.000  O
  O16      1.0000 0.88600  0.97400  0.37100  Biso   1.000  O
  O17      1.0000 0.00420  0.98940  0.89320  Biso   1.000  O
  O18      1.0000 0.99580  0.01060  0.10680  Biso   1.000  O
  O19      1.0000 0.92630  0.82150  0.56000  Biso   1.000  O
  O20      1.0000 0.07370  0.17850  0.44000  Biso   1.000  O
  Cl1      1.0000 0.05750  0.72990  0.59350  Biso   1.000  Cl
  Cl2      1.0000 0.94250  0.27010  0.40650  Biso   1.000  Cl
  O21      1.0000 0.17990  0.95290  0.72510  Biso   1.000  O
  O22      1.0000 0.82010  0.04710  0.27490  Biso   1.000  O
  Cl3      1.0000 0.10400  0.65100  0.61600  Biso   1.000  Cl
  Cl4      1.0000 0.89600  0.34900  0.38400  Biso   1.000  Cl
  O23      1.0000 0.24100  0.56900  0.61200  Biso   1.000  O
  O24      1.0000 0.75900  0.43100  0.38800  Biso   1.000  O
  O25      1.0000 0.97600  0.20470  0.65630  Biso   1.000  O
  O26      1.0000 0.02400  0.79530  0.34370  Biso   1.000  O
