data_image0
_cell_length_a       7.5366
_cell_length_b       9.427
_cell_length_c       8.9888
_cell_angle_alpha    90
_cell_angle_beta     96.744
_cell_angle_gamma    90

_symmetry_space_group_name_H-M    "P 1"
_symmetry_int_tables_number       1

loop_
  _symmetry_equiv_pos_as_xyz
  'x, y, z'

loop_
  _atom_site_label
  _atom_site_occupancy
  _atom_site_fract_x
  _atom_site_fract_y
  _atom_site_fract_z
  _atom_site_thermal_displace_type
  _atom_site_B_iso_or_equiv
  _atom_site_type_symbol
  C1       1.0000 0.72740  0.70070  0.09750  Biso   1.000  C
  C2       1.0000 0.27260  0.20070  0.40250  Biso   1.000  C
  C3       1.0000 0.27260  0.29930  0.90250  Biso   1.000  C
  C4       1.0000 0.72740  0.79930  0.59750  Biso   1.000  C
  H1       1.0000 0.63210  0.64820  0.05100  Biso   1.000  H
  H2       1.0000 0.36790  0.14820  0.44900  Biso   1.000  H
  H3       1.0000 0.36790  0.35180  0.94900  Biso   1.000  H
  H4       1.0000 0.63210  0.85180  0.55100  Biso   1.000  H
  C5       1.0000 0.98310  0.77190  0.18130  Biso   1.000  C
  C6       1.0000 0.01690  0.27190  0.31870  Biso   1.000  C
  C7       1.0000 0.01690  0.22810  0.81870  Biso   1.000  C
  C8       1.0000 0.98310  0.72810  0.68130  Biso   1.000  C
  H5       1.0000 0.10680  0.77570  0.20310  Biso   1.000  H
  H6       1.0000 0.89320  0.27570  0.29690  Biso   1.000  H
  H7       1.0000 0.89320  0.22430  0.79690  Biso   1.000  H
  H8       1.0000 0.10680  0.72430  0.70310  Biso   1.000  H
  C9       1.0000 0.54940  0.90020  0.19060  Biso   1.000  C
  C10      1.0000 0.45060  0.40020  0.30940  Biso   1.000  C
  C11      1.0000 0.45060  0.09980  0.80940  Biso   1.000  C
  C12      1.0000 0.54940  0.59980  0.69060  Biso   1.000  C
  H9       1.0000 0.55880  0.93680  0.29210  Biso   1.000  H
  H10      1.0000 0.44120  0.43680  0.20790  Biso   1.000  H
  H11      1.0000 0.44120  0.06320  0.70790  Biso   1.000  H
  H12      1.0000 0.55880  0.56320  0.79210  Biso   1.000  H
  H13      1.0000 0.44780  0.83640  0.17720  Biso   1.000  H
  H14      1.0000 0.55220  0.33640  0.32280  Biso   1.000  H
  H15      1.0000 0.55220  0.16360  0.82280  Biso   1.000  H
  H16      1.0000 0.44780  0.66360  0.67720  Biso   1.000  H
  C13      1.0000 0.51670  0.02260  0.08160  Biso   1.000  C
  C14      1.0000 0.48330  0.52260  0.41840  Biso   1.000  C
  C15      1.0000 0.48330  0.97740  0.91840  Biso   1.000  C
  C16      1.0000 0.51670  0.47740  0.58160  Biso   1.000  C
  H17      1.0000 0.61960  0.08520  0.09400  Biso   1.000  H
  H18      1.0000 0.38040  0.58520  0.40600  Biso   1.000  H
  H19      1.0000 0.38040  0.91480  0.90600  Biso   1.000  H
  H20      1.0000 0.61960  0.41480  0.59400  Biso   1.000  H
  H21      1.0000 0.41430  0.07620  0.10640  Biso   1.000  H
  H22      1.0000 0.58570  0.57620  0.39360  Biso   1.000  H
  H23      1.0000 0.58570  0.92380  0.89360  Biso   1.000  H
  H24      1.0000 0.41430  0.42380  0.60640  Biso   1.000  H
  Cl1      1.0000 0.26352  0.62060  0.99325  Biso   1.000  Cl
  Cl2      1.0000 0.73648  0.12060  0.50675  Biso   1.000  Cl
  Cl3      1.0000 0.73648  0.37940  0.00675  Biso   1.000  Cl
  Cl4      1.0000 0.26352  0.87940  0.49325  Biso   1.000  Cl
  Cu1      1.0000 0.00000  0.50000  0.00000  Biso   1.000  Cu
  Cu2      1.0000 0.00000  0.00000  0.50000  Biso   1.000  Cu
  N1       1.0000 0.89810  0.66590  0.09958  Biso   1.000  N
  N2       1.0000 0.10190  0.16590  0.40042  Biso   1.000  N
  N3       1.0000 0.10190  0.33410  0.90042  Biso   1.000  N
  N4       1.0000 0.89810  0.83410  0.59958  Biso   1.000  N
  N5       1.0000 0.71210  0.82048  0.17081  Biso   1.000  N
  N6       1.0000 0.28790  0.32048  0.32919  Biso   1.000  N
  N7       1.0000 0.28790  0.17952  0.82919  Biso   1.000  N
  N8       1.0000 0.71210  0.67952  0.67081  Biso   1.000  N
  N9       1.0000 0.87700  0.86870  0.22720  Biso   1.000  N
  N10      1.0000 0.12300  0.36870  0.27280  Biso   1.000  N
  N11      1.0000 0.12300  0.13130  0.77280  Biso   1.000  N
  N12      1.0000 0.87700  0.63130  0.72720  Biso   1.000  N
