data_image0
_cell_length_a       7.51713
_cell_length_b       9.3972
_cell_length_c       8.9419
_cell_angle_alpha    90
_cell_angle_beta     96.975
_cell_angle_gamma    90

_symmetry_space_group_name_H-M    "P 1"
_symmetry_int_tables_number       1

loop_
  _symmetry_equiv_pos_as_xyz
  'x, y, z'

loop_
  _atom_site_label
  _atom_site_occupancy
  _atom_site_fract_x
  _atom_site_fract_y
  _atom_site_fract_z
  _atom_site_thermal_displace_type
  _atom_site_B_iso_or_equiv
  _atom_site_type_symbol
  Cu1      1.0000 0.50000  0.00000  0.00000  Biso   1.000  Cu
  Cu2      1.0000 0.50000  0.50000  0.50000  Biso   1.000  Cu
  C1       1.0000 0.48410  0.27160  0.18440  Biso   1.000  C
  C2       1.0000 0.51590  0.77160  0.31560  Biso   1.000  C
  C3       1.0000 0.51590  0.72840  0.81560  Biso   1.000  C
  C4       1.0000 0.48410  0.22840  0.68440  Biso   1.000  C
  H1       1.0000 0.60820  0.27540  0.20620  Biso   1.000  H
  H2       1.0000 0.39180  0.77540  0.29380  Biso   1.000  H
  H3       1.0000 0.39180  0.72460  0.79380  Biso   1.000  H
  H4       1.0000 0.60820  0.22460  0.70620  Biso   1.000  H
  C5       1.0000 0.22690  0.20030  0.09830  Biso   1.000  C
  C6       1.0000 0.77310  0.70030  0.40170  Biso   1.000  C
  C7       1.0000 0.77310  0.79970  0.90170  Biso   1.000  C
  C8       1.0000 0.22690  0.29970  0.59830  Biso   1.000  C
  H5       1.0000 0.13140  0.14820  0.05030  Biso   1.000  H
  H6       1.0000 0.86860  0.64820  0.44970  Biso   1.000  H
  H7       1.0000 0.86860  0.85180  0.94970  Biso   1.000  H
  H8       1.0000 0.13140  0.35180  0.55030  Biso   1.000  H
  C9       1.0000 0.04860  0.40030  0.19260  Biso   1.000  C
  C10      1.0000 0.95140  0.90030  0.30740  Biso   1.000  C
  C11      1.0000 0.95140  0.59970  0.80740  Biso   1.000  C
  C12      1.0000 0.04860  0.09970  0.69260  Biso   1.000  C
  H9       1.0000 0.05800  0.43720  0.29460  Biso   1.000  H
  H10      1.0000 0.94200  0.93720  0.20540  Biso   1.000  H
  H11      1.0000 0.94200  0.56280  0.70540  Biso   1.000  H
  H12      1.0000 0.05800  0.06280  0.79460  Biso   1.000  H
  H13      1.0000 0.94640  0.33660  0.17880  Biso   1.000  H
  H14      1.0000 0.05360  0.83660  0.32120  Biso   1.000  H
  H15      1.0000 0.05360  0.66340  0.82120  Biso   1.000  H
  H16      1.0000 0.94640  0.16340  0.67880  Biso   1.000  H
  C13      1.0000 0.01680  0.52310  0.08230  Biso   1.000  C
  C14      1.0000 0.98320  0.02310  0.41770  Biso   1.000  C
  C15      1.0000 0.98320  0.47690  0.91770  Biso   1.000  C
  C16      1.0000 0.01680  0.97690  0.58230  Biso   1.000  C
  H17      1.0000 0.12030  0.58550  0.09500  Biso   1.000  H
  H18      1.0000 0.87970  0.08550  0.40500  Biso   1.000  H
  H19      1.0000 0.87970  0.41450  0.90500  Biso   1.000  H
  H20      1.0000 0.12030  0.91450  0.59500  Biso   1.000  H
  H21      1.0000 0.91430  0.57750  0.10640  Biso   1.000  H
  H22      1.0000 0.08570  0.07750  0.39360  Biso   1.000  H
  H23      1.0000 0.08570  0.42250  0.89360  Biso   1.000  H
  H24      1.0000 0.91430  0.92250  0.60640  Biso   1.000  H
  Cl1      1.0000 0.76452  0.12180  0.99450  Biso   1.000  Cl
  Cl2      1.0000 0.23548  0.62180  0.50550  Biso   1.000  Cl
  Cl3      1.0000 0.23548  0.87820  0.00550  Biso   1.000  Cl
  Cl4      1.0000 0.76452  0.37820  0.49450  Biso   1.000  Cl
  N1       1.0000 0.21120  0.32022  0.17340  Biso   1.000  N
  N2       1.0000 0.78880  0.82022  0.32660  Biso   1.000  N
  N3       1.0000 0.78880  0.67978  0.82660  Biso   1.000  N
  N4       1.0000 0.21120  0.17978  0.67340  Biso   1.000  N
  N5       1.0000 0.37790  0.36810  0.23130  Biso   1.000  N
  N6       1.0000 0.62210  0.86810  0.26870  Biso   1.000  N
  N7       1.0000 0.62210  0.63190  0.76870  Biso   1.000  N
  N8       1.0000 0.37790  0.13190  0.73130  Biso   1.000  N
  N9       1.0000 0.39810  0.16518  0.10120  Biso   1.000  N
  N10      1.0000 0.60190  0.66518  0.39880  Biso   1.000  N
  N11      1.0000 0.60190  0.83482  0.89880  Biso   1.000  N
  N12      1.0000 0.39810  0.33482  0.60120  Biso   1.000  N
