data_image0
_cell_length_a       14.433
_cell_length_b       14.433
_cell_length_c       21.418
_cell_angle_alpha    90
_cell_angle_beta     90
_cell_angle_gamma    120

_symmetry_space_group_name_H-M    "P 1"
_symmetry_int_tables_number       1

loop_
  _symmetry_equiv_pos_as_xyz
  'x, y, z'

loop_
  _atom_site_label
  _atom_site_occupancy
  _atom_site_fract_x
  _atom_site_fract_y
  _atom_site_fract_z
  _atom_site_thermal_displace_type
  _atom_site_B_iso_or_equiv
  _atom_site_type_symbol
  Cu1      1.0000 0.00000  0.50000  0.50000  Biso   1.000  Cu
  Cu2      1.0000 0.50000  0.50000  0.50000  Biso   1.000  Cu
  Cu3      1.0000 0.50000  0.00000  0.50000  Biso   1.000  Cu
  Cu4      1.0000 0.66667  0.83333  0.83333  Biso   1.000  Cu
  Cu5      1.0000 0.16667  0.83333  0.83333  Biso   1.000  Cu
  Cu6      1.0000 0.16667  0.33333  0.83333  Biso   1.000  Cu
  Cu7      1.0000 0.33333  0.16667  0.16667  Biso   1.000  Cu
  Cu8      1.0000 0.83333  0.16667  0.16667  Biso   1.000  Cu
  Cu9      1.0000 0.83333  0.66667  0.16667  Biso   1.000  Cu
  Cl1      1.0000 0.10452  0.42213  0.47769  Biso   1.000  Cl
  Cl2      1.0000 0.57787  0.68239  0.47769  Biso   1.000  Cl
  Cl3      1.0000 0.31761  0.89548  0.47769  Biso   1.000  Cl
  Cl4      1.0000 0.77119  0.75546  0.81102  Biso   1.000  Cl
  Cl5      1.0000 0.24454  0.01572  0.81102  Biso   1.000  Cl
  Cl6      1.0000 0.98428  0.22881  0.81102  Biso   1.000  Cl
  Cl7      1.0000 0.43785  0.08880  0.14436  Biso   1.000  Cl
  Cl8      1.0000 0.91120  0.34906  0.14436  Biso   1.000  Cl
  Cl9      1.0000 0.65094  0.56215  0.14436  Biso   1.000  Cl
  Cl10     1.0000 0.89548  0.57787  0.52231  Biso   1.000  Cl
  Cl11     1.0000 0.42213  0.31761  0.52231  Biso   1.000  Cl
  Cl12     1.0000 0.68239  0.10452  0.52231  Biso   1.000  Cl
  Cl13     1.0000 0.56215  0.91120  0.85564  Biso   1.000  Cl
  Cl14     1.0000 0.08880  0.65094  0.85564  Biso   1.000  Cl
  Cl15     1.0000 0.34906  0.43785  0.85564  Biso   1.000  Cl
  Cl16     1.0000 0.22881  0.24454  0.18898  Biso   1.000  Cl
  Cl17     1.0000 0.75546  0.98428  0.18898  Biso   1.000  Cl
  Cl18     1.0000 0.01572  0.77119  0.18898  Biso   1.000  Cl
  N1       1.0000 0.94610  0.42270  0.68555  Biso   1.000  N
  N2       1.0000 0.57730  0.52340  0.68555  Biso   1.000  N
  N3       1.0000 0.47660  0.05390  0.68555  Biso   1.000  N
  N4       1.0000 0.61277  0.75603  0.01888  Biso   1.000  N
  N5       1.0000 0.24397  0.85673  0.01888  Biso   1.000  N
  N6       1.0000 0.14327  0.38723  0.01888  Biso   1.000  N
  N7       1.0000 0.27943  0.08937  0.35222  Biso   1.000  N
  N8       1.0000 0.91063  0.19007  0.35222  Biso   1.000  N
  N9       1.0000 0.80993  0.72057  0.35222  Biso   1.000  N
  N10      1.0000 0.05390  0.57730  0.31445  Biso   1.000  N
  N11      1.0000 0.42270  0.47660  0.31445  Biso   1.000  N
  N12      1.0000 0.52340  0.94610  0.31445  Biso   1.000  N
  N13      1.0000 0.72057  0.91063  0.64778  Biso   1.000  N
  N14      1.0000 0.08937  0.80993  0.64778  Biso   1.000  N
  N15      1.0000 0.19007  0.27943  0.64778  Biso   1.000  N
  N16      1.0000 0.38723  0.24397  0.98112  Biso   1.000  N
  N17      1.0000 0.75603  0.14327  0.98112  Biso   1.000  N
  N18      1.0000 0.85673  0.61277  0.98112  Biso   1.000  N
  N19      1.0000 0.99230  0.45830  0.58861  Biso   1.000  N
  N20      1.0000 0.54170  0.53400  0.58861  Biso   1.000  N
  N21      1.0000 0.46600  0.00770  0.58861  Biso   1.000  N
  N22      1.0000 0.65897  0.79163  0.92194  Biso   1.000  N
  N23      1.0000 0.20837  0.86733  0.92194  Biso   1.000  N
  N24      1.0000 0.13267  0.34103  0.92194  Biso   1.000  N
  N25      1.0000 0.32563  0.12497  0.25528  Biso   1.000  N
  N26      1.0000 0.87503  0.20067  0.25528  Biso   1.000  N
  N27      1.0000 0.79933  0.67437  0.25528  Biso   1.000  N
  N28      1.0000 0.00770  0.54170  0.41139  Biso   1.000  N
  N29      1.0000 0.45830  0.46600  0.41139  Biso   1.000  N
  N30      1.0000 0.53400  0.99230  0.41139  Biso   1.000  N
  N31      1.0000 0.67437  0.87503  0.74472  Biso   1.000  N
  N32      1.0000 0.12497  0.79933  0.74472  Biso   1.000  N
  N33      1.0000 0.20067  0.32563  0.74472  Biso   1.000  N
  N34      1.0000 0.34103  0.20837  0.07806  Biso   1.000  N
  N35      1.0000 0.79163  0.13267  0.07806  Biso   1.000  N
  N36      1.0000 0.86733  0.65897  0.07806  Biso   1.000  N
  N37      1.0000 0.05070  0.44910  0.68315  Biso   1.000  N
  N38      1.0000 0.55090  0.60160  0.68315  Biso   1.000  N
  N39      1.0000 0.39840  0.94930  0.68315  Biso   1.000  N
  N40      1.0000 0.71737  0.78243  0.01648  Biso   1.000  N
  N41      1.0000 0.21757  0.93493  0.01648  Biso   1.000  N
  N42      1.0000 0.06507  0.28263  0.01648  Biso   1.000  N
  N43      1.0000 0.38403  0.11577  0.34982  Biso   1.000  N
  N44      1.0000 0.88423  0.26827  0.34982  Biso   1.000  N
  N45      1.0000 0.73173  0.61597  0.34982  Biso   1.000  N
  N46      1.0000 0.94930  0.55090  0.31685  Biso   1.000  N
  N47      1.0000 0.44910  0.39840  0.31685  Biso   1.000  N
  N48      1.0000 0.60160  0.05070  0.31685  Biso   1.000  N
  N49      1.0000 0.61597  0.88423  0.65018  Biso   1.000  N
  N50      1.0000 0.11577  0.73173  0.65018  Biso   1.000  N
  N51      1.0000 0.26827  0.38403  0.65018  Biso   1.000  N
  N52      1.0000 0.28263  0.21757  0.98352  Biso   1.000  N
  N53      1.0000 0.78243  0.06507  0.98352  Biso   1.000  N
  N54      1.0000 0.93493  0.71737  0.98352  Biso   1.000  N
  C1       1.0000 0.77530  0.36600  0.74081  Biso   1.000  C
  C2       1.0000 0.63400  0.40930  0.74081  Biso   1.000  C
  C3       1.0000 0.59070  0.22470  0.74081  Biso   1.000  C
  C4       1.0000 0.44197  0.69933  0.07414  Biso   1.000  C
  C5       1.0000 0.30067  0.74263  0.07414  Biso   1.000  C
  C6       1.0000 0.25737  0.55803  0.07414  Biso   1.000  C
  C7       1.0000 0.10863  0.03267  0.40748  Biso   1.000  C
  C8       1.0000 0.96733  0.07597  0.40748  Biso   1.000  C
  C9       1.0000 0.92403  0.89137  0.40748  Biso   1.000  C
  C10      1.0000 0.22470  0.63400  0.25919  Biso   1.000  C
  C11      1.0000 0.36600  0.59070  0.25919  Biso   1.000  C
  C12      1.0000 0.40930  0.77530  0.25919  Biso   1.000  C
  C13      1.0000 0.89137  0.96733  0.59252  Biso   1.000  C
  C14      1.0000 0.03267  0.92403  0.59252  Biso   1.000  C
  C15      1.0000 0.07597  0.10863  0.59252  Biso   1.000  C
  C16      1.0000 0.55803  0.30067  0.92586  Biso   1.000  C
  C17      1.0000 0.69933  0.25737  0.92586  Biso   1.000  C
  C18      1.0000 0.74263  0.44197  0.92586  Biso   1.000  C
  C19      1.0000 0.89240  0.40170  0.74642  Biso   1.000  C
  C20      1.0000 0.59830  0.49070  0.74642  Biso   1.000  C
  C21      1.0000 0.50930  0.10760  0.74642  Biso   1.000  C
  C22      1.0000 0.55907  0.73503  0.07975  Biso   1.000  C
  C23      1.0000 0.26497  0.82403  0.07975  Biso   1.000  C
  C24      1.0000 0.17597  0.44093  0.07975  Biso   1.000  C
  C25      1.0000 0.22573  0.06837  0.41309  Biso   1.000  C
  C26      1.0000 0.93163  0.15737  0.41309  Biso   1.000  C
  C27      1.0000 0.84263  0.77427  0.41309  Biso   1.000  C
  C28      1.0000 0.10760  0.59830  0.25358  Biso   1.000  C
  C29      1.0000 0.40170  0.50930  0.25358  Biso   1.000  C
  C30      1.0000 0.49070  0.89240  0.25358  Biso   1.000  C
  C31      1.0000 0.77427  0.93163  0.58691  Biso   1.000  C
  C32      1.0000 0.06837  0.84263  0.58691  Biso   1.000  C
  C33      1.0000 0.15737  0.22573  0.58691  Biso   1.000  C
  C34      1.0000 0.44093  0.26497  0.92025  Biso   1.000  C
  C35      1.0000 0.73503  0.17597  0.92025  Biso   1.000  C
  C36      1.0000 0.82403  0.55907  0.92025  Biso   1.000  C
  H1       1.0000 0.90010  0.34680  0.76790  Biso   1.000  H
  H2       1.0000 0.65320  0.55330  0.76790  Biso   1.000  H
  H3       1.0000 0.44670  0.09990  0.76790  Biso   1.000  H
  H4       1.0000 0.56677  0.68013  0.10123  Biso   1.000  H
  H5       1.0000 0.31987  0.88663  0.10123  Biso   1.000  H
  H6       1.0000 0.11337  0.43323  0.10123  Biso   1.000  H
  H7       1.0000 0.23343  0.01347  0.43457  Biso   1.000  H
  H8       1.0000 0.98653  0.21997  0.43457  Biso   1.000  H
  H9       1.0000 0.78003  0.76657  0.43457  Biso   1.000  H
  H10      1.0000 0.09990  0.65320  0.23210  Biso   1.000  H
  H11      1.0000 0.34680  0.44670  0.23210  Biso   1.000  H
  H12      1.0000 0.55330  0.90010  0.23210  Biso   1.000  H
  H13      1.0000 0.76657  0.98653  0.56543  Biso   1.000  H
  H14      1.0000 0.01347  0.78003  0.56543  Biso   1.000  H
  H15      1.0000 0.21997  0.23343  0.56543  Biso   1.000  H
  H16      1.0000 0.43323  0.31987  0.89877  Biso   1.000  H
  H17      1.0000 0.68013  0.11337  0.89877  Biso   1.000  H
  H18      1.0000 0.88663  0.56677  0.89877  Biso   1.000  H
  H19      1.0000 0.92710  0.46620  0.77150  Biso   1.000  H
  H20      1.0000 0.53380  0.46090  0.77150  Biso   1.000  H
  H21      1.0000 0.53910  0.07290  0.77150  Biso   1.000  H
  H22      1.0000 0.59377  0.79953  0.10483  Biso   1.000  H
  H23      1.0000 0.20047  0.79423  0.10483  Biso   1.000  H
  H24      1.0000 0.20577  0.40623  0.10483  Biso   1.000  H
  H25      1.0000 0.26043  0.13287  0.43817  Biso   1.000  H
  H26      1.0000 0.86713  0.12757  0.43817  Biso   1.000  H
  H27      1.0000 0.87243  0.73957  0.43817  Biso   1.000  H
  H28      1.0000 0.07290  0.53380  0.22850  Biso   1.000  H
  H29      1.0000 0.46620  0.53910  0.22850  Biso   1.000  H
  H30      1.0000 0.46090  0.92710  0.22850  Biso   1.000  H
  H31      1.0000 0.73957  0.86713  0.56183  Biso   1.000  H
  H32      1.0000 0.13287  0.87243  0.56183  Biso   1.000  H
  H33      1.0000 0.12757  0.26043  0.56183  Biso   1.000  H
  H34      1.0000 0.40623  0.20047  0.89517  Biso   1.000  H
  H35      1.0000 0.79953  0.20577  0.89517  Biso   1.000  H
  H36      1.0000 0.79423  0.59377  0.89517  Biso   1.000  H
  C37      1.0000 0.07480  0.46940  0.62378  Biso   1.000  C
  C38      1.0000 0.53060  0.60540  0.62378  Biso   1.000  C
  C39      1.0000 0.39460  0.92520  0.62378  Biso   1.000  C
  C40      1.0000 0.74147  0.80273  0.95711  Biso   1.000  C
  C41      1.0000 0.19727  0.93873  0.95711  Biso   1.000  C
  C42      1.0000 0.06127  0.25853  0.95711  Biso   1.000  C
  C43      1.0000 0.40813  0.13607  0.29045  Biso   1.000  C
  C44      1.0000 0.86393  0.27207  0.29045  Biso   1.000  C
  C45      1.0000 0.72793  0.59187  0.29045  Biso   1.000  C
  C46      1.0000 0.92520  0.53060  0.37622  Biso   1.000  C
  C47      1.0000 0.46940  0.39460  0.37622  Biso   1.000  C
  C48      1.0000 0.60540  0.07480  0.37622  Biso   1.000  C
  C49      1.0000 0.59187  0.86393  0.70955  Biso   1.000  C
  C50      1.0000 0.13607  0.72793  0.70955  Biso   1.000  C
  C51      1.0000 0.27207  0.40813  0.70955  Biso   1.000  C
  C52      1.0000 0.25853  0.19727  0.04289  Biso   1.000  C
  C53      1.0000 0.80273  0.06127  0.04289  Biso   1.000  C
  C54      1.0000 0.93873  0.74147  0.04289  Biso   1.000  C
  H37      1.0000 0.14210  0.48960  0.60760  Biso   1.000  H
  H38      1.0000 0.51040  0.65250  0.60760  Biso   1.000  H
  H39      1.0000 0.34750  0.85790  0.60760  Biso   1.000  H
  H40      1.0000 0.80877  0.82293  0.94093  Biso   1.000  H
  H41      1.0000 0.17707  0.98583  0.94093  Biso   1.000  H
  H42      1.0000 0.01417  0.19123  0.94093  Biso   1.000  H
  H43      1.0000 0.47543  0.15627  0.27427  Biso   1.000  H
  H44      1.0000 0.84373  0.31917  0.27427  Biso   1.000  H
  H45      1.0000 0.68083  0.52457  0.27427  Biso   1.000  H
  H46      1.0000 0.85790  0.51040  0.39240  Biso   1.000  H
  H47      1.0000 0.48960  0.34750  0.39240  Biso   1.000  H
  H48      1.0000 0.65250  0.14210  0.39240  Biso   1.000  H
  H49      1.0000 0.52457  0.84373  0.72573  Biso   1.000  H
  H50      1.0000 0.15627  0.68083  0.72573  Biso   1.000  H
  H51      1.0000 0.31917  0.47543  0.72573  Biso   1.000  H
  H52      1.0000 0.19123  0.17707  0.05907  Biso   1.000  H
  H53      1.0000 0.82293  0.01417  0.05907  Biso   1.000  H
  H54      1.0000 0.98583  0.80877  0.05907  Biso   1.000  H
  C55      1.0000 0.91360  0.42940  0.62914  Biso   1.000  C
  C56      1.0000 0.57060  0.48420  0.62914  Biso   1.000  C
  C57      1.0000 0.51580  0.08640  0.62914  Biso   1.000  C
  C58      1.0000 0.58027  0.76273  0.96247  Biso   1.000  C
  C59      1.0000 0.23727  0.81753  0.96247  Biso   1.000  C
  C60      1.0000 0.18247  0.41973  0.96247  Biso   1.000  C
  C61      1.0000 0.24693  0.09607  0.29581  Biso   1.000  C
  C62      1.0000 0.90393  0.15087  0.29581  Biso   1.000  C
  C63      1.0000 0.84913  0.75307  0.29581  Biso   1.000  C
  C64      1.0000 0.08640  0.57060  0.37086  Biso   1.000  C
  C65      1.0000 0.42940  0.51580  0.37086  Biso   1.000  C
  C66      1.0000 0.48420  0.91360  0.37086  Biso   1.000  C
  C67      1.0000 0.75307  0.90393  0.70419  Biso   1.000  C
  C68      1.0000 0.09607  0.84913  0.70419  Biso   1.000  C
  C69      1.0000 0.15087  0.24693  0.70419  Biso   1.000  C
  C70      1.0000 0.41973  0.23727  0.03753  Biso   1.000  C
  C71      1.0000 0.76273  0.18247  0.03753  Biso   1.000  C
  C72      1.0000 0.81753  0.58027  0.03753  Biso   1.000  C
  H55      1.0000 0.84520  0.41580  0.61930  Biso   1.000  H
  H56      1.0000 0.58420  0.42940  0.61930  Biso   1.000  H
  H57      1.0000 0.57060  0.15480  0.61930  Biso   1.000  H
  H58      1.0000 0.51187  0.74913  0.95263  Biso   1.000  H
  H59      1.0000 0.25087  0.76273  0.95263  Biso   1.000  H
  H60      1.0000 0.23727  0.48813  0.95263  Biso   1.000  H
  H61      1.0000 0.17853  0.08247  0.28597  Biso   1.000  H
  H62      1.0000 0.91753  0.09607  0.28597  Biso   1.000  H
  H63      1.0000 0.90393  0.82147  0.28597  Biso   1.000  H
  H64      1.0000 0.15480  0.58420  0.38070  Biso   1.000  H
  H65      1.0000 0.41580  0.57060  0.38070  Biso   1.000  H
  H66      1.0000 0.42940  0.84520  0.38070  Biso   1.000  H
  H67      1.0000 0.82147  0.91753  0.71403  Biso   1.000  H
  H68      1.0000 0.08247  0.90393  0.71403  Biso   1.000  H
  H69      1.0000 0.09607  0.17853  0.71403  Biso   1.000  H
  H70      1.0000 0.48813  0.25087  0.04737  Biso   1.000  H
  H71      1.0000 0.74913  0.23727  0.04737  Biso   1.000  H
  H72      1.0000 0.76273  0.51187  0.04737  Biso   1.000  H
  C73      1.0000 0.74320  0.44260  0.73990  Biso   1.000  C
  C74      1.0000 0.55740  0.30060  0.73990  Biso   1.000  C
  C75      1.0000 0.69940  0.25680  0.73990  Biso   1.000  C
  C76      1.0000 0.40987  0.77593  0.07323  Biso   1.000  C
  C77      1.0000 0.22407  0.63393  0.07323  Biso   1.000  C
  C78      1.0000 0.36607  0.59013  0.07323  Biso   1.000  C
  C79      1.0000 0.07653  0.10927  0.40657  Biso   1.000  C
  C80      1.0000 0.89073  0.96727  0.40657  Biso   1.000  C
  C81      1.0000 0.03273  0.92347  0.40657  Biso   1.000  C
  C82      1.0000 0.25680  0.55740  0.26010  Biso   1.000  C
  C83      1.0000 0.44260  0.69940  0.26010  Biso   1.000  C
  C84      1.0000 0.30060  0.74320  0.26010  Biso   1.000  C
  C85      1.0000 0.92347  0.89073  0.59343  Biso   1.000  C
  C86      1.0000 0.10927  0.03273  0.59343  Biso   1.000  C
  C87      1.0000 0.96727  0.07653  0.59343  Biso   1.000  C
  C88      1.0000 0.59013  0.22407  0.92677  Biso   1.000  C
  C89      1.0000 0.77593  0.36607  0.92677  Biso   1.000  C
  C90      1.0000 0.63393  0.40987  0.92677  Biso   1.000  C
  C91      1.0000 0.82690  0.56100  0.73623  Biso   1.000  C
  C92      1.0000 0.43900  0.26590  0.73623  Biso   1.000  C
  C93      1.0000 0.73410  0.17310  0.73623  Biso   1.000  C
  C94      1.0000 0.49357  0.89433  0.06956  Biso   1.000  C
  C95      1.0000 0.10567  0.59923  0.06956  Biso   1.000  C
  C96      1.0000 0.40077  0.50643  0.06956  Biso   1.000  C
  C97      1.0000 0.16023  0.22767  0.40290  Biso   1.000  C
  C98      1.0000 0.77233  0.93257  0.40290  Biso   1.000  C
  C99      1.0000 0.06743  0.83977  0.40290  Biso   1.000  C
  C100     1.0000 0.17310  0.43900  0.26377  Biso   1.000  C
  C101     1.0000 0.56100  0.73410  0.26377  Biso   1.000  C
  C102     1.0000 0.26590  0.82690  0.26377  Biso   1.000  C
  C103     1.0000 0.83977  0.77233  0.59710  Biso   1.000  C
  C104     1.0000 0.22767  0.06743  0.59710  Biso   1.000  C
  C105     1.0000 0.93257  0.16023  0.59710  Biso   1.000  C
  C106     1.0000 0.50643  0.10567  0.93044  Biso   1.000  C
  C107     1.0000 0.89433  0.40077  0.93044  Biso   1.000  C
  C108     1.0000 0.59923  0.49357  0.93044  Biso   1.000  C
  H73      1.0000 0.86010  0.58510  0.77630  Biso   1.000  H
  H74      1.0000 0.41490  0.27500  0.77630  Biso   1.000  H
  H75      1.0000 0.72500  0.13990  0.77630  Biso   1.000  H
  H76      1.0000 0.52677  0.91843  0.10963  Biso   1.000  H
  H77      1.0000 0.08157  0.60833  0.10963  Biso   1.000  H
  H78      1.0000 0.39167  0.47323  0.10963  Biso   1.000  H
  H79      1.0000 0.19343  0.25177  0.44297  Biso   1.000  H
  H80      1.0000 0.74823  0.94167  0.44297  Biso   1.000  H
  H81      1.0000 0.05833  0.80657  0.44297  Biso   1.000  H
  H82      1.0000 0.13990  0.41490  0.22370  Biso   1.000  H
  H83      1.0000 0.58510  0.72500  0.22370  Biso   1.000  H
  H84      1.0000 0.27500  0.86010  0.22370  Biso   1.000  H
  H85      1.0000 0.80657  0.74823  0.55703  Biso   1.000  H
  H86      1.0000 0.25177  0.05833  0.55703  Biso   1.000  H
  H87      1.0000 0.94167  0.19343  0.55703  Biso   1.000  H
  H88      1.0000 0.47323  0.08157  0.89037  Biso   1.000  H
  H89      1.0000 0.91843  0.39167  0.89037  Biso   1.000  H
  H90      1.0000 0.60833  0.52677  0.89037  Biso   1.000  H
  H91      1.0000 0.88020  0.57120  0.70590  Biso   1.000  H
  H92      1.0000 0.42880  0.30900  0.70590  Biso   1.000  H
  H93      1.0000 0.69100  0.11980  0.70590  Biso   1.000  H
  H94      1.0000 0.54687  0.90453  0.03923  Biso   1.000  H
  H95      1.0000 0.09547  0.64233  0.03923  Biso   1.000  H
  H96      1.0000 0.35767  0.45313  0.03923  Biso   1.000  H
  H97      1.0000 0.21353  0.23787  0.37257  Biso   1.000  H
  H98      1.0000 0.76213  0.97567  0.37257  Biso   1.000  H
  H99      1.0000 0.02433  0.78647  0.37257  Biso   1.000  H
  H100     1.0000 0.11980  0.42880  0.29410  Biso   1.000  H
  H101     1.0000 0.57120  0.69100  0.29410  Biso   1.000  H
  H102     1.0000 0.30900  0.88020  0.29410  Biso   1.000  H
  H103     1.0000 0.78647  0.76213  0.62743  Biso   1.000  H
  H104     1.0000 0.23787  0.02433  0.62743  Biso   1.000  H
  H105     1.0000 0.97567  0.21353  0.62743  Biso   1.000  H
  H106     1.0000 0.45313  0.09547  0.96077  Biso   1.000  H
  H107     1.0000 0.90453  0.35767  0.96077  Biso   1.000  H
  H108     1.0000 0.64233  0.54687  0.96077  Biso   1.000  H
  H109     1.0000 0.79310  0.60100  0.72420  Biso   1.000  H
  H110     1.0000 0.39900  0.19210  0.72420  Biso   1.000  H
  H111     1.0000 0.80790  0.20690  0.72420  Biso   1.000  H
  H112     1.0000 0.45977  0.93433  0.05753  Biso   1.000  H
  H113     1.0000 0.06567  0.52543  0.05753  Biso   1.000  H
  H114     1.0000 0.47457  0.54023  0.05753  Biso   1.000  H
  H115     1.0000 0.12643  0.26767  0.39087  Biso   1.000  H
  H116     1.0000 0.73233  0.85877  0.39087  Biso   1.000  H
  H117     1.0000 0.14123  0.87357  0.39087  Biso   1.000  H
  H118     1.0000 0.20690  0.39900  0.27580  Biso   1.000  H
  H119     1.0000 0.60100  0.80790  0.27580  Biso   1.000  H
  H120     1.0000 0.19210  0.79310  0.27580  Biso   1.000  H
  H121     1.0000 0.87357  0.73233  0.60913  Biso   1.000  H
  H122     1.0000 0.26767  0.14123  0.60913  Biso   1.000  H
  H123     1.0000 0.85877  0.12643  0.60913  Biso   1.000  H
  H124     1.0000 0.54023  0.06567  0.94247  Biso   1.000  H
  H125     1.0000 0.93433  0.47457  0.94247  Biso   1.000  H
  H126     1.0000 0.52543  0.45977  0.94247  Biso   1.000  H
  O1       1.0000 0.66670  0.33330  0.39890  Biso   1.000  O
  O2       1.0000 0.33337  0.66663  0.73223  Biso   1.000  O
  O3       1.0000 0.00003  0.99997  0.06557  Biso   1.000  O
  O4       1.0000 0.33330  0.66670  0.60110  Biso   1.000  O
  O5       1.0000 0.99997  0.00003  0.93443  Biso   1.000  O
  O6       1.0000 0.66663  0.33337  0.26777  Biso   1.000  O
  H127     1.0000 0.70770  0.31070  0.41140  Biso   1.000  H
  H128     1.0000 0.68930  0.39700  0.41140  Biso   1.000  H
  H129     1.0000 0.60300  0.29230  0.41140  Biso   1.000  H
  H130     1.0000 0.37437  0.64403  0.74473  Biso   1.000  H
  H131     1.0000 0.35597  0.73033  0.74473  Biso   1.000  H
  H132     1.0000 0.26967  0.62563  0.74473  Biso   1.000  H
  H133     1.0000 0.04103  0.97737  0.07807  Biso   1.000  H
  H134     1.0000 0.02263  0.06367  0.07807  Biso   1.000  H
  H135     1.0000 0.93633  0.95897  0.07807  Biso   1.000  H
  H136     1.0000 0.29230  0.68930  0.58860  Biso   1.000  H
  H137     1.0000 0.31070  0.60300  0.58860  Biso   1.000  H
  H138     1.0000 0.39700  0.70770  0.58860  Biso   1.000  H
  H139     1.0000 0.95897  0.02263  0.92193  Biso   1.000  H
  H140     1.0000 0.97737  0.93633  0.92193  Biso   1.000  H
  H141     1.0000 0.06367  0.04103  0.92193  Biso   1.000  H
  H142     1.0000 0.62563  0.35597  0.25527  Biso   1.000  H
  H143     1.0000 0.64403  0.26967  0.25527  Biso   1.000  H
  H144     1.0000 0.73033  0.37437  0.25527  Biso   1.000  H
  H145     1.0000 0.64260  0.36470  0.37610  Biso   1.000  H
  H146     1.0000 0.63530  0.27790  0.37610  Biso   1.000  H
  H147     1.0000 0.72210  0.35740  0.37610  Biso   1.000  H
  H148     1.0000 0.30927  0.69803  0.70943  Biso   1.000  H
  H149     1.0000 0.30197  0.61123  0.70943  Biso   1.000  H
  H150     1.0000 0.38877  0.69073  0.70943  Biso   1.000  H
  H151     1.0000 0.97593  0.03137  0.04277  Biso   1.000  H
  H152     1.0000 0.96863  0.94457  0.04277  Biso   1.000  H
  H153     1.0000 0.05543  0.02407  0.04277  Biso   1.000  H
  H154     1.0000 0.35740  0.63530  0.62390  Biso   1.000  H
  H155     1.0000 0.36470  0.72210  0.62390  Biso   1.000  H
  H156     1.0000 0.27790  0.64260  0.62390  Biso   1.000  H
  H157     1.0000 0.02407  0.96863  0.95723  Biso   1.000  H
  H158     1.0000 0.03137  0.05543  0.95723  Biso   1.000  H
  H159     1.0000 0.94457  0.97593  0.95723  Biso   1.000  H
  H160     1.0000 0.69073  0.30197  0.29057  Biso   1.000  H
  H161     1.0000 0.69803  0.38877  0.29057  Biso   1.000  H
  H162     1.0000 0.61123  0.30927  0.29057  Biso   1.000  H
  O7       1.0000 0.33330  0.66670  0.43110  Biso   1.000  O
  O8       1.0000 0.99997  0.00003  0.76443  Biso   1.000  O
  O9       1.0000 0.66663  0.33337  0.09777  Biso   1.000  O
  O10      1.0000 0.66670  0.33330  0.56890  Biso   1.000  O
  O11      1.0000 0.33337  0.66663  0.90223  Biso   1.000  O
  O12      1.0000 0.00003  0.99997  0.23557  Biso   1.000  O
  H163     1.0000 0.36910  0.72230  0.45330  Biso   1.000  H
  H164     1.0000 0.27770  0.64680  0.45330  Biso   1.000  H
  H165     1.0000 0.35320  0.63090  0.45330  Biso   1.000  H
  H166     1.0000 0.03577  0.05563  0.78663  Biso   1.000  H
  H167     1.0000 0.94437  0.98013  0.78663  Biso   1.000  H
  H168     1.0000 0.01987  0.96423  0.78663  Biso   1.000  H
  H169     1.0000 0.70243  0.38897  0.11997  Biso   1.000  H
  H170     1.0000 0.61103  0.31347  0.11997  Biso   1.000  H
  H171     1.0000 0.68653  0.29757  0.11997  Biso   1.000  H
  H172     1.0000 0.63090  0.27770  0.54670  Biso   1.000  H
  H173     1.0000 0.72230  0.35320  0.54670  Biso   1.000  H
  H174     1.0000 0.64680  0.36910  0.54670  Biso   1.000  H
  H175     1.0000 0.29757  0.61103  0.88003  Biso   1.000  H
  H176     1.0000 0.38897  0.68653  0.88003  Biso   1.000  H
  H177     1.0000 0.31347  0.70243  0.88003  Biso   1.000  H
  H178     1.0000 0.96423  0.94437  0.21337  Biso   1.000  H
  H179     1.0000 0.05563  0.01987  0.21337  Biso   1.000  H
  H180     1.0000 0.98013  0.03577  0.21337  Biso   1.000  H
  H181     1.0000 0.29630  0.60960  0.45180  Biso   1.000  H
  H182     1.0000 0.39040  0.68670  0.45180  Biso   1.000  H
  H183     1.0000 0.31330  0.70370  0.45180  Biso   1.000  H
  H184     1.0000 0.96297  0.94293  0.78513  Biso   1.000  H
  H185     1.0000 0.05707  0.02003  0.78513  Biso   1.000  H
  H186     1.0000 0.97997  0.03703  0.78513  Biso   1.000  H
  H187     1.0000 0.62963  0.27627  0.11847  Biso   1.000  H
  H188     1.0000 0.72373  0.35337  0.11847  Biso   1.000  H
  H189     1.0000 0.64663  0.37037  0.11847  Biso   1.000  H
  H190     1.0000 0.70370  0.39040  0.54820  Biso   1.000  H
  H191     1.0000 0.60960  0.31330  0.54820  Biso   1.000  H
  H192     1.0000 0.68670  0.29630  0.54820  Biso   1.000  H
  H193     1.0000 0.37037  0.72373  0.88153  Biso   1.000  H
  H194     1.0000 0.27627  0.64663  0.88153  Biso   1.000  H
  H195     1.0000 0.35337  0.62963  0.88153  Biso   1.000  H
  H196     1.0000 0.03703  0.05707  0.21487  Biso   1.000  H
  H197     1.0000 0.94293  0.97997  0.21487  Biso   1.000  H
  H198     1.0000 0.02003  0.96297  0.21487  Biso   1.000  H
  O13      1.0000 0.16350  0.66310  0.53098  Biso   1.000  O
  O14      1.0000 0.33690  0.50040  0.53098  Biso   1.000  O
  O15      1.0000 0.49960  0.83650  0.53098  Biso   1.000  O
  O16      1.0000 0.83017  0.99643  0.86431  Biso   1.000  O
  O17      1.0000 0.00357  0.83373  0.86431  Biso   1.000  O
  O18      1.0000 0.16627  0.16983  0.86431  Biso   1.000  O
  O19      1.0000 0.49683  0.32977  0.19765  Biso   1.000  O
  O20      1.0000 0.67023  0.16707  0.19765  Biso   1.000  O
  O21      1.0000 0.83293  0.50317  0.19765  Biso   1.000  O
  O22      1.0000 0.83650  0.33690  0.46902  Biso   1.000  O
  O23      1.0000 0.66310  0.49960  0.46902  Biso   1.000  O
  O24      1.0000 0.50040  0.16350  0.46902  Biso   1.000  O
  O25      1.0000 0.50317  0.67023  0.80235  Biso   1.000  O
  O26      1.0000 0.32977  0.83293  0.80235  Biso   1.000  O
  O27      1.0000 0.16707  0.49683  0.80235  Biso   1.000  O
  O28      1.0000 0.16983  0.00357  0.13569  Biso   1.000  O
  O29      1.0000 0.99643  0.16627  0.13569  Biso   1.000  O
  O30      1.0000 0.83373  0.83017  0.13569  Biso   1.000  O
  H199     1.0000 0.20260  0.72460  0.51490  Biso   1.000  H
  H200     1.0000 0.27540  0.47800  0.51490  Biso   1.000  H
  H201     1.0000 0.52200  0.79740  0.51490  Biso   1.000  H
  H202     1.0000 0.86927  0.05793  0.84823  Biso   1.000  H
  H203     1.0000 0.94207  0.81133  0.84823  Biso   1.000  H
  H204     1.0000 0.18867  0.13073  0.84823  Biso   1.000  H
  H205     1.0000 0.53593  0.39127  0.18157  Biso   1.000  H
  H206     1.0000 0.60873  0.14467  0.18157  Biso   1.000  H
  H207     1.0000 0.85533  0.46407  0.18157  Biso   1.000  H
  H208     1.0000 0.79740  0.27540  0.48510  Biso   1.000  H
  H209     1.0000 0.72460  0.52200  0.48510  Biso   1.000  H
  H210     1.0000 0.47800  0.20260  0.48510  Biso   1.000  H
  H211     1.0000 0.46407  0.60873  0.81843  Biso   1.000  H
  H212     1.0000 0.39127  0.85533  0.81843  Biso   1.000  H
  H213     1.0000 0.14467  0.53593  0.81843  Biso   1.000  H
  H214     1.0000 0.13073  0.94207  0.15177  Biso   1.000  H
  H215     1.0000 0.05793  0.18867  0.15177  Biso   1.000  H
  H216     1.0000 0.81133  0.86927  0.15177  Biso   1.000  H
  H217     1.0000 0.15060  0.68290  0.56570  Biso   1.000  H
  H218     1.0000 0.31710  0.46770  0.56570  Biso   1.000  H
  H219     1.0000 0.53230  0.84940  0.56570  Biso   1.000  H
  H220     1.0000 0.81727  0.01623  0.89903  Biso   1.000  H
  H221     1.0000 0.98377  0.80103  0.89903  Biso   1.000  H
  H222     1.0000 0.19897  0.18273  0.89903  Biso   1.000  H
  H223     1.0000 0.48393  0.34957  0.23237  Biso   1.000  H
  H224     1.0000 0.65043  0.13437  0.23237  Biso   1.000  H
  H225     1.0000 0.86563  0.51607  0.23237  Biso   1.000  H
  H226     1.0000 0.84940  0.31710  0.43430  Biso   1.000  H
  H227     1.0000 0.68290  0.53230  0.43430  Biso   1.000  H
  H228     1.0000 0.46770  0.15060  0.43430  Biso   1.000  H
  H229     1.0000 0.51607  0.65043  0.76763  Biso   1.000  H
  H230     1.0000 0.34957  0.86563  0.76763  Biso   1.000  H
  H231     1.0000 0.13437  0.48393  0.76763  Biso   1.000  H
  H232     1.0000 0.18273  0.98377  0.10097  Biso   1.000  H
  H233     1.0000 0.01623  0.19897  0.10097  Biso   1.000  H
  H234     1.0000 0.80103  0.81727  0.10097  Biso   1.000  H
