data_image0
_cell_length_a       10.3098
_cell_length_b       11.083
_cell_length_c       12.258
_cell_angle_alpha    75.341
_cell_angle_beta     71.067
_cell_angle_gamma    81.394

_symmetry_space_group_name_H-M    "P 1"
_symmetry_int_tables_number       1

loop_
  _symmetry_equiv_pos_as_xyz
  'x, y, z'

loop_
  _atom_site_label
  _atom_site_occupancy
  _atom_site_fract_x
  _atom_site_fract_y
  _atom_site_fract_z
  _atom_site_thermal_displace_type
  _atom_site_B_iso_or_equiv
  _atom_site_type_symbol
  Cu1      1.0000 0.50000  0.50000  0.00000  Biso   1.000  Cu
  C1       1.0000 0.85040  0.34320  0.54420  Biso   1.000  C
  C2       1.0000 0.14960  0.65680  0.45580  Biso   1.000  C
  H1       1.0000 0.91180  0.35370  0.58510  Biso   1.000  H
  H2       1.0000 0.08820  0.64630  0.41490  Biso   1.000  H
  H3       1.0000 0.76190  0.38410  0.57540  Biso   1.000  H
  H4       1.0000 0.23810  0.61590  0.42460  Biso   1.000  H
  H5       1.0000 0.88670  0.37930  0.46150  Biso   1.000  H
  H6       1.0000 0.11330  0.62070  0.53850  Biso   1.000  H
  C3       1.0000 0.83620  0.20590  0.56100  Biso   1.000  C
  C4       1.0000 0.16380  0.79410  0.43900  Biso   1.000  C
  C5       1.0000 0.80150  0.16170  0.47670  Biso   1.000  C
  C6       1.0000 0.19850  0.83830  0.52330  Biso   1.000  C
  C7       1.0000 0.78570  0.03350  0.49240  Biso   1.000  C
  C8       1.0000 0.21430  0.96650  0.50760  Biso   1.000  C
  C9       1.0000 0.81370  0.94960  0.59110  Biso   1.000  C
  C10      1.0000 0.18630  0.05040  0.40890  Biso   1.000  C
  C11      1.0000 0.84650  0.99240  0.67590  Biso   1.000  C
  C12      1.0000 0.15350  0.00760  0.32410  Biso   1.000  C
  C13      1.0000 0.85400  0.12050  0.66240  Biso   1.000  C
  C14      1.0000 0.14600  0.87950  0.33760  Biso   1.000  C
  C15      1.0000 0.87330  0.16960  0.75960  Biso   1.000  C
  C16      1.0000 0.12670  0.83040  0.24040  Biso   1.000  C
  H7       1.0000 0.89990  0.10060  0.81670  Biso   1.000  H
  H8       1.0000 0.10010  0.89940  0.18330  Biso   1.000  H
  H9       1.0000 0.94630  0.22630  0.72670  Biso   1.000  H
  H10      1.0000 0.05370  0.77370  0.27330  Biso   1.000  H
  C17      1.0000 0.53260  0.27790  0.89070  Biso   1.000  C
  C18      1.0000 0.46740  0.72210  0.10930  Biso   1.000  C
  H11      1.0000 0.43760  0.27490  0.91410  Biso   1.000  H
  H12      1.0000 0.56240  0.72510  0.08590  Biso   1.000  H
  C19      1.0000 0.72950  0.33370  0.86660  Biso   1.000  C
  C20      1.0000 0.27050  0.66630  0.13340  Biso   1.000  C
  H13      1.0000 0.80110  0.37460  0.86810  Biso   1.000  H
  H14      1.0000 0.19890  0.62540  0.13190  Biso   1.000  H
  C21      1.0000 0.87210  0.90040  0.78310  Biso   1.000  C
  C22      1.0000 0.12790  0.09960  0.21690  Biso   1.000  C
  H15      1.0000 0.78980  0.89720  0.84880  Biso   1.000  H
  H16      1.0000 0.21020  0.10280  0.15120  Biso   1.000  H
  H17      1.0000 0.94470  0.92690  0.80260  Biso   1.000  H
  H18      1.0000 0.05530  0.07310  0.19740  Biso   1.000  H
  H19      1.0000 0.89810  0.81890  0.76560  Biso   1.000  H
  H20      1.0000 0.10190  0.18110  0.23440  Biso   1.000  H
  C23      1.0000 0.80970  0.81120  0.60360  Biso   1.000  C
  C24      1.0000 0.19030  0.18880  0.39640  Biso   1.000  C
  H21      1.0000 0.80440  0.79660  0.53040  Biso   1.000  H
  H22      1.0000 0.19560  0.20340  0.46960  Biso   1.000  H
  H23      1.0000 0.89440  0.76840  0.61660  Biso   1.000  H
  H24      1.0000 0.10560  0.23160  0.38340  Biso   1.000  H
  C25      1.0000 0.69110  0.65350  0.78140  Biso   1.000  C
  C26      1.0000 0.30890  0.34650  0.21860  Biso   1.000  C
  H25      1.0000 0.76790  0.59860  0.78530  Biso   1.000  H
  H26      1.0000 0.23210  0.40140  0.21470  Biso   1.000  H
  C27      1.0000 0.49100  0.74000  0.81460  Biso   1.000  C
  C28      1.0000 0.50900  0.26000  0.18540  Biso   1.000  C
  H27      1.0000 0.39740  0.75540  0.85010  Biso   1.000  H
  H28      1.0000 0.60260  0.24460  0.14990  Biso   1.000  H
  C29      1.0000 0.73370  0.98910  0.41000  Biso   1.000  C
  C30      1.0000 0.26630  0.01090  0.59000  Biso   1.000  C
  H29      1.0000 0.80930  0.97440  0.34310  Biso   1.000  H
  H30      1.0000 0.19070  0.02560  0.65690  Biso   1.000  H
  H31      1.0000 0.66860  0.05160  0.38370  Biso   1.000  H
  H32      1.0000 0.33140  0.94840  0.61630  Biso   1.000  H
  H33      1.0000 0.68980  0.91290  0.45030  Biso   1.000  H
  H34      1.0000 0.31020  0.08710  0.54970  Biso   1.000  H
  C31      1.0000 0.77990  0.25310  0.36900  Biso   1.000  C
  C32      1.0000 0.22010  0.74690  0.63100  Biso   1.000  C
  H35      1.0000 0.84940  0.31320  0.33960  Biso   1.000  H
  H36      1.0000 0.15060  0.68680  0.66040  Biso   1.000  H
  H37      1.0000 0.79050  0.20860  0.30760  Biso   1.000  H
  H38      1.0000 0.20950  0.79140  0.69240  Biso   1.000  H
  C33      1.0000 0.61510  0.42330  0.31830  Biso   1.000  C
  C34      1.0000 0.38490  0.57670  0.68170  Biso   1.000  C
  H39      1.0000 0.67330  0.46370  0.24710  Biso   1.000  H
  H40      1.0000 0.32670  0.53630  0.75290  Biso   1.000  H
  C35      1.0000 0.42820  0.37630  0.47060  Biso   1.000  C
  C36      1.0000 0.57180  0.62370  0.52940  Biso   1.000  C
  H41      1.0000 0.33810  0.38070  0.51940  Biso   1.000  H
  H42      1.0000 0.66190  0.61930  0.48060  Biso   1.000  H
  Cl1      1.0000 0.70990  0.50700  0.05480  Biso   1.000  Cl
  Cl2      1.0000 0.29010  0.49300  0.94520  Biso   1.000  Cl
  N1       1.0000 0.56550  0.63750  0.85550  Biso   1.000  N
  N2       1.0000 0.43450  0.36250  0.14450  Biso   1.000  N
  N3       1.0000 0.56180  0.81500  0.72130  Biso   1.000  N
  N4       1.0000 0.43820  0.18500  0.27870  Biso   1.000  N
  N5       1.0000 0.69140  0.75750  0.70240  Biso   1.000  N
  N6       1.0000 0.30860  0.24250  0.29760  Biso   1.000  N
  N7       1.0000 0.52890  0.29270  0.48660  Biso   1.000  N
  N8       1.0000 0.47110  0.70730  0.51340  Biso   1.000  N
  N9       1.0000 0.64290  0.31980  0.39540  Biso   1.000  N
  N10      1.0000 0.35710  0.68020  0.60460  Biso   1.000  N
  N11      1.0000 0.48440  0.45250  0.36950  Biso   1.000  N
  N12      1.0000 0.51560  0.54750  0.63050  Biso   1.000  N
  N13      1.0000 0.74450  0.23580  0.81910  Biso   1.000  N
  N14      1.0000 0.25550  0.76420  0.18090  Biso   1.000  N
  N15      1.0000 0.61970  0.19840  0.83340  Biso   1.000  N
  N16      1.0000 0.38030  0.80160  0.16660  Biso   1.000  N
  N17      1.0000 0.59610  0.36470  0.91180  Biso   1.000  N
  N18      1.0000 0.40390  0.63530  0.08820  Biso   1.000  N
  O1       1.0000 0.48070  0.08230  0.72390  Biso   1.000  O
  O2       1.0000 0.51930  0.91770  0.27610  Biso   1.000  O
  H43      1.0000 0.53090  0.09830  0.76070  Biso   1.000  H
  H44      1.0000 0.46910  0.90170  0.23930  Biso   1.000  H
  H45      1.0000 0.50090  0.00600  0.72000  Biso   1.000  H
  H46      1.0000 0.49910  0.99400  0.28000  Biso   1.000  H
  O3       1.0000 0.16590  0.33350  0.65160  Biso   1.000  O
  O4       1.0000 0.83410  0.66650  0.34840  Biso   1.000  O
  H47      1.0000 0.13750  0.37500  0.70550  Biso   1.000  H
  H48      1.0000 0.86250  0.62500  0.29450  Biso   1.000  H
  H49      1.0000 0.23980  0.36590  0.60650  Biso   1.000  H
  H50      1.0000 0.76020  0.63410  0.39350  Biso   1.000  H
  O5       1.0000 0.97130  0.63550  0.97990  Biso   1.000  O
  O6       1.0000 0.02870  0.36450  0.02010  Biso   1.000  O
  H51      1.0000 0.98280  0.69070  0.01250  Biso   1.000  H
  H52      1.0000 0.01720  0.30930  0.98750  Biso   1.000  H
  H53      1.0000 0.89120  0.67220  0.99730  Biso   1.000  H
  H54      1.0000 0.10880  0.32780  0.00270  Biso   1.000  H
  O7       1.0000 0.78390  0.83260  0.14540  Biso   1.000  O
  O8       1.0000 0.21610  0.16740  0.85460  Biso   1.000  O
  H55      1.0000 0.70400  0.86380  0.17650  Biso   1.000  H
  H56      1.0000 0.29600  0.13620  0.82350  Biso   1.000  H
  H57      1.0000 0.82920  0.89620  0.10750  Biso   1.000  H
  H58      1.0000 0.17080  0.10380  0.89250  Biso   1.000  H
  O9       1.0000 0.85990  0.13670  0.07210  Biso   1.000  O
  O10      1.0000 0.14010  0.86330  0.92790  Biso   1.000  O
  H59      1.0000 0.79690  0.10530  0.06000  Biso   1.000  H
  H60      1.0000 0.20310  0.89470  0.94000  Biso   1.000  H
  H61      1.0000 0.86360  0.21150  0.07620  Biso   1.000  H
  H62      1.0000 0.13640  0.78850  0.92380  Biso   1.000  H
  O11      1.0000 0.98990  0.51840  0.78870  Biso   1.000  O
  O12      1.0000 0.01010  0.48160  0.21130  Biso   1.000  O
  H63      1.0000 0.98360  0.53490  0.71900  Biso   1.000  H
  H64      1.0000 0.01640  0.46510  0.28100  Biso   1.000  H
  H65      1.0000 0.96760  0.54530  0.85190  Biso   1.000  H
  H66      1.0000 0.03240  0.45470  0.14810  Biso   1.000  H
