data_image0
_cell_length_a       7.9162
_cell_length_b       8.216
_cell_length_c       19.006
_cell_angle_alpha    90
_cell_angle_beta     96.814
_cell_angle_gamma    90

_symmetry_space_group_name_H-M    "P 1"
_symmetry_int_tables_number       1

loop_
  _symmetry_equiv_pos_as_xyz
  'x, y, z'

loop_
  _atom_site_label
  _atom_site_occupancy
  _atom_site_fract_x
  _atom_site_fract_y
  _atom_site_fract_z
  _atom_site_thermal_displace_type
  _atom_site_B_iso_or_equiv
  _atom_site_type_symbol
  N1       1.0000 0.85450  0.28710  0.25320  Biso   1.000  N
  N2       1.0000 0.64550  0.78710  0.24680  Biso   1.000  N
  N3       1.0000 0.14550  0.71290  0.74680  Biso   1.000  N
  N4       1.0000 0.35450  0.21290  0.75320  Biso   1.000  N
  O1       1.0000 0.52680  0.28390  0.63980  Biso   1.000  O
  O2       1.0000 0.97320  0.78390  0.86020  Biso   1.000  O
  O3       1.0000 0.47320  0.71610  0.36020  Biso   1.000  O
  O4       1.0000 0.02680  0.21610  0.13980  Biso   1.000  O
  O5       1.0000 0.85490  0.70640  0.40250  Biso   1.000  O
  O6       1.0000 0.64510  0.20640  0.09750  Biso   1.000  O
  O7       1.0000 0.14510  0.29360  0.59750  Biso   1.000  O
  O8       1.0000 0.35490  0.79360  0.90250  Biso   1.000  O
  C1       1.0000 0.84230  0.33890  0.31880  Biso   1.000  C
  C2       1.0000 0.65770  0.83890  0.18120  Biso   1.000  C
  C3       1.0000 0.15770  0.66110  0.68120  Biso   1.000  C
  C4       1.0000 0.34230  0.16110  0.81880  Biso   1.000  C
  C5       1.0000 0.80050  0.13380  0.24980  Biso   1.000  C
  C6       1.0000 0.69950  0.63380  0.25020  Biso   1.000  C
  C7       1.0000 0.19950  0.86620  0.75020  Biso   1.000  C
  C8       1.0000 0.30050  0.36620  0.74980  Biso   1.000  C
  H1       1.0000 0.79480  0.06670  0.21020  Biso   1.000  H
  H2       1.0000 0.70520  0.56670  0.28980  Biso   1.000  H
  H3       1.0000 0.20520  0.93330  0.78980  Biso   1.000  H
  H4       1.0000 0.29480  0.43330  0.71020  Biso   1.000  H
  H5       1.0000 0.50840  0.00240  0.41630  Biso   1.000  H
  H6       1.0000 0.99160  0.50240  0.08370  Biso   1.000  H
  H7       1.0000 0.49160  0.99760  0.58370  Biso   1.000  H
  H8       1.0000 0.00840  0.49760  0.91630  Biso   1.000  H
  H9       1.0000 0.65090  0.93680  0.45400  Biso   1.000  H
  H10      1.0000 0.84910  0.43680  0.04600  Biso   1.000  H
  H11      1.0000 0.34910  0.06320  0.54600  Biso   1.000  H
  H12      1.0000 0.15090  0.56320  0.95400  Biso   1.000  H
  Cu1      1.0000 0.69891  0.21743  0.44974  Biso   1.000  Cu
  Cu2      1.0000 0.80109  0.71743  0.05026  Biso   1.000  Cu
  Cu3      1.0000 0.30109  0.78257  0.55026  Biso   1.000  Cu
  Cu4      1.0000 0.19891  0.28257  0.94974  Biso   1.000  Cu
  Cu5      1.0000 0.61997  0.89748  0.33715  Biso   1.000  Cu
  Cu6      1.0000 0.88003  0.39748  0.16285  Biso   1.000  Cu
  Cu7      1.0000 0.38003  0.10252  0.66285  Biso   1.000  Cu
  Cu8      1.0000 0.11997  0.60252  0.83715  Biso   1.000  Cu
  N5       1.0000 0.78340  0.22070  0.35620  Biso   1.000  N
  N6       1.0000 0.71660  0.72070  0.14380  Biso   1.000  N
  N7       1.0000 0.21660  0.77930  0.64380  Biso   1.000  N
  N8       1.0000 0.28340  0.27930  0.85620  Biso   1.000  N
  O9       1.0000 0.59570  0.21040  0.53530  Biso   1.000  O
  O10      1.0000 0.90430  0.71040  0.96470  Biso   1.000  O
  O11      1.0000 0.40430  0.78960  0.46470  Biso   1.000  O
  O12      1.0000 0.09570  0.28960  0.03530  Biso   1.000  O
  O13      1.0000 0.77850  0.43360  0.46720  Biso   1.000  O
  O14      1.0000 0.72150  0.93360  0.03280  Biso   1.000  O
  O15      1.0000 0.22150  0.56640  0.53280  Biso   1.000  O
  O16      1.0000 0.27850  0.06640  0.96720  Biso   1.000  O
  N9       1.0000 0.75710  0.09410  0.31130  Biso   1.000  N
  N10      1.0000 0.74290  0.59410  0.18870  Biso   1.000  N
  N11      1.0000 0.24290  0.90590  0.68870  Biso   1.000  N
  N12      1.0000 0.25710  0.40590  0.81130  Biso   1.000  N
  O17      1.0000 0.02300  0.84670  0.47610  Biso   1.000  O
  O18      1.0000 0.47700  0.34670  0.02390  Biso   1.000  O
  O19      1.0000 0.97700  0.15330  0.52390  Biso   1.000  O
  O20      1.0000 0.52300  0.65330  0.97610  Biso   1.000  O
  N13      1.0000 0.90540  0.74950  0.46240  Biso   1.000  N
  N14      1.0000 0.59460  0.24950  0.03760  Biso   1.000  N
  N15      1.0000 0.09460  0.25050  0.53760  Biso   1.000  N
  N16      1.0000 0.40540  0.75050  0.96240  Biso   1.000  N
  C9       1.0000 0.65680  0.58870  0.63360  Biso   1.000  C
  C10      1.0000 0.84320  0.08870  0.86640  Biso   1.000  C
  C11      1.0000 0.34320  0.41130  0.36640  Biso   1.000  C
  C12      1.0000 0.15680  0.91130  0.13360  Biso   1.000  C
  C13      1.0000 0.67200  0.47830  0.57960  Biso   1.000  C
  C14      1.0000 0.82800  0.97830  0.92040  Biso   1.000  C
  C15      1.0000 0.32800  0.52170  0.42040  Biso   1.000  C
  C16      1.0000 0.17200  0.02170  0.07960  Biso   1.000  C
  N17      1.0000 0.70400  0.85640  0.68940  Biso   1.000  N
  N18      1.0000 0.79600  0.35640  0.81060  Biso   1.000  N
  N19      1.0000 0.29600  0.14360  0.31060  Biso   1.000  N
  N20      1.0000 0.20400  0.64360  0.18940  Biso   1.000  N
  C17      1.0000 0.59520  0.31440  0.58540  Biso   1.000  C
  C18      1.0000 0.90480  0.81440  0.91460  Biso   1.000  C
  C19      1.0000 0.40480  0.68560  0.41460  Biso   1.000  C
  C20      1.0000 0.09520  0.18560  0.08540  Biso   1.000  C
  C21      1.0000 0.72390  0.74110  0.63190  Biso   1.000  C
  C22      1.0000 0.77610  0.24110  0.86810  Biso   1.000  C
  C23      1.0000 0.27610  0.25890  0.36810  Biso   1.000  C
  C24      1.0000 0.22390  0.75890  0.13190  Biso   1.000  C
  O21      1.0000 0.60430  0.82470  0.73090  Biso   1.000  O
  O22      1.0000 0.89570  0.32470  0.76910  Biso   1.000  O
  O23      1.0000 0.39570  0.17530  0.26910  Biso   1.000  O
  O24      1.0000 0.10430  0.67530  0.23090  Biso   1.000  O
  C25      1.0000 0.75630  0.52570  0.51950  Biso   1.000  C
  C26      1.0000 0.74370  0.02570  0.98050  Biso   1.000  C
  C27      1.0000 0.24370  0.47430  0.48050  Biso   1.000  C
  C28      1.0000 0.25630  0.97430  0.01950  Biso   1.000  C
  C29      1.0000 0.82240  0.68740  0.52180  Biso   1.000  C
  C30      1.0000 0.67760  0.18740  0.97820  Biso   1.000  C
  C31      1.0000 0.17760  0.31260  0.47820  Biso   1.000  C
  C32      1.0000 0.32240  0.81260  0.02180  Biso   1.000  C
  C33      1.0000 0.80970  0.79470  0.57650  Biso   1.000  C
  C34      1.0000 0.69030  0.29470  0.92350  Biso   1.000  C
  C35      1.0000 0.19030  0.20530  0.42350  Biso   1.000  C
  C36      1.0000 0.30970  0.70530  0.07650  Biso   1.000  C
  H13      1.0000 0.85650  0.89850  0.57650  Biso   1.000  H
  H14      1.0000 0.64350  0.39850  0.92350  Biso   1.000  H
  H15      1.0000 0.14350  0.10150  0.42350  Biso   1.000  H
  H16      1.0000 0.35650  0.60150  0.07650  Biso   1.000  H
  O25      1.0000 0.79340  0.97950  0.69280  Biso   1.000  O
  O26      1.0000 0.70660  0.47950  0.80720  Biso   1.000  O
  O27      1.0000 0.20660  0.02050  0.30720  Biso   1.000  O
  O28      1.0000 0.29340  0.52050  0.19280  Biso   1.000  O
  H17      1.0000 0.59800  0.54300  0.67300  Biso   1.000  H
  H18      1.0000 0.90200  0.04300  0.82700  Biso   1.000  H
  H19      1.0000 0.40200  0.45700  0.32700  Biso   1.000  H
  H20      1.0000 0.09800  0.95700  0.17300  Biso   1.000  H
  O29      1.0000 0.61710  0.00860  0.42300  Biso   1.000  O
  O30      1.0000 0.88290  0.50860  0.07700  Biso   1.000  O
  O31      1.0000 0.38290  0.99140  0.57700  Biso   1.000  O
  O32      1.0000 0.11710  0.49140  0.92300  Biso   1.000  O
  O33      1.0000 0.88100  0.47940  0.32640  Biso   1.000  O
  O34      1.0000 0.61900  0.97940  0.17360  Biso   1.000  O
  O35      1.0000 0.11900  0.52060  0.67360  Biso   1.000  O
  O36      1.0000 0.38100  0.02060  0.82640  Biso   1.000  O
