data_image0
_cell_length_a       23.356
_cell_length_b       15.834
_cell_length_c       13.444
_cell_angle_alpha    90
_cell_angle_beta     108.893
_cell_angle_gamma    90

_symmetry_space_group_name_H-M    "P 1"
_symmetry_int_tables_number       1

loop_
  _symmetry_equiv_pos_as_xyz
  'x, y, z'

loop_
  _atom_site_label
  _atom_site_occupancy
  _atom_site_fract_x
  _atom_site_fract_y
  _atom_site_fract_z
  _atom_site_thermal_displace_type
  _atom_site_B_iso_or_equiv
  _atom_site_type_symbol
  Cu1      1.0000 0.44841  0.24110  0.04864  Biso   1.000  Cu
  Cu2      1.0000 0.44841  0.75890  0.54864  Biso   1.000  Cu
  Cu3      1.0000 0.94841  0.74110  0.04864  Biso   1.000  Cu
  Cu4      1.0000 0.94841  0.25890  0.54864  Biso   1.000  Cu
  Cu5      1.0000 0.76586  0.24883  0.90467  Biso   1.000  Cu
  Cu6      1.0000 0.76586  0.75117  0.40467  Biso   1.000  Cu
  Cu7      1.0000 0.26586  0.74883  0.90467  Biso   1.000  Cu
  Cu8      1.0000 0.26586  0.25117  0.40467  Biso   1.000  Cu
  O1       1.0000 0.42180  0.16010  0.31330  Biso   1.000  O
  O2       1.0000 0.42180  0.83990  0.81330  Biso   1.000  O
  O3       1.0000 0.92180  0.66010  0.31330  Biso   1.000  O
  O4       1.0000 0.92180  0.33990  0.81330  Biso   1.000  O
  O5       1.0000 0.43040  0.34040  0.31260  Biso   1.000  O
  O6       1.0000 0.43040  0.65960  0.81260  Biso   1.000  O
  O7       1.0000 0.93040  0.84040  0.31260  Biso   1.000  O
  O8       1.0000 0.93040  0.15960  0.81260  Biso   1.000  O
  O9       1.0000 0.48470  0.23740  0.93780  Biso   1.000  O
  O10      1.0000 0.48470  0.76260  0.43780  Biso   1.000  O
  O11      1.0000 0.98470  0.73740  0.93780  Biso   1.000  O
  O12      1.0000 0.98470  0.26260  0.43780  Biso   1.000  O
  O13      1.0000 0.57320  0.21520  0.06080  Biso   1.000  O
  O14      1.0000 0.57320  0.78480  0.56080  Biso   1.000  O
  O15      1.0000 0.07320  0.71520  0.06080  Biso   1.000  O
  O16      1.0000 0.07320  0.28480  0.56080  Biso   1.000  O
  O17      1.0000 0.26150  0.25270  0.54570  Biso   1.000  O
  O18      1.0000 0.26150  0.74730  0.04570  Biso   1.000  O
  O19      1.0000 0.76150  0.75270  0.54570  Biso   1.000  O
  O20      1.0000 0.76150  0.24730  0.04570  Biso   1.000  O
  O21      1.0000 0.36220  0.24580  0.61780  Biso   1.000  O
  O22      1.0000 0.36220  0.75420  0.11780  Biso   1.000  O
  O23      1.0000 0.86220  0.74580  0.61780  Biso   1.000  O
  O24      1.0000 0.86220  0.25420  0.11780  Biso   1.000  O
  O25      1.0000 0.78350  0.34100  0.63710  Biso   1.000  O
  O26      1.0000 0.78350  0.65900  0.13710  Biso   1.000  O
  O27      1.0000 0.28350  0.84100  0.63710  Biso   1.000  O
  O28      1.0000 0.28350  0.15900  0.13710  Biso   1.000  O
  O29      1.0000 0.79570  0.16020  0.64610  Biso   1.000  O
  O30      1.0000 0.79570  0.83980  0.14610  Biso   1.000  O
  O31      1.0000 0.29570  0.66020  0.64610  Biso   1.000  O
  O32      1.0000 0.29570  0.33980  0.14610  Biso   1.000  O
  N1       1.0000 0.44240  0.11580  0.07220  Biso   1.000  N
  N2       1.0000 0.44240  0.88420  0.57220  Biso   1.000  N
  N3       1.0000 0.94240  0.61580  0.07220  Biso   1.000  N
  N4       1.0000 0.94240  0.38420  0.57220  Biso   1.000  N
  N5       1.0000 0.43540  0.24490  0.18190  Biso   1.000  N
  N6       1.0000 0.43540  0.75510  0.68190  Biso   1.000  N
  N7       1.0000 0.93540  0.74490  0.18190  Biso   1.000  N
  N8       1.0000 0.93540  0.25510  0.68190  Biso   1.000  N
  N9       1.0000 0.45420  0.36780  0.07040  Biso   1.000  N
  N10      1.0000 0.45420  0.63220  0.57040  Biso   1.000  N
  N11      1.0000 0.95420  0.86780  0.07040  Biso   1.000  N
  N12      1.0000 0.95420  0.13220  0.57040  Biso   1.000  N
  N13      1.0000 0.66310  0.24660  0.84440  Biso   1.000  N
  N14      1.0000 0.66310  0.75340  0.34440  Biso   1.000  N
  N15      1.0000 0.16310  0.74660  0.84440  Biso   1.000  N
  N16      1.0000 0.16310  0.25340  0.34440  Biso   1.000  N
  N17      1.0000 0.78330  0.12570  0.89670  Biso   1.000  N
  N18      1.0000 0.78330  0.87430  0.39670  Biso   1.000  N
  N19      1.0000 0.28330  0.62570  0.89670  Biso   1.000  N
  N20      1.0000 0.28330  0.37430  0.39670  Biso   1.000  N
  N21      1.0000 0.77980  0.24980  0.76940  Biso   1.000  N
  N22      1.0000 0.77980  0.75020  0.26940  Biso   1.000  N
  N23      1.0000 0.27980  0.74980  0.76940  Biso   1.000  N
  N24      1.0000 0.27980  0.25020  0.26940  Biso   1.000  N
  N25      1.0000 0.77340  0.37420  0.89100  Biso   1.000  N
  N26      1.0000 0.77340  0.62580  0.39100  Biso   1.000  N
  N27      1.0000 0.27340  0.87420  0.89100  Biso   1.000  N
  N28      1.0000 0.27340  0.12580  0.39100  Biso   1.000  N
  N29      1.0000 0.35520  0.24530  0.91630  Biso   1.000  N
  N30      1.0000 0.35520  0.75470  0.41630  Biso   1.000  N
  N31      1.0000 0.85520  0.74530  0.91630  Biso   1.000  N
  N32      1.0000 0.85520  0.25470  0.41630  Biso   1.000  N
  C1       1.0000 0.44680  0.05210  0.01060  Biso   1.000  C
  C2       1.0000 0.44680  0.94790  0.51060  Biso   1.000  C
  C3       1.0000 0.94680  0.55210  0.01060  Biso   1.000  C
  C4       1.0000 0.94680  0.44790  0.51060  Biso   1.000  C
  H1       1.0000 0.45530  0.06580  0.94970  Biso   1.000  H
  H2       1.0000 0.45530  0.93420  0.44970  Biso   1.000  H
  H3       1.0000 0.95530  0.56580  0.94970  Biso   1.000  H
  H4       1.0000 0.95530  0.43420  0.44970  Biso   1.000  H
  C5       1.0000 0.44000  0.96910  0.02860  Biso   1.000  C
  C6       1.0000 0.44000  0.03090  0.52860  Biso   1.000  C
  C7       1.0000 0.94000  0.46910  0.02860  Biso   1.000  C
  C8       1.0000 0.94000  0.53090  0.52860  Biso   1.000  C
  H5       1.0000 0.44260  0.92770  0.98120  Biso   1.000  H
  H6       1.0000 0.44260  0.07230  0.48120  Biso   1.000  H
  H7       1.0000 0.94260  0.42770  0.98120  Biso   1.000  H
  H8       1.0000 0.94260  0.57230  0.48120  Biso   1.000  H
  C9       1.0000 0.42880  0.94860  0.12330  Biso   1.000  C
  C10      1.0000 0.42880  0.05140  0.62330  Biso   1.000  C
  C11      1.0000 0.92880  0.44860  0.12330  Biso   1.000  C
  C12      1.0000 0.92880  0.55140  0.62330  Biso   1.000  C
  H9       1.0000 0.42530  0.89280  0.14210  Biso   1.000  H
  H10      1.0000 0.42530  0.10720  0.64210  Biso   1.000  H
  H11      1.0000 0.92530  0.39280  0.14210  Biso   1.000  H
  H12      1.0000 0.92530  0.60720  0.64210  Biso   1.000  H
  C13      1.0000 0.42320  0.01580  0.18760  Biso   1.000  C
  C14      1.0000 0.42320  0.98420  0.68760  Biso   1.000  C
  C15      1.0000 0.92320  0.51580  0.18760  Biso   1.000  C
  C16      1.0000 0.92320  0.48420  0.68760  Biso   1.000  C
  H13      1.0000 0.41350  0.00540  0.24840  Biso   1.000  H
  H14      1.0000 0.41350  0.99460  0.74840  Biso   1.000  H
  H15      1.0000 0.91350  0.50540  0.24840  Biso   1.000  H
  H16      1.0000 0.91350  0.49460  0.74840  Biso   1.000  H
  C17      1.0000 0.43220  0.09760  0.15960  Biso   1.000  C
  C18      1.0000 0.43220  0.90240  0.65960  Biso   1.000  C
  C19      1.0000 0.93220  0.59760  0.15960  Biso   1.000  C
  C20      1.0000 0.93220  0.40240  0.65960  Biso   1.000  C
  C21      1.0000 0.43000  0.17110  0.22840  Biso   1.000  C
  C22      1.0000 0.43000  0.82890  0.72840  Biso   1.000  C
  C23      1.0000 0.93000  0.67110  0.22840  Biso   1.000  C
  C24      1.0000 0.93000  0.32890  0.72840  Biso   1.000  C
  C25      1.0000 0.43690  0.32380  0.22790  Biso   1.000  C
  C26      1.0000 0.43690  0.67620  0.72790  Biso   1.000  C
  C27      1.0000 0.93690  0.82380  0.22790  Biso   1.000  C
  C28      1.0000 0.93690  0.17620  0.72790  Biso   1.000  C
  C29      1.0000 0.44550  0.39240  0.15790  Biso   1.000  C
  C30      1.0000 0.44550  0.60760  0.65790  Biso   1.000  C
  C31      1.0000 0.94550  0.89240  0.15790  Biso   1.000  C
  C32      1.0000 0.94550  0.10760  0.65790  Biso   1.000  C
  C33      1.0000 0.44720  0.47530  0.18460  Biso   1.000  C
  C34      1.0000 0.44720  0.52470  0.68460  Biso   1.000  C
  C35      1.0000 0.94720  0.97530  0.18460  Biso   1.000  C
  C36      1.0000 0.94720  0.02470  0.68460  Biso   1.000  C
  H17      1.0000 0.44240  0.49220  0.24760  Biso   1.000  H
  H18      1.0000 0.44240  0.50780  0.74760  Biso   1.000  H
  H19      1.0000 0.94240  0.99220  0.24760  Biso   1.000  H
  H20      1.0000 0.94240  0.00780  0.74760  Biso   1.000  H
  C37      1.0000 0.45650  0.53500  0.11360  Biso   1.000  C
  C38      1.0000 0.45650  0.46500  0.61360  Biso   1.000  C
  C39      1.0000 0.95650  0.03500  0.11360  Biso   1.000  C
  C40      1.0000 0.95650  0.96500  0.61360  Biso   1.000  C
  H21      1.0000 0.45650  0.59240  0.12830  Biso   1.000  H
  H22      1.0000 0.45650  0.40760  0.62830  Biso   1.000  H
  H23      1.0000 0.95650  0.09240  0.12830  Biso   1.000  H
  H24      1.0000 0.95650  0.90760  0.62830  Biso   1.000  H
  C41      1.0000 0.46520  0.50940  0.02670  Biso   1.000  C
  C42      1.0000 0.46520  0.49060  0.52670  Biso   1.000  C
  C43      1.0000 0.96520  0.00940  0.02670  Biso   1.000  C
  C44      1.0000 0.96520  0.99060  0.52670  Biso   1.000  C
  H25      1.0000 0.47220  0.54840  0.98020  Biso   1.000  H
  H26      1.0000 0.47220  0.45160  0.48020  Biso   1.000  H
  H27      1.0000 0.97220  0.04840  0.98020  Biso   1.000  H
  H28      1.0000 0.97220  0.95160  0.48020  Biso   1.000  H
  C45      1.0000 0.46390  0.42830  0.00600  Biso   1.000  C
  C46      1.0000 0.46390  0.57170  0.50600  Biso   1.000  C
  C47      1.0000 0.96390  0.92830  0.00600  Biso   1.000  C
  C48      1.0000 0.96390  0.07170  0.50600  Biso   1.000  C
  H29      1.0000 0.47000  0.41130  0.94400  Biso   1.000  H
  H30      1.0000 0.47000  0.58870  0.44400  Biso   1.000  H
  H31      1.0000 0.97000  0.91130  0.94400  Biso   1.000  H
  H32      1.0000 0.97000  0.08870  0.44400  Biso   1.000  H
  C49      1.0000 0.54130  0.22850  0.96800  Biso   1.000  C
  C50      1.0000 0.54130  0.77150  0.46800  Biso   1.000  C
  C51      1.0000 0.04130  0.72850  0.96800  Biso   1.000  C
  C52      1.0000 0.04130  0.27150  0.46800  Biso   1.000  C
  C53      1.0000 0.57140  0.23890  0.88500  Biso   1.000  C
  C54      1.0000 0.57140  0.76110  0.38500  Biso   1.000  C
  C55      1.0000 0.07140  0.73890  0.88500  Biso   1.000  C
  C56      1.0000 0.07140  0.26110  0.38500  Biso   1.000  C
  C57      1.0000 0.63240  0.23920  0.91220  Biso   1.000  C
  C58      1.0000 0.63240  0.76080  0.41220  Biso   1.000  C
  C59      1.0000 0.13240  0.73920  0.91220  Biso   1.000  C
  C60      1.0000 0.13240  0.26080  0.41220  Biso   1.000  C
  H33      1.0000 0.65450  0.23390  0.98320  Biso   1.000  H
  H34      1.0000 0.65450  0.76610  0.48320  Biso   1.000  H
  H35      1.0000 0.15450  0.73390  0.98320  Biso   1.000  H
  H36      1.0000 0.15450  0.26610  0.48320  Biso   1.000  H
  C61      1.0000 0.62970  0.25920  0.74310  Biso   1.000  C
  C62      1.0000 0.62970  0.74080  0.24310  Biso   1.000  C
  C63      1.0000 0.12970  0.75920  0.74310  Biso   1.000  C
  C64      1.0000 0.12970  0.24080  0.24310  Biso   1.000  C
  H37      1.0000 0.64990  0.26700  0.69450  Biso   1.000  H
  H38      1.0000 0.64990  0.73300  0.19450  Biso   1.000  H
  H39      1.0000 0.14990  0.76700  0.69450  Biso   1.000  H
  H40      1.0000 0.14990  0.23300  0.19450  Biso   1.000  H
  C65      1.0000 0.56830  0.26110  0.70770  Biso   1.000  C
  C66      1.0000 0.56830  0.73890  0.20770  Biso   1.000  C
  C67      1.0000 0.06830  0.76110  0.70770  Biso   1.000  C
  C68      1.0000 0.06830  0.23890  0.20770  Biso   1.000  C
  H41      1.0000 0.54720  0.27060  0.63700  Biso   1.000  H
  H42      1.0000 0.54720  0.72940  0.13700  Biso   1.000  H
  H43      1.0000 0.04720  0.77060  0.63700  Biso   1.000  H
  H44      1.0000 0.04720  0.22940  0.13700  Biso   1.000  H
  C69      1.0000 0.53700  0.24840  0.78010  Biso   1.000  C
  C70      1.0000 0.53700  0.75160  0.28010  Biso   1.000  C
  C71      1.0000 0.03700  0.74840  0.78010  Biso   1.000  C
  C72      1.0000 0.03700  0.25160  0.28010  Biso   1.000  C
  H45      1.0000 0.49500  0.24640  0.75850  Biso   1.000  H
  H46      1.0000 0.49500  0.75360  0.25850  Biso   1.000  H
  H47      1.0000 0.99500  0.74640  0.75850  Biso   1.000  H
  H48      1.0000 0.99500  0.25360  0.25850  Biso   1.000  H
  C73      1.0000 0.31100  0.25010  0.62540  Biso   1.000  C
  C74      1.0000 0.31100  0.74990  0.12540  Biso   1.000  C
  C75      1.0000 0.81100  0.75010  0.62540  Biso   1.000  C
  C76      1.0000 0.81100  0.24990  0.12540  Biso   1.000  C
  C77      1.0000 0.30370  0.25150  0.73180  Biso   1.000  C
  C78      1.0000 0.30370  0.74850  0.23180  Biso   1.000  C
  C79      1.0000 0.80370  0.75150  0.73180  Biso   1.000  C
  C80      1.0000 0.80370  0.24850  0.23180  Biso   1.000  C
  C81      1.0000 0.35530  0.24470  0.81820  Biso   1.000  C
  C82      1.0000 0.35530  0.75530  0.31820  Biso   1.000  C
  C83      1.0000 0.85530  0.74470  0.81820  Biso   1.000  C
  C84      1.0000 0.85530  0.25530  0.31820  Biso   1.000  C
  H49      1.0000 0.39220  0.23920  0.80660  Biso   1.000  H
  H50      1.0000 0.39220  0.76080  0.30660  Biso   1.000  H
  H51      1.0000 0.89220  0.73920  0.80660  Biso   1.000  H
  H52      1.0000 0.89220  0.26080  0.30660  Biso   1.000  H
  C85      1.0000 0.30200  0.25330  0.93350  Biso   1.000  C
  C86      1.0000 0.30200  0.74670  0.43350  Biso   1.000  C
  C87      1.0000 0.80200  0.75330  0.93350  Biso   1.000  C
  C88      1.0000 0.80200  0.24670  0.43350  Biso   1.000  C
  H53      1.0000 0.30100  0.25360  0.00210  Biso   1.000  H
  H54      1.0000 0.30100  0.74640  0.50210  Biso   1.000  H
  H55      1.0000 0.80100  0.75360  0.00210  Biso   1.000  H
  H56      1.0000 0.80100  0.24640  0.50210  Biso   1.000  H
  C89      1.0000 0.24790  0.26110  0.84930  Biso   1.000  C
  C90      1.0000 0.24790  0.73890  0.34930  Biso   1.000  C
  C91      1.0000 0.74790  0.76110  0.84930  Biso   1.000  C
  C92      1.0000 0.74790  0.23890  0.34930  Biso   1.000  C
  H57      1.0000 0.21140  0.26740  0.86240  Biso   1.000  H
  H58      1.0000 0.21140  0.73260  0.36240  Biso   1.000  H
  H59      1.0000 0.71140  0.76740  0.86240  Biso   1.000  H
  H60      1.0000 0.71140  0.23260  0.36240  Biso   1.000  H
  C93      1.0000 0.24880  0.25940  0.74730  Biso   1.000  C
  C94      1.0000 0.24880  0.74060  0.24730  Biso   1.000  C
  C95      1.0000 0.74880  0.75940  0.74730  Biso   1.000  C
  C96      1.0000 0.74880  0.24060  0.24730  Biso   1.000  C
  H61      1.0000 0.21320  0.26360  0.69070  Biso   1.000  H
  H62      1.0000 0.21320  0.73640  0.19070  Biso   1.000  H
  H63      1.0000 0.71320  0.76360  0.69070  Biso   1.000  H
  H64      1.0000 0.71320  0.23640  0.19070  Biso   1.000  H
  C97      1.0000 0.78390  0.06470  0.96640  Biso   1.000  C
  C98      1.0000 0.78390  0.93530  0.46640  Biso   1.000  C
  C99      1.0000 0.28390  0.56470  0.96640  Biso   1.000  C
  C100     1.0000 0.28390  0.43530  0.46640  Biso   1.000  C
  H65      1.0000 0.77470  0.07800  0.02690  Biso   1.000  H
  H66      1.0000 0.77470  0.92200  0.52690  Biso   1.000  H
  H67      1.0000 0.27470  0.57800  0.02690  Biso   1.000  H
  H68      1.0000 0.27470  0.42200  0.52690  Biso   1.000  H
  C101     1.0000 0.79810  0.98260  0.94940  Biso   1.000  C
  C102     1.0000 0.79810  0.01740  0.44940  Biso   1.000  C
  C103     1.0000 0.29810  0.48260  0.94940  Biso   1.000  C
  C104     1.0000 0.29810  0.51740  0.44940  Biso   1.000  C
  H69      1.0000 0.80100  0.94180  0.00050  Biso   1.000  H
  H70      1.0000 0.80100  0.05820  0.50050  Biso   1.000  H
  H71      1.0000 0.30100  0.44180  0.00050  Biso   1.000  H
  H72      1.0000 0.30100  0.55820  0.50050  Biso   1.000  H
  C105     1.0000 0.80770  0.96130  0.85900  Biso   1.000  C
  C106     1.0000 0.80770  0.03870  0.35900  Biso   1.000  C
  C107     1.0000 0.30770  0.46130  0.85900  Biso   1.000  C
  C108     1.0000 0.30770  0.53870  0.35900  Biso   1.000  C
  H73      1.0000 0.81530  0.90540  0.84610  Biso   1.000  H
  H74      1.0000 0.81530  0.09460  0.34610  Biso   1.000  H
  H75      1.0000 0.31530  0.40540  0.84610  Biso   1.000  H
  H76      1.0000 0.31530  0.59460  0.34610  Biso   1.000  H
  C109     1.0000 0.80610  0.02330  0.78570  Biso   1.000  C
  C110     1.0000 0.80610  0.97670  0.28570  Biso   1.000  C
  C111     1.0000 0.30610  0.52330  0.78570  Biso   1.000  C
  C112     1.0000 0.30610  0.47670  0.28570  Biso   1.000  C
  H77      1.0000 0.81370  0.01030  0.72370  Biso   1.000  H
  H78      1.0000 0.81370  0.98970  0.22370  Biso   1.000  H
  H79      1.0000 0.31370  0.51030  0.72370  Biso   1.000  H
  H80      1.0000 0.31370  0.48970  0.22370  Biso   1.000  H
  C113     1.0000 0.79320  0.10370  0.80660  Biso   1.000  C
  C114     1.0000 0.79320  0.89630  0.30660  Biso   1.000  C
  C115     1.0000 0.29320  0.60370  0.80660  Biso   1.000  C
  C116     1.0000 0.29320  0.39630  0.30660  Biso   1.000  C
  C117     1.0000 0.79090  0.17460  0.73030  Biso   1.000  C
  C118     1.0000 0.79090  0.82540  0.23030  Biso   1.000  C
  C119     1.0000 0.29090  0.67460  0.73030  Biso   1.000  C
  C120     1.0000 0.29090  0.32540  0.23030  Biso   1.000  C
  C121     1.0000 0.78150  0.32600  0.72320  Biso   1.000  C
  C122     1.0000 0.78150  0.67400  0.22320  Biso   1.000  C
  C123     1.0000 0.28150  0.82600  0.72320  Biso   1.000  C
  C124     1.0000 0.28150  0.17400  0.22320  Biso   1.000  C
  C125     1.0000 0.77830  0.39830  0.79790  Biso   1.000  C
  C126     1.0000 0.77830  0.60170  0.29790  Biso   1.000  C
  C127     1.0000 0.27830  0.89830  0.79790  Biso   1.000  C
  C128     1.0000 0.27830  0.10170  0.29790  Biso   1.000  C
  C129     1.0000 0.78120  0.48000  0.77070  Biso   1.000  C
  C130     1.0000 0.78120  0.52000  0.27070  Biso   1.000  C
  C131     1.0000 0.28120  0.98000  0.77070  Biso   1.000  C
  C132     1.0000 0.28120  0.02000  0.27070  Biso   1.000  C
  H81      1.0000 0.78450  0.49370  0.70560  Biso   1.000  H
  H82      1.0000 0.78450  0.50630  0.20560  Biso   1.000  H
  H83      1.0000 0.28450  0.99370  0.70560  Biso   1.000  H
  H84      1.0000 0.28450  0.00630  0.20560  Biso   1.000  H
  C133     1.0000 0.77900  0.54330  0.84100  Biso   1.000  C
  C134     1.0000 0.77900  0.45670  0.34100  Biso   1.000  C
  C135     1.0000 0.27900  0.04330  0.84100  Biso   1.000  C
  C136     1.0000 0.27900  0.95670  0.34100  Biso   1.000  C
  H85      1.0000 0.78160  0.60000  0.82490  Biso   1.000  H
  H86      1.0000 0.78160  0.40000  0.32490  Biso   1.000  H
  H87      1.0000 0.28160  0.10000  0.82490  Biso   1.000  H
  H88      1.0000 0.28160  0.90000  0.32490  Biso   1.000  H
  C137     1.0000 0.77300  0.51880  0.93630  Biso   1.000  C
  C138     1.0000 0.77300  0.48120  0.43630  Biso   1.000  C
  C139     1.0000 0.27300  0.01880  0.93630  Biso   1.000  C
  C140     1.0000 0.27300  0.98120  0.43630  Biso   1.000  C
  H89      1.0000 0.77070  0.55920  0.98500  Biso   1.000  H
  H90      1.0000 0.77070  0.44080  0.48500  Biso   1.000  H
  H91      1.0000 0.27070  0.05920  0.98500  Biso   1.000  H
  H92      1.0000 0.27070  0.94080  0.48500  Biso   1.000  H
  C141     1.0000 0.77030  0.43430  0.95810  Biso   1.000  C
  C142     1.0000 0.77030  0.56570  0.45810  Biso   1.000  C
  C143     1.0000 0.27030  0.93430  0.95810  Biso   1.000  C
  C144     1.0000 0.27030  0.06570  0.45810  Biso   1.000  C
  H93      1.0000 0.76620  0.41860  0.02210  Biso   1.000  H
  H94      1.0000 0.76620  0.58140  0.52210  Biso   1.000  H
  H95      1.0000 0.26620  0.91860  0.02210  Biso   1.000  H
  H96      1.0000 0.26620  0.08140  0.52210  Biso   1.000  H
  C145     1.0000 0.62070  0.49330  0.52560  Biso   1.000  C
  C146     1.0000 0.62070  0.50670  0.02560  Biso   1.000  C
  C147     1.0000 0.12070  0.99330  0.52560  Biso   1.000  C
  C148     1.0000 0.12070  0.00670  0.02560  Biso   1.000  C
  C149     1.0000 0.60190  0.36140  0.41490  Biso   1.000  C
  C150     1.0000 0.60190  0.63860  0.91490  Biso   1.000  C
  C151     1.0000 0.10190  0.86140  0.41490  Biso   1.000  C
  C152     1.0000 0.10190  0.13860  0.91490  Biso   1.000  C
  H97      1.0000 0.59800  0.33100  0.47150  Biso   1.000  H
  H98      1.0000 0.59800  0.66900  0.97150  Biso   1.000  H
  H99      1.0000 0.09800  0.83100  0.47150  Biso   1.000  H
  H100     1.0000 0.09800  0.16900  0.97150  Biso   1.000  H
  C153     1.0000 0.61250  0.44790  0.42410  Biso   1.000  C
  C154     1.0000 0.61250  0.55210  0.92410  Biso   1.000  C
  C155     1.0000 0.11250  0.94790  0.42410  Biso   1.000  C
  C156     1.0000 0.11250  0.05210  0.92410  Biso   1.000  C
  C157     1.0000 0.61840  0.49340  0.33950  Biso   1.000  C
  C158     1.0000 0.61840  0.50660  0.83950  Biso   1.000  C
  C159     1.0000 0.11840  0.99340  0.33950  Biso   1.000  C
  C160     1.0000 0.11840  0.00660  0.83950  Biso   1.000  C
  H101     1.0000 0.62550  0.55120  0.34560  Biso   1.000  H
  H102     1.0000 0.62550  0.44880  0.84560  Biso   1.000  H
  H103     1.0000 0.12550  0.05120  0.34560  Biso   1.000  H
  H104     1.0000 0.12550  0.94880  0.84560  Biso   1.000  H
  C161     1.0000 0.61360  0.45240  0.24570  Biso   1.000  C
  C162     1.0000 0.61360  0.54760  0.74570  Biso   1.000  C
  C163     1.0000 0.11360  0.95240  0.24570  Biso   1.000  C
  C164     1.0000 0.11360  0.04760  0.74570  Biso   1.000  C
  H105     1.0000 0.61750  0.48280  0.18910  Biso   1.000  H
  H106     1.0000 0.61750  0.51720  0.68910  Biso   1.000  H
  H107     1.0000 0.11750  0.98280  0.18910  Biso   1.000  H
  H108     1.0000 0.11750  0.01720  0.68910  Biso   1.000  H
  C165     1.0000 0.60290  0.36590  0.23650  Biso   1.000  C
  C166     1.0000 0.60290  0.63410  0.73650  Biso   1.000  C
  C167     1.0000 0.10290  0.86590  0.23650  Biso   1.000  C
  C168     1.0000 0.10290  0.13410  0.73650  Biso   1.000  C
  H109     1.0000 0.59970  0.33850  0.17380  Biso   1.000  H
  H110     1.0000 0.59970  0.66150  0.67380  Biso   1.000  H
  H111     1.0000 0.09970  0.83850  0.17380  Biso   1.000  H
  H112     1.0000 0.09970  0.16150  0.67380  Biso   1.000  H
  N33      1.0000 0.59710  0.32040  0.32110  Biso   1.000  N
  N34      1.0000 0.59710  0.67960  0.82110  Biso   1.000  N
  N35      1.0000 0.09710  0.82040  0.32110  Biso   1.000  N
  N36      1.0000 0.09710  0.17960  0.82110  Biso   1.000  N
  O33      1.0000 0.61580  0.44040  0.59810  Biso   1.000  O
  O34      1.0000 0.61580  0.55960  0.09810  Biso   1.000  O
  O35      1.0000 0.11580  0.94040  0.59810  Biso   1.000  O
  O36      1.0000 0.11580  0.05960  0.09810  Biso   1.000  O
  H113     1.0000 0.57990  0.43440  0.59230  Biso   1.000  H
  H114     1.0000 0.57990  0.56560  0.09230  Biso   1.000  H
  H115     1.0000 0.07990  0.93440  0.59230  Biso   1.000  H
  H116     1.0000 0.07990  0.06560  0.09230  Biso   1.000  H
  O37      1.0000 0.62830  0.56950  0.52740  Biso   1.000  O
  O38      1.0000 0.62830  0.43050  0.02740  Biso   1.000  O
  O39      1.0000 0.12830  0.06950  0.52740  Biso   1.000  O
  O40      1.0000 0.12830  0.93050  0.02740  Biso   1.000  O
  O41      1.0000 0.44480  0.26090  0.51640  Biso   1.000  O
  O42      1.0000 0.44480  0.73910  0.01640  Biso   1.000  O
  O43      1.0000 0.94480  0.76090  0.51640  Biso   1.000  O
  O44      1.0000 0.94480  0.23910  0.01640  Biso   1.000  O
  H117     1.0000 0.41010  0.28170  0.50830  Biso   1.000  H
  H118     1.0000 0.41010  0.71830  0.00830  Biso   1.000  H
  H119     1.0000 0.91010  0.78170  0.50830  Biso   1.000  H
  H120     1.0000 0.91010  0.21830  0.00830  Biso   1.000  H
  H121     1.0000 0.45510  0.25690  0.46150  Biso   1.000  H
  H122     1.0000 0.45510  0.74310  0.96150  Biso   1.000  H
  H123     1.0000 0.95510  0.75690  0.46150  Biso   1.000  H
  H124     1.0000 0.95510  0.24310  0.96150  Biso   1.000  H
