data_image0
_cell_length_a       11.19
_cell_length_b       9.43
_cell_length_c       8.38
_cell_angle_alpha    90
_cell_angle_beta     90
_cell_angle_gamma    90

_symmetry_space_group_name_H-M    "P 1"
_symmetry_int_tables_number       1

loop_
  _symmetry_equiv_pos_as_xyz
  'x, y, z'

loop_
  _atom_site_label
  _atom_site_occupancy
  _atom_site_fract_x
  _atom_site_fract_y
  _atom_site_fract_z
  _atom_site_thermal_displace_type
  _atom_site_B_iso_or_equiv
  _atom_site_type_symbol
  Cu1      1.0000 0.07580  0.23720  0.12360  Biso   1.000  Cu
  Cu2      1.0000 0.42420  0.76280  0.62360  Biso   1.000  Cu
  Cu3      1.0000 0.57580  0.26280  0.87640  Biso   1.000  Cu
  Cu4      1.0000 0.92420  0.73720  0.37640  Biso   1.000  Cu
  Cu5      1.0000 0.92420  0.76280  0.87640  Biso   1.000  Cu
  Cu6      1.0000 0.57580  0.23720  0.37640  Biso   1.000  Cu
  Cu7      1.0000 0.42420  0.73720  0.12360  Biso   1.000  Cu
  Cu8      1.0000 0.07580  0.26280  0.62360  Biso   1.000  Cu
  C1       1.0000 0.02010  0.48490  0.91090  Biso   1.000  C
  C2       1.0000 0.47990  0.51510  0.41090  Biso   1.000  C
  C3       1.0000 0.52010  0.01510  0.08910  Biso   1.000  C
  C4       1.0000 0.97990  0.98490  0.58910  Biso   1.000  C
  C5       1.0000 0.97990  0.51510  0.08910  Biso   1.000  C
  C6       1.0000 0.52010  0.48490  0.58910  Biso   1.000  C
  C7       1.0000 0.47990  0.98490  0.91090  Biso   1.000  C
  C8       1.0000 0.02010  0.01510  0.41090  Biso   1.000  C
  C9       1.0000 0.93450  0.02330  0.01390  Biso   1.000  C
  C10      1.0000 0.56550  0.97670  0.51390  Biso   1.000  C
  C11      1.0000 0.43450  0.47670  0.98610  Biso   1.000  C
  C12      1.0000 0.06550  0.52330  0.48610  Biso   1.000  C
  C13      1.0000 0.06550  0.97670  0.98610  Biso   1.000  C
  C14      1.0000 0.43450  0.02330  0.48610  Biso   1.000  C
  C15      1.0000 0.56550  0.52330  0.01390  Biso   1.000  C
  C16      1.0000 0.93450  0.47670  0.51390  Biso   1.000  C
  H1       1.0000 0.25000  0.22500  0.26300  Biso   1.000  H
  H2       1.0000 0.25000  0.77500  0.76300  Biso   1.000  H
  H3       1.0000 0.75000  0.27500  0.73700  Biso   1.000  H
  H4       1.0000 0.75000  0.72500  0.23700  Biso   1.000  H
  H5       1.0000 0.75000  0.77500  0.73700  Biso   1.000  H
  H6       1.0000 0.75000  0.22500  0.23700  Biso   1.000  H
  H7       1.0000 0.25000  0.72500  0.26300  Biso   1.000  H
  H8       1.0000 0.25000  0.27500  0.76300  Biso   1.000  H
  H9       1.0000 0.29200  0.30000  0.12500  Biso   1.000  H
  H10      1.0000 0.20800  0.70000  0.62500  Biso   1.000  H
  H11      1.0000 0.79200  0.20000  0.87500  Biso   1.000  H
  H12      1.0000 0.70800  0.80000  0.37500  Biso   1.000  H
  H13      1.0000 0.70800  0.70000  0.87500  Biso   1.000  H
  H14      1.0000 0.79200  0.30000  0.37500  Biso   1.000  H
  H15      1.0000 0.20800  0.80000  0.12500  Biso   1.000  H
  H16      1.0000 0.29200  0.20000  0.62500  Biso   1.000  H
  H17      1.0000 0.21700  0.38800  0.23800  Biso   1.000  H
  H18      1.0000 0.28300  0.61200  0.73800  Biso   1.000  H
  H19      1.0000 0.71700  0.11200  0.76200  Biso   1.000  H
  H20      1.0000 0.78300  0.88800  0.26200  Biso   1.000  H
  H21      1.0000 0.78300  0.61200  0.76200  Biso   1.000  H
  H22      1.0000 0.71700  0.38800  0.26200  Biso   1.000  H
  H23      1.0000 0.28300  0.88800  0.23800  Biso   1.000  H
  H24      1.0000 0.21700  0.11200  0.73800  Biso   1.000  H
  N1       1.0000 0.23510  0.30180  0.19940  Biso   1.000  N
  N2       1.0000 0.26490  0.69820  0.69940  Biso   1.000  N
  N3       1.0000 0.73510  0.19820  0.80060  Biso   1.000  N
  N4       1.0000 0.76490  0.80180  0.30060  Biso   1.000  N
  N5       1.0000 0.76490  0.69820  0.80060  Biso   1.000  N
  N6       1.0000 0.73510  0.30180  0.30060  Biso   1.000  N
  N7       1.0000 0.26490  0.80180  0.19940  Biso   1.000  N
  N8       1.0000 0.23510  0.19820  0.69940  Biso   1.000  N
  O1       1.0000 0.92000  0.14540  0.07090  Biso   1.000  O
  O2       1.0000 0.58000  0.85460  0.57090  Biso   1.000  O
  O3       1.0000 0.42000  0.35460  0.92910  Biso   1.000  O
  O4       1.0000 0.08000  0.64540  0.42910  Biso   1.000  O
  O5       1.0000 0.08000  0.85460  0.92910  Biso   1.000  O
  O6       1.0000 0.42000  0.14540  0.42910  Biso   1.000  O
  O7       1.0000 0.58000  0.64540  0.07090  Biso   1.000  O
  O8       1.0000 0.92000  0.35460  0.57090  Biso   1.000  O
  O9       1.0000 0.06260  0.36670  0.88330  Biso   1.000  O
  O10      1.0000 0.43740  0.63330  0.38330  Biso   1.000  O
  O11      1.0000 0.56260  0.13330  0.11670  Biso   1.000  O
  O12      1.0000 0.93740  0.86670  0.61670  Biso   1.000  O
  O13      1.0000 0.93740  0.63330  0.11670  Biso   1.000  O
  O14      1.0000 0.56260  0.36670  0.61670  Biso   1.000  O
  O15      1.0000 0.43740  0.86670  0.88330  Biso   1.000  O
  O16      1.0000 0.06260  0.13330  0.38330  Biso   1.000  O
  O17      1.0000 0.85420  0.93780  0.97690  Biso   1.000  O
  O18      1.0000 0.64580  0.06220  0.47690  Biso   1.000  O
  O19      1.0000 0.35420  0.56220  0.02310  Biso   1.000  O
  O20      1.0000 0.14580  0.43780  0.52310  Biso   1.000  O
  O21      1.0000 0.14580  0.06220  0.02310  Biso   1.000  O
  O22      1.0000 0.35420  0.93780  0.52310  Biso   1.000  O
  O23      1.0000 0.64580  0.43780  0.97690  Biso   1.000  O
  O24      1.0000 0.85420  0.56220  0.47690  Biso   1.000  O
  O25      1.0000 0.00330  0.58400  0.81080  Biso   1.000  O
  O26      1.0000 0.49670  0.41600  0.31080  Biso   1.000  O
  O27      1.0000 0.50330  0.91600  0.18920  Biso   1.000  O
  O28      1.0000 0.99670  0.08400  0.68920  Biso   1.000  O
  O29      1.0000 0.99670  0.41600  0.18920  Biso   1.000  O
  O30      1.0000 0.50330  0.58400  0.68920  Biso   1.000  O
  O31      1.0000 0.49670  0.08400  0.81080  Biso   1.000  O
  O32      1.0000 0.00330  0.91600  0.31080  Biso   1.000  O
