data_image0
_cell_length_a       6.293
_cell_length_b       5.781
_cell_length_c       5.539
_cell_angle_alpha    77.53
_cell_angle_beta     100.59
_cell_angle_gamma    104.11

_symmetry_space_group_name_H-M    "P 1"
_symmetry_int_tables_number       1

loop_
  _symmetry_equiv_pos_as_xyz
  'x, y, z'

loop_
  _atom_site_label
  _atom_site_occupancy
  _atom_site_fract_x
  _atom_site_fract_y
  _atom_site_fract_z
  _atom_site_thermal_displace_type
  _atom_site_B_iso_or_equiv
  _atom_site_type_symbol
  Cu1      1.0000 0.00000  0.00000  0.00000  Biso   1.000  Cu
  C1       1.0000 0.09960  0.49940  0.12000  Biso   1.000  C
  C2       1.0000 0.90040  0.50060  0.88000  Biso   1.000  C
  N1       1.0000 0.75490  0.89010  0.19910  Biso   1.000  N
  N2       1.0000 0.24510  0.10990  0.80090  Biso   1.000  N
  O1       1.0000 0.13980  0.28830  0.20710  Biso   1.000  O
  O2       1.0000 0.86020  0.71170  0.79290  Biso   1.000  O
  O3       1.0000 0.83660  0.31780  0.77960  Biso   1.000  O
  O4       1.0000 0.16340  0.68220  0.22040  Biso   1.000  O
  O5       1.0000 0.60190  0.31130  0.29860  Biso   1.000  O
  O6       1.0000 0.39810  0.68870  0.70140  Biso   1.000  O
