data_image0
_cell_length_a       10.257
_cell_length_b       15.533
_cell_length_c       18.873
_cell_angle_alpha    90
_cell_angle_beta     101.57
_cell_angle_gamma    90

_symmetry_space_group_name_H-M    "P 1"
_symmetry_int_tables_number       1

loop_
  _symmetry_equiv_pos_as_xyz
  'x, y, z'

loop_
  _atom_site_label
  _atom_site_occupancy
  _atom_site_fract_x
  _atom_site_fract_y
  _atom_site_fract_z
  _atom_site_thermal_displace_type
  _atom_site_B_iso_or_equiv
  _atom_site_type_symbol
  Cu1      1.0000 0.67697  0.81999  0.22707  Biso   1.000  Cu
  Cu2      1.0000 0.32303  0.31999  0.27293  Biso   1.000  Cu
  Cu3      1.0000 0.32303  0.18001  0.77293  Biso   1.000  Cu
  Cu4      1.0000 0.67697  0.68001  0.72707  Biso   1.000  Cu
  Cu5      1.0000 0.92793  0.59873  0.34757  Biso   1.000  Cu
  Cu6      1.0000 0.07207  0.09873  0.15243  Biso   1.000  Cu
  Cu7      1.0000 0.07207  0.40127  0.65243  Biso   1.000  Cu
  Cu8      1.0000 0.92793  0.90127  0.84757  Biso   1.000  Cu
  S1       1.0000 0.87044  0.99885  0.07915  Biso   1.000  S
  S2       1.0000 0.12956  0.49885  0.42085  Biso   1.000  S
  S3       1.0000 0.12956  0.00115  0.92085  Biso   1.000  S
  S4       1.0000 0.87044  0.50115  0.57915  Biso   1.000  S
  S5       1.0000 0.46867  0.72184  0.99552  Biso   1.000  S
  S6       1.0000 0.53133  0.22184  0.50448  Biso   1.000  S
  S7       1.0000 0.53133  0.27816  0.00448  Biso   1.000  S
  S8       1.0000 0.46867  0.77816  0.49552  Biso   1.000  S
  S9       1.0000 0.81391  0.44616  0.12599  Biso   1.000  S
  S10      1.0000 0.18609  0.94616  0.37401  Biso   1.000  S
  S11      1.0000 0.18609  0.55384  0.87401  Biso   1.000  S
  S12      1.0000 0.81391  0.05384  0.62599  Biso   1.000  S
  O1       1.0000 0.84370  0.73757  0.26834  Biso   1.000  O
  O2       1.0000 0.15630  0.23757  0.23166  Biso   1.000  O
  O3       1.0000 0.15630  0.26243  0.73166  Biso   1.000  O
  O4       1.0000 0.84370  0.76243  0.76834  Biso   1.000  O
  O5       1.0000 0.03780  0.67279  0.29849  Biso   1.000  O
  O6       1.0000 0.96220  0.17279  0.20151  Biso   1.000  O
  O7       1.0000 0.96220  0.32721  0.70151  Biso   1.000  O
  O8       1.0000 0.03780  0.82721  0.79849  Biso   1.000  O
  N1       1.0000 0.76100  0.91550  0.18340  Biso   1.000  N
  N2       1.0000 0.23900  0.41550  0.31660  Biso   1.000  N
  N3       1.0000 0.23900  0.08450  0.81660  Biso   1.000  N
  N4       1.0000 0.76100  0.58450  0.68340  Biso   1.000  N
  N5       1.0000 0.61770  0.76810  0.12991  Biso   1.000  N
  N6       1.0000 0.38230  0.26810  0.37009  Biso   1.000  N
  N7       1.0000 0.38230  0.23190  0.87009  Biso   1.000  N
  N8       1.0000 0.61770  0.73190  0.62991  Biso   1.000  N
  N9       1.0000 0.88330  0.52930  0.25820  Biso   1.000  N
  N10      1.0000 0.11670  0.02930  0.24180  Biso   1.000  N
  N11      1.0000 0.11670  0.47070  0.74180  Biso   1.000  N
  N12      1.0000 0.88330  0.97070  0.75820  Biso   1.000  N
  N13      1.0000 0.54710  0.74424  0.26361  Biso   1.000  N
  N14      1.0000 0.45290  0.24424  0.23639  Biso   1.000  N
  N15      1.0000 0.45290  0.25576  0.73639  Biso   1.000  N
  N16      1.0000 0.54710  0.75576  0.76361  Biso   1.000  N
  N17      1.0000 0.46200  0.86090  0.31957  Biso   1.000  N
  N18      1.0000 0.53800  0.36090  0.18043  Biso   1.000  N
  N19      1.0000 0.53800  0.13910  0.68043  Biso   1.000  N
  N20      1.0000 0.46200  0.63910  0.81957  Biso   1.000  N
  N21      1.0000 0.68640  0.88860  0.31852  Biso   1.000  N
  N22      1.0000 0.31360  0.38860  0.18148  Biso   1.000  N
  N23      1.0000 0.31360  0.11140  0.68148  Biso   1.000  N
  N24      1.0000 0.68640  0.61140  0.81852  Biso   1.000  N
  N25      1.0000 0.78520  0.54050  0.38773  Biso   1.000  N
  N26      1.0000 0.21480  0.04050  0.11227  Biso   1.000  N
  N27      1.0000 0.21480  0.45950  0.61227  Biso   1.000  N
  N28      1.0000 0.78520  0.95950  0.88773  Biso   1.000  N
  N29      1.0000 0.71940  0.67160  0.43240  Biso   1.000  N
  N30      1.0000 0.28060  0.17160  0.06760  Biso   1.000  N
  N31      1.0000 0.28060  0.32840  0.56760  Biso   1.000  N
  N32      1.0000 0.71940  0.82840  0.93240  Biso   1.000  N
  N33      1.0000 0.94900  0.68091  0.43124  Biso   1.000  N
  N34      1.0000 0.05100  0.18091  0.06876  Biso   1.000  N
  N35      1.0000 0.05100  0.31909  0.56876  Biso   1.000  N
  N36      1.0000 0.94900  0.81909  0.93124  Biso   1.000  N
  C1       1.0000 0.80730  0.95060  0.14120  Biso   1.000  C
  C2       1.0000 0.19270  0.45060  0.35880  Biso   1.000  C
  C3       1.0000 0.19270  0.04940  0.85880  Biso   1.000  C
  C4       1.0000 0.80730  0.54940  0.64120  Biso   1.000  C
  C5       1.0000 0.55540  0.74770  0.07510  Biso   1.000  C
  C6       1.0000 0.44460  0.24770  0.42490  Biso   1.000  C
  C7       1.0000 0.44460  0.25230  0.92490  Biso   1.000  C
  C8       1.0000 0.55540  0.75230  0.57510  Biso   1.000  C
  C9       1.0000 0.85350  0.49710  0.20350  Biso   1.000  C
  C10      1.0000 0.14650  0.99710  0.29650  Biso   1.000  C
  C11      1.0000 0.14650  0.50290  0.79650  Biso   1.000  C
  C12      1.0000 0.85350  0.00290  0.70350  Biso   1.000  C
  C13      1.0000 0.54080  0.65920  0.24560  Biso   1.000  C
  C14      1.0000 0.45920  0.15920  0.25440  Biso   1.000  C
  C15      1.0000 0.45920  0.34080  0.75440  Biso   1.000  C
  C16      1.0000 0.54080  0.84080  0.74560  Biso   1.000  C
  H1       1.0000 0.60800  0.63600  0.22490  Biso   1.000  H
  H2       1.0000 0.39200  0.13600  0.27510  Biso   1.000  H
  H3       1.0000 0.39200  0.36400  0.77510  Biso   1.000  H
  H4       1.0000 0.60800  0.86400  0.72490  Biso   1.000  H
  C17      1.0000 0.44060  0.60700  0.25640  Biso   1.000  C
  C18      1.0000 0.55940  0.10700  0.24360  Biso   1.000  C
  C19      1.0000 0.55940  0.39300  0.74360  Biso   1.000  C
  C20      1.0000 0.44060  0.89300  0.75640  Biso   1.000  C
  H5       1.0000 0.43990  0.54900  0.24420  Biso   1.000  H
  H6       1.0000 0.56010  0.04900  0.25580  Biso   1.000  H
  H7       1.0000 0.56010  0.45100  0.75580  Biso   1.000  H
  H8       1.0000 0.43990  0.95100  0.74420  Biso   1.000  H
  C21      1.0000 0.33880  0.64210  0.28620  Biso   1.000  C
  C22      1.0000 0.66120  0.14210  0.21380  Biso   1.000  C
  C23      1.0000 0.66120  0.35790  0.71380  Biso   1.000  C
  C24      1.0000 0.33880  0.85790  0.78620  Biso   1.000  C
  H9       1.0000 0.26690  0.60830  0.29210  Biso   1.000  H
  H10      1.0000 0.73310  0.10830  0.20790  Biso   1.000  H
  H11      1.0000 0.73310  0.39170  0.70790  Biso   1.000  H
  H12      1.0000 0.26690  0.89170  0.79210  Biso   1.000  H
  C25      1.0000 0.34550  0.72630  0.30670  Biso   1.000  C
  C26      1.0000 0.65450  0.22630  0.19330  Biso   1.000  C
  C27      1.0000 0.65450  0.27370  0.69330  Biso   1.000  C
  C28      1.0000 0.34550  0.77370  0.80670  Biso   1.000  C
  H13      1.0000 0.27910  0.75060  0.32740  Biso   1.000  H
  H14      1.0000 0.72090  0.25060  0.17260  Biso   1.000  H
  H15      1.0000 0.72090  0.24940  0.67260  Biso   1.000  H
  H16      1.0000 0.27910  0.74940  0.82740  Biso   1.000  H
  C29      1.0000 0.45340  0.77540  0.29606  Biso   1.000  C
  C30      1.0000 0.54660  0.27540  0.20394  Biso   1.000  C
  C31      1.0000 0.54660  0.22460  0.70394  Biso   1.000  C
  C32      1.0000 0.45340  0.72460  0.79606  Biso   1.000  C
  C33      1.0000 0.57800  0.90440  0.34570  Biso   1.000  C
  C34      1.0000 0.42200  0.40440  0.15430  Biso   1.000  C
  C35      1.0000 0.42200  0.09560  0.65430  Biso   1.000  C
  C36      1.0000 0.57800  0.59560  0.84570  Biso   1.000  C
  C37      1.0000 0.58000  0.96630  0.40050  Biso   1.000  C
  C38      1.0000 0.42000  0.46630  0.09950  Biso   1.000  C
  C39      1.0000 0.42000  0.03370  0.59950  Biso   1.000  C
  C40      1.0000 0.58000  0.53370  0.90050  Biso   1.000  C
  H17      1.0000 0.50290  0.97920  0.41710  Biso   1.000  H
  H18      1.0000 0.49710  0.47920  0.08290  Biso   1.000  H
  H19      1.0000 0.49710  0.02080  0.58290  Biso   1.000  H
  H20      1.0000 0.50290  0.52080  0.91710  Biso   1.000  H
  C41      1.0000 0.69620  0.00680  0.42870  Biso   1.000  C
  C42      1.0000 0.30380  0.50680  0.07130  Biso   1.000  C
  C43      1.0000 0.30380  0.99320  0.57130  Biso   1.000  C
  C44      1.0000 0.69620  0.49320  0.92870  Biso   1.000  C
  H21      1.0000 0.69920  0.04800  0.46470  Biso   1.000  H
  H22      1.0000 0.30080  0.54800  0.03530  Biso   1.000  H
  H23      1.0000 0.30080  0.95200  0.53530  Biso   1.000  H
  H24      1.0000 0.69920  0.45200  0.96470  Biso   1.000  H
  C45      1.0000 0.80930  0.98650  0.40370  Biso   1.000  C
  C46      1.0000 0.19070  0.48650  0.09630  Biso   1.000  C
  C47      1.0000 0.19070  0.01350  0.59630  Biso   1.000  C
  C48      1.0000 0.80930  0.51350  0.90370  Biso   1.000  C
  H25      1.0000 0.89030  0.01170  0.42420  Biso   1.000  H
  H26      1.0000 0.10970  0.51170  0.07580  Biso   1.000  H
  H27      1.0000 0.10970  0.98830  0.57580  Biso   1.000  H
  H28      1.0000 0.89030  0.48830  0.92420  Biso   1.000  H
  C49      1.0000 0.80140  0.92830  0.34780  Biso   1.000  C
  C50      1.0000 0.19860  0.42830  0.15220  Biso   1.000  C
  C51      1.0000 0.19860  0.07170  0.65220  Biso   1.000  C
  C52      1.0000 0.80140  0.57170  0.84780  Biso   1.000  C
  H29      1.0000 0.87740  0.91620  0.32980  Biso   1.000  H
  H30      1.0000 0.12260  0.41620  0.17020  Biso   1.000  H
  H31      1.0000 0.12260  0.08380  0.67020  Biso   1.000  H
  H32      1.0000 0.87740  0.58380  0.82980  Biso   1.000  H
  C53      1.0000 0.76460  0.45500  0.37700  Biso   1.000  C
  C54      1.0000 0.23540  0.95500  0.12300  Biso   1.000  C
  C55      1.0000 0.23540  0.54500  0.62300  Biso   1.000  C
  C56      1.0000 0.76460  0.04500  0.87700  Biso   1.000  C
  H33      1.0000 0.82910  0.42270  0.36070  Biso   1.000  H
  H34      1.0000 0.17090  0.92270  0.13930  Biso   1.000  H
  H35      1.0000 0.17090  0.57730  0.63930  Biso   1.000  H
  H36      1.0000 0.82910  0.07730  0.86070  Biso   1.000  H
  C57      1.0000 0.65310  0.41390  0.38920  Biso   1.000  C
  C58      1.0000 0.34690  0.91390  0.11080  Biso   1.000  C
  C59      1.0000 0.34690  0.58610  0.61080  Biso   1.000  C
  C60      1.0000 0.65310  0.08610  0.88920  Biso   1.000  C
  H37      1.0000 0.64240  0.35490  0.38170  Biso   1.000  H
  H38      1.0000 0.35760  0.85490  0.11830  Biso   1.000  H
  H39      1.0000 0.35760  0.64510  0.61830  Biso   1.000  H
  H40      1.0000 0.64240  0.14510  0.88170  Biso   1.000  H
  C61      1.0000 0.55800  0.46140  0.41270  Biso   1.000  C
  C62      1.0000 0.44200  0.96140  0.08730  Biso   1.000  C
  C63      1.0000 0.44200  0.53860  0.58730  Biso   1.000  C
  C64      1.0000 0.55800  0.03860  0.91270  Biso   1.000  C
  H41      1.0000 0.47990  0.43530  0.41960  Biso   1.000  H
  H42      1.0000 0.52010  0.93530  0.08040  Biso   1.000  H
  H43      1.0000 0.52010  0.56470  0.58040  Biso   1.000  H
  H44      1.0000 0.47990  0.06470  0.91960  Biso   1.000  H
  C65      1.0000 0.57770  0.54780  0.42630  Biso   1.000  C
  C66      1.0000 0.42230  0.04780  0.07370  Biso   1.000  C
  C67      1.0000 0.42230  0.45220  0.57370  Biso   1.000  C
  C68      1.0000 0.57770  0.95220  0.92630  Biso   1.000  C
  H45      1.0000 0.51400  0.58080  0.44250  Biso   1.000  H
  H46      1.0000 0.48600  0.08080  0.05750  Biso   1.000  H
  H47      1.0000 0.48600  0.41920  0.55750  Biso   1.000  H
  H48      1.0000 0.51400  0.91920  0.94250  Biso   1.000  H
  C69      1.0000 0.69600  0.58490  0.41497  Biso   1.000  C
  C70      1.0000 0.30400  0.08490  0.08503  Biso   1.000  C
  C71      1.0000 0.30400  0.41510  0.58503  Biso   1.000  C
  C72      1.0000 0.69600  0.91510  0.91497  Biso   1.000  C
  C73      1.0000 0.84240  0.70980  0.45477  Biso   1.000  C
  C74      1.0000 0.15760  0.20980  0.04523  Biso   1.000  C
  C75      1.0000 0.15760  0.29020  0.54523  Biso   1.000  C
  C76      1.0000 0.84240  0.79020  0.95477  Biso   1.000  C
  C77      1.0000 0.85190  0.77910  0.50230  Biso   1.000  C
  C78      1.0000 0.14810  0.27910  0.99770  Biso   1.000  C
  C79      1.0000 0.14810  0.22090  0.49770  Biso   1.000  C
  C80      1.0000 0.85190  0.72090  0.00230  Biso   1.000  C
  H49      1.0000 0.77650  0.80080  0.51640  Biso   1.000  H
  H50      1.0000 0.22350  0.30080  0.98360  Biso   1.000  H
  H51      1.0000 0.22350  0.19920  0.48360  Biso   1.000  H
  H52      1.0000 0.77650  0.69920  0.01640  Biso   1.000  H
  C81      1.0000 0.97380  0.81460  0.52770  Biso   1.000  C
  C82      1.0000 0.02620  0.31460  0.97230  Biso   1.000  C
  C83      1.0000 0.02620  0.18540  0.47230  Biso   1.000  C
  C84      1.0000 0.97380  0.68540  0.02770  Biso   1.000  C
  H53      1.0000 0.98190  0.86060  0.55980  Biso   1.000  H
  H54      1.0000 0.01810  0.36060  0.94020  Biso   1.000  H
  H55      1.0000 0.01810  0.13940  0.44020  Biso   1.000  H
  H56      1.0000 0.98190  0.63940  0.05980  Biso   1.000  H
  C85      1.0000 0.08530  0.78270  0.50630  Biso   1.000  C
  C86      1.0000 0.91470  0.28270  0.99370  Biso   1.000  C
  C87      1.0000 0.91470  0.21730  0.49370  Biso   1.000  C
  C88      1.0000 0.08530  0.71730  0.00630  Biso   1.000  C
  H57      1.0000 0.16930  0.80550  0.52440  Biso   1.000  H
  H58      1.0000 0.83070  0.30550  0.97560  Biso   1.000  H
  H59      1.0000 0.83070  0.19450  0.47560  Biso   1.000  H
  H60      1.0000 0.16930  0.69450  0.02440  Biso   1.000  H
  C89      1.0000 0.06840  0.71670  0.45780  Biso   1.000  C
  C90      1.0000 0.93160  0.21670  0.04220  Biso   1.000  C
  C91      1.0000 0.93160  0.28330  0.54220  Biso   1.000  C
  C92      1.0000 0.06840  0.78330  0.95780  Biso   1.000  C
  H61      1.0000 0.14260  0.69540  0.44230  Biso   1.000  H
  H62      1.0000 0.85740  0.19540  0.05770  Biso   1.000  H
  H63      1.0000 0.85740  0.30460  0.55770  Biso   1.000  H
  H64      1.0000 0.14260  0.80460  0.94230  Biso   1.000  H
  C93      1.0000 0.96100  0.72810  0.26204  Biso   1.000  C
  C94      1.0000 0.03900  0.22810  0.23796  Biso   1.000  C
  C95      1.0000 0.03900  0.27190  0.73796  Biso   1.000  C
  C96      1.0000 0.96100  0.77190  0.76204  Biso   1.000  C
  C97      1.0000 0.01960  0.78220  0.21000  Biso   1.000  C
  C98      1.0000 0.98040  0.28220  0.29000  Biso   1.000  C
  C99      1.0000 0.98040  0.21780  0.79000  Biso   1.000  C
  C100     1.0000 0.01960  0.71780  0.71000  Biso   1.000  C
  H65      1.0000 0.95330  0.82140  0.18540  Biso   1.000  H
  H66      1.0000 0.04670  0.32140  0.31460  Biso   1.000  H
  H67      1.0000 0.04670  0.17860  0.81460  Biso   1.000  H
  H68      1.0000 0.95330  0.67860  0.68540  Biso   1.000  H
  H69      1.0000 0.04870  0.74560  0.17530  Biso   1.000  H
  H70      1.0000 0.95130  0.24560  0.32470  Biso   1.000  H
  H71      1.0000 0.95130  0.25440  0.82470  Biso   1.000  H
  H72      1.0000 0.04870  0.75440  0.67530  Biso   1.000  H
  H73      1.0000 0.09400  0.81420  0.23620  Biso   1.000  H
  H74      1.0000 0.90600  0.31420  0.26380  Biso   1.000  H
  H75      1.0000 0.90600  0.18580  0.76380  Biso   1.000  H
  H76      1.0000 0.09400  0.68580  0.73620  Biso   1.000  H
