data_image0
_cell_length_a       8.2185
_cell_length_b       8.2998
_cell_length_c       10.6198
_cell_angle_alpha    107.942
_cell_angle_beta     97.399
_cell_angle_gamma    93.241

_symmetry_space_group_name_H-M    "P 1"
_symmetry_int_tables_number       1

loop_
  _symmetry_equiv_pos_as_xyz
  'x, y, z'

loop_
  _atom_site_label
  _atom_site_occupancy
  _atom_site_fract_x
  _atom_site_fract_y
  _atom_site_fract_z
  _atom_site_thermal_displace_type
  _atom_site_B_iso_or_equiv
  _atom_site_type_symbol
  C1       1.0000 0.86750  0.74780  0.94957  Biso   1.000  C
  C2       1.0000 0.13250  0.25220  0.05043  Biso   1.000  C
  C3       1.0000 0.79600  0.89730  0.91861  Biso   1.000  C
  C4       1.0000 0.20400  0.10270  0.08139  Biso   1.000  C
  H1       1.0000 0.88170  0.96730  0.90130  Biso   1.000  H
  H2       1.0000 0.11830  0.03270  0.09870  Biso   1.000  H
  H3       1.0000 0.74850  0.96290  0.99370  Biso   1.000  H
  H4       1.0000 0.25150  0.03710  0.00630  Biso   1.000  H
  H5       1.0000 0.71220  0.85660  0.84110  Biso   1.000  H
  H6       1.0000 0.28780  0.14340  0.15890  Biso   1.000  H
  C5       1.0000 0.72030  0.36970  0.02000  Biso   1.000  C
  C6       1.0000 0.27970  0.63030  0.98000  Biso   1.000  C
  C7       1.0000 0.55190  0.28880  0.02330  Biso   1.000  C
  C8       1.0000 0.44810  0.71120  0.97670  Biso   1.000  C
  H7       1.0000 0.54840  0.16730  0.98670  Biso   1.000  H
  H8       1.0000 0.45160  0.83270  0.01330  Biso   1.000  H
  H9       1.0000 0.53120  0.31890  0.11420  Biso   1.000  H
  H10      1.0000 0.46880  0.68110  0.88580  Biso   1.000  H
  H11      1.0000 0.46920  0.32890  0.97120  Biso   1.000  H
  H12      1.0000 0.53080  0.67110  0.02880  Biso   1.000  H
  C9       1.0000 0.06700  0.69840  0.45261  Biso   1.000  C
  C10      1.0000 0.93300  0.30160  0.54739  Biso   1.000  C
  C11      1.0000 0.19590  0.95710  0.51440  Biso   1.000  C
  C12      1.0000 0.80410  0.04290  0.48560  Biso   1.000  C
  H13      1.0000 0.24990  0.06290  0.56590  Biso   1.000  H
  H14      1.0000 0.75010  0.93710  0.43410  Biso   1.000  H
  C13      1.0000 0.16060  0.89670  0.37850  Biso   1.000  C
  C14      1.0000 0.83940  0.10330  0.62150  Biso   1.000  C
  H15      1.0000 0.18750  0.95490  0.32070  Biso   1.000  H
  H16      1.0000 0.81250  0.04510  0.67930  Biso   1.000  H
  C15      1.0000 0.14560  0.84940  0.70320  Biso   1.000  C
  C16      1.0000 0.85440  0.15060  0.29680  Biso   1.000  C
  H17      1.0000 0.04710  0.79370  0.71720  Biso   1.000  H
  H18      1.0000 0.95290  0.20630  0.28280  Biso   1.000  H
  H19      1.0000 0.15590  0.96790  0.75480  Biso   1.000  H
  H20      1.0000 0.84410  0.03210  0.24520  Biso   1.000  H
  H21      1.0000 0.23960  0.79820  0.73110  Biso   1.000  H
  H22      1.0000 0.76040  0.20180  0.26890  Biso   1.000  H
  C17      1.0000 0.99120  0.53470  0.45050  Biso   1.000  C
  C18      1.0000 0.00880  0.46530  0.54950  Biso   1.000  C
  H23      1.0000 0.92310  0.47100  0.37180  Biso   1.000  H
  H24      1.0000 0.07690  0.52900  0.62820  Biso   1.000  H
  C19      1.0000 0.51580  0.69910  0.48990  Biso   1.000  C
  C20      1.0000 0.48420  0.30090  0.51010  Biso   1.000  C
  C21      1.0000 0.49330  0.63470  0.34400  Biso   1.000  C
  C22      1.0000 0.50670  0.36530  0.65600  Biso   1.000  C
  H25      1.0000 0.40620  0.54330  0.31200  Biso   1.000  H
  H26      1.0000 0.59380  0.45670  0.68800  Biso   1.000  H
  H27      1.0000 0.59380  0.59380  0.31550  Biso   1.000  H
  H28      1.0000 0.40620  0.40620  0.68450  Biso   1.000  H
  H29      1.0000 0.46530  0.72460  0.30860  Biso   1.000  H
  H30      1.0000 0.53470  0.27540  0.69140  Biso   1.000  H
  Cu1      1.0000 0.01768  0.58491  0.13178  Biso   1.000  Cu
  Cu2      1.0000 0.98232  0.41509  0.86822  Biso   1.000  Cu
  O1       1.0000 0.90841  0.76089  0.07157  Biso   1.000  O
  O2       1.0000 0.09159  0.23911  0.92843  Biso   1.000  O
  O3       1.0000 0.88357  0.62105  0.85171  Biso   1.000  O
  O4       1.0000 0.11643  0.37895  0.14829  Biso   1.000  O
  O5       1.0000 0.77070  0.32962  0.90865  Biso   1.000  O
  O6       1.0000 0.22930  0.67038  0.09135  Biso   1.000  O
  O7       1.0000 0.79727  0.47146  0.12835  Biso   1.000  O
  O8       1.0000 0.20273  0.52854  0.87165  Biso   1.000  O
  N1       1.0000 0.13650  0.83160  0.56101  Biso   1.000  N
  N2       1.0000 0.86350  0.16840  0.43899  Biso   1.000  N
  N3       1.0000 0.07870  0.73550  0.33989  Biso   1.000  N
  N4       1.0000 0.92130  0.26450  0.66011  Biso   1.000  N
  N5       1.0000 0.53230  0.75090  0.60420  Biso   1.000  N
  N6       1.0000 0.46770  0.24910  0.39580  Biso   1.000  N
