data_image0
_cell_length_a       6.384
_cell_length_b       9.062
_cell_length_c       13.688
_cell_angle_alpha    90
_cell_angle_beta     98.32
_cell_angle_gamma    90

_symmetry_space_group_name_H-M    "P 1"
_symmetry_int_tables_number       1

loop_
  _symmetry_equiv_pos_as_xyz
  'x, y, z'

loop_
  _atom_site_label
  _atom_site_occupancy
  _atom_site_fract_x
  _atom_site_fract_y
  _atom_site_fract_z
  _atom_site_thermal_displace_type
  _atom_site_B_iso_or_equiv
  _atom_site_type_symbol
  Cu1      1.0000 0.75190  0.39690  0.35580  Biso   1.000  Cu
  Cu2      1.0000 0.24810  0.89690  0.14420  Biso   1.000  Cu
  Cu3      1.0000 0.24810  0.60310  0.64420  Biso   1.000  Cu
  Cu4      1.0000 0.75190  0.10310  0.85580  Biso   1.000  Cu
  O1       1.0000 0.50610  0.19600  0.33420  Biso   1.000  O
  O2       1.0000 0.49390  0.69600  0.16580  Biso   1.000  O
  O3       1.0000 0.49390  0.80400  0.66580  Biso   1.000  O
  O4       1.0000 0.50610  0.30400  0.83420  Biso   1.000  O
  O5       1.0000 0.01430  0.28140  0.37090  Biso   1.000  O
  O6       1.0000 0.98570  0.78140  0.12910  Biso   1.000  O
  O7       1.0000 0.98570  0.71860  0.62910  Biso   1.000  O
  O8       1.0000 0.01430  0.21860  0.87090  Biso   1.000  O
  O9       1.0000 0.28420  0.23470  0.48760  Biso   1.000  O
  O10      1.0000 0.71580  0.73470  0.01240  Biso   1.000  O
  O11      1.0000 0.71580  0.76530  0.51240  Biso   1.000  O
  O12      1.0000 0.28420  0.26530  0.98760  Biso   1.000  O
  O13      1.0000 0.78880  0.38420  0.50180  Biso   1.000  O
  O14      1.0000 0.21120  0.88420  0.99820  Biso   1.000  O
  O15      1.0000 0.21120  0.61580  0.49820  Biso   1.000  O
  O16      1.0000 0.78880  0.11580  0.00180  Biso   1.000  O
  O17      1.0000 0.02620  0.30290  0.62590  Biso   1.000  O
  O18      1.0000 0.97380  0.80290  0.87410  Biso   1.000  O
  O19      1.0000 0.97380  0.69710  0.37410  Biso   1.000  O
  O20      1.0000 0.02620  0.19710  0.12590  Biso   1.000  O
  N1       1.0000 0.50770  0.53260  0.34760  Biso   1.000  N
  N2       1.0000 0.49230  0.03260  0.15240  Biso   1.000  N
  N3       1.0000 0.49230  0.46740  0.65240  Biso   1.000  N
  N4       1.0000 0.50770  0.96740  0.84760  Biso   1.000  N
  N5       1.0000 0.79110  0.44550  0.21730  Biso   1.000  N
  N6       1.0000 0.20890  0.94550  0.28270  Biso   1.000  N
  N7       1.0000 0.20890  0.55450  0.78270  Biso   1.000  N
  N8       1.0000 0.79110  0.05450  0.71730  Biso   1.000  N
  C1       1.0000 0.34230  0.51750  0.26000  Biso   1.000  C
  C2       1.0000 0.65770  0.01750  0.24000  Biso   1.000  C
  C3       1.0000 0.65770  0.48250  0.74000  Biso   1.000  C
  C4       1.0000 0.34230  0.98250  0.76000  Biso   1.000  C
  C5       1.0000 0.57450  0.04480  0.33630  Biso   1.000  C
  C6       1.0000 0.42550  0.54480  0.16370  Biso   1.000  C
  C7       1.0000 0.42550  0.95520  0.66370  Biso   1.000  C
  C8       1.0000 0.57450  0.45520  0.83630  Biso   1.000  C
  C9       1.0000 0.59860  0.44170  0.14230  Biso   1.000  C
  C10      1.0000 0.40140  0.94170  0.35770  Biso   1.000  C
  C11      1.0000 0.40140  0.55830  0.85770  Biso   1.000  C
  C12      1.0000 0.59860  0.05830  0.64230  Biso   1.000  C
  C13      1.0000 0.10210  0.27560  0.45970  Biso   1.000  C
  C14      1.0000 0.89790  0.77560  0.04030  Biso   1.000  C
  C15      1.0000 0.89790  0.72440  0.54030  Biso   1.000  C
  C16      1.0000 0.10210  0.22440  0.95970  Biso   1.000  C
  C17      1.0000 0.96430  0.32490  0.53920  Biso   1.000  C
  C18      1.0000 0.03570  0.82490  0.96080  Biso   1.000  C
  C19      1.0000 0.03570  0.67510  0.46080  Biso   1.000  C
  C20      1.0000 0.96430  0.17510  0.03920  Biso   1.000  C
  H1       1.0000 0.45100  0.20300  0.39000  Biso   1.000  H
  H2       1.0000 0.54900  0.70300  0.11000  Biso   1.000  H
  H3       1.0000 0.54900  0.79700  0.61000  Biso   1.000  H
  H4       1.0000 0.45100  0.29700  0.89000  Biso   1.000  H
  H5       1.0000 0.44400  0.52700  0.39600  Biso   1.000  H
  H6       1.0000 0.55600  0.02700  0.10400  Biso   1.000  H
  H7       1.0000 0.55600  0.47300  0.60400  Biso   1.000  H
  H8       1.0000 0.44400  0.97300  0.89600  Biso   1.000  H
  H9       1.0000 0.55900  0.62300  0.35700  Biso   1.000  H
  H10      1.0000 0.44100  0.12300  0.14300  Biso   1.000  H
  H11      1.0000 0.44100  0.37700  0.64300  Biso   1.000  H
  H12      1.0000 0.55900  0.87700  0.85700  Biso   1.000  H
  H13      1.0000 0.83700  0.53900  0.21300  Biso   1.000  H
  H14      1.0000 0.16300  0.03900  0.28700  Biso   1.000  H
  H15      1.0000 0.16300  0.46100  0.78700  Biso   1.000  H
  H16      1.0000 0.83700  0.96100  0.71300  Biso   1.000  H
  H17      1.0000 0.88000  0.37700  0.20400  Biso   1.000  H
  H18      1.0000 0.12000  0.87700  0.29600  Biso   1.000  H
  H19      1.0000 0.12000  0.62300  0.79600  Biso   1.000  H
  H20      1.0000 0.88000  0.12300  0.70400  Biso   1.000  H
  H21      1.0000 0.30700  0.42100  0.26300  Biso   1.000  H
  H22      1.0000 0.69300  0.92100  0.23700  Biso   1.000  H
  H23      1.0000 0.69300  0.57900  0.73700  Biso   1.000  H
  H24      1.0000 0.30700  0.07900  0.76300  Biso   1.000  H
  H25      1.0000 0.24900  0.60300  0.27000  Biso   1.000  H
  H26      1.0000 0.75100  0.10300  0.23000  Biso   1.000  H
  H27      1.0000 0.75100  0.39700  0.73000  Biso   1.000  H
  H28      1.0000 0.24900  0.89700  0.77000  Biso   1.000  H
  H29      1.0000 0.68600  0.03600  0.39300  Biso   1.000  H
  H30      1.0000 0.31400  0.53600  0.10700  Biso   1.000  H
  H31      1.0000 0.31400  0.96400  0.60700  Biso   1.000  H
  H32      1.0000 0.68600  0.46400  0.89300  Biso   1.000  H
  H33      1.0000 0.52900  0.33400  0.13400  Biso   1.000  H
  H34      1.0000 0.47100  0.83400  0.36600  Biso   1.000  H
  H35      1.0000 0.47100  0.66600  0.86600  Biso   1.000  H
  H36      1.0000 0.52900  0.16600  0.63400  Biso   1.000  H
  H37      1.0000 0.61600  0.47300  0.08200  Biso   1.000  H
  H38      1.0000 0.38400  0.97300  0.41800  Biso   1.000  H
  H39      1.0000 0.38400  0.52700  0.91800  Biso   1.000  H
  H40      1.0000 0.61600  0.02700  0.58200  Biso   1.000  H
