data_image0
_cell_length_a       12.399
_cell_length_b       9.189
_cell_length_c       21.959
_cell_angle_alpha    90
_cell_angle_beta     90
_cell_angle_gamma    90

_symmetry_space_group_name_H-M    "P 1"
_symmetry_int_tables_number       1

loop_
  _symmetry_equiv_pos_as_xyz
  'x, y, z'

loop_
  _atom_site_label
  _atom_site_occupancy
  _atom_site_fract_x
  _atom_site_fract_y
  _atom_site_fract_z
  _atom_site_thermal_displace_type
  _atom_site_B_iso_or_equiv
  _atom_site_type_symbol
  Cu1      1.0000 0.00000  0.00000  0.00000  Biso   1.000  Cu
  Cu2      1.0000 0.50000  0.50000  0.00000  Biso   1.000  Cu
  Cu3      1.0000 0.00000  0.50000  0.50000  Biso   1.000  Cu
  Cu4      1.0000 0.50000  0.00000  0.50000  Biso   1.000  Cu
  S1       1.0000 0.04507  0.70690  0.77244  Biso   1.000  S
  S2       1.0000 0.54507  0.79310  0.22756  Biso   1.000  S
  S3       1.0000 0.95493  0.20690  0.72756  Biso   1.000  S
  S4       1.0000 0.45493  0.29310  0.27244  Biso   1.000  S
  S5       1.0000 0.95493  0.29310  0.22756  Biso   1.000  S
  S6       1.0000 0.45493  0.20690  0.77244  Biso   1.000  S
  S7       1.0000 0.04507  0.79310  0.27244  Biso   1.000  S
  S8       1.0000 0.54507  0.70690  0.72756  Biso   1.000  S
  O1       1.0000 0.05802  0.93240  0.92272  Biso   1.000  O
  O2       1.0000 0.55802  0.56760  0.07728  Biso   1.000  O
  O3       1.0000 0.94198  0.43240  0.57728  Biso   1.000  O
  O4       1.0000 0.44198  0.06760  0.42272  Biso   1.000  O
  O5       1.0000 0.94198  0.06760  0.07728  Biso   1.000  O
  O6       1.0000 0.44198  0.43240  0.92272  Biso   1.000  O
  O7       1.0000 0.05802  0.56760  0.42272  Biso   1.000  O
  O8       1.0000 0.55802  0.93240  0.57728  Biso   1.000  O
  O9       1.0000 0.91680  0.81990  0.87980  Biso   1.000  O
  O10      1.0000 0.41680  0.68010  0.12020  Biso   1.000  O
  O11      1.0000 0.08320  0.31990  0.62020  Biso   1.000  O
  O12      1.0000 0.58320  0.18010  0.37980  Biso   1.000  O
  O13      1.0000 0.08320  0.18010  0.12020  Biso   1.000  O
  O14      1.0000 0.58320  0.31990  0.87980  Biso   1.000  O
  O15      1.0000 0.91680  0.68010  0.37980  Biso   1.000  O
  O16      1.0000 0.41680  0.81990  0.62020  Biso   1.000  O
  O17      1.0000 0.31564  0.58030  0.02126  Biso   1.000  O
  O18      1.0000 0.81564  0.91970  0.97874  Biso   1.000  O
  O19      1.0000 0.68436  0.08030  0.47874  Biso   1.000  O
  O20      1.0000 0.18436  0.41970  0.52126  Biso   1.000  O
  O21      1.0000 0.68436  0.41970  0.97874  Biso   1.000  O
  O22      1.0000 0.18436  0.08030  0.02126  Biso   1.000  O
  O23      1.0000 0.31564  0.91970  0.52126  Biso   1.000  O
  O24      1.0000 0.81564  0.58030  0.47874  Biso   1.000  O
  H1       1.0000 0.33190  0.61270  0.05580  Biso   1.000  H
  H2       1.0000 0.83190  0.88730  0.94420  Biso   1.000  H
  H3       1.0000 0.66810  0.11270  0.44420  Biso   1.000  H
  H4       1.0000 0.16810  0.38730  0.55580  Biso   1.000  H
  H5       1.0000 0.66810  0.38730  0.94420  Biso   1.000  H
  H6       1.0000 0.16810  0.11270  0.05580  Biso   1.000  H
  H7       1.0000 0.33190  0.88730  0.55580  Biso   1.000  H
  H8       1.0000 0.83190  0.61270  0.44420  Biso   1.000  H
  N1       1.0000 0.01953  0.79930  0.03650  Biso   1.000  N
  N2       1.0000 0.51953  0.70070  0.96350  Biso   1.000  N
  N3       1.0000 0.98047  0.29930  0.46350  Biso   1.000  N
  N4       1.0000 0.48047  0.20070  0.53650  Biso   1.000  N
  N5       1.0000 0.98047  0.20070  0.96350  Biso   1.000  N
  N6       1.0000 0.48047  0.29930  0.03650  Biso   1.000  N
  N7       1.0000 0.01953  0.70070  0.53650  Biso   1.000  N
  N8       1.0000 0.51953  0.79930  0.46350  Biso   1.000  N
  C1       1.0000 0.10190  0.71450  0.01917  Biso   1.000  C
  C2       1.0000 0.60190  0.78550  0.98083  Biso   1.000  C
  C3       1.0000 0.89810  0.21450  0.48083  Biso   1.000  C
  C4       1.0000 0.39810  0.28550  0.51917  Biso   1.000  C
  C5       1.0000 0.89810  0.28550  0.98083  Biso   1.000  C
  C6       1.0000 0.39810  0.21450  0.01917  Biso   1.000  C
  C7       1.0000 0.10190  0.78550  0.51917  Biso   1.000  C
  C8       1.0000 0.60190  0.71450  0.48083  Biso   1.000  C
  H9       1.0000 0.14660  0.74640  0.98670  Biso   1.000  H
  H10      1.0000 0.64660  0.75360  0.01330  Biso   1.000  H
  H11      1.0000 0.85340  0.24640  0.51330  Biso   1.000  H
  H12      1.0000 0.35340  0.25360  0.48670  Biso   1.000  H
  H13      1.0000 0.85340  0.25360  0.01330  Biso   1.000  H
  H14      1.0000 0.35340  0.24640  0.98670  Biso   1.000  H
  H15      1.0000 0.14660  0.75360  0.48670  Biso   1.000  H
  H16      1.0000 0.64660  0.74640  0.51330  Biso   1.000  H
  C9       1.0000 0.12520  0.58140  0.04646  Biso   1.000  C
  C10      1.0000 0.62520  0.91860  0.95354  Biso   1.000  C
  C11      1.0000 0.87480  0.08140  0.45354  Biso   1.000  C
  C12      1.0000 0.37480  0.41860  0.54646  Biso   1.000  C
  C13      1.0000 0.87480  0.41860  0.95354  Biso   1.000  C
  C14      1.0000 0.37480  0.08140  0.04646  Biso   1.000  C
  C15      1.0000 0.12520  0.91860  0.54646  Biso   1.000  C
  C16      1.0000 0.62520  0.58140  0.45354  Biso   1.000  C
  C17      1.0000 0.05790  0.53450  0.09272  Biso   1.000  C
  C18      1.0000 0.55790  0.96550  0.90728  Biso   1.000  C
  C19      1.0000 0.94210  0.03450  0.40728  Biso   1.000  C
  C20      1.0000 0.44210  0.46550  0.59272  Biso   1.000  C
  C21      1.0000 0.94210  0.46550  0.90728  Biso   1.000  C
  C22      1.0000 0.44210  0.03450  0.09272  Biso   1.000  C
  C23      1.0000 0.05790  0.96550  0.59272  Biso   1.000  C
  C24      1.0000 0.55790  0.53450  0.40728  Biso   1.000  C
  H17      1.0000 0.07100  0.44430  0.11250  Biso   1.000  H
  H18      1.0000 0.57100  0.05570  0.88750  Biso   1.000  H
  H19      1.0000 0.92900  0.94430  0.38750  Biso   1.000  H
  H20      1.0000 0.42900  0.55570  0.61250  Biso   1.000  H
  H21      1.0000 0.92900  0.55570  0.88750  Biso   1.000  H
  H22      1.0000 0.42900  0.94430  0.11250  Biso   1.000  H
  H23      1.0000 0.07100  0.05570  0.61250  Biso   1.000  H
  H24      1.0000 0.57100  0.44430  0.38750  Biso   1.000  H
  C25      1.0000 0.97100  0.62000  0.11005  Biso   1.000  C
  C26      1.0000 0.47100  0.88000  0.88995  Biso   1.000  C
  C27      1.0000 0.02900  0.12000  0.38995  Biso   1.000  C
  C28      1.0000 0.52900  0.38000  0.61005  Biso   1.000  C
  C29      1.0000 0.02900  0.38000  0.88995  Biso   1.000  C
  C30      1.0000 0.52900  0.12000  0.11005  Biso   1.000  C
  C31      1.0000 0.97100  0.88000  0.61005  Biso   1.000  C
  C32      1.0000 0.47100  0.62000  0.38995  Biso   1.000  C
  H25      1.0000 0.92310  0.58820  0.14110  Biso   1.000  H
  H26      1.0000 0.42310  0.91180  0.85890  Biso   1.000  H
  H27      1.0000 0.07690  0.08820  0.35890  Biso   1.000  H
  H28      1.0000 0.57690  0.41180  0.64110  Biso   1.000  H
  H29      1.0000 0.07690  0.41180  0.85890  Biso   1.000  H
  H30      1.0000 0.57690  0.08820  0.14110  Biso   1.000  H
  H31      1.0000 0.92310  0.91180  0.64110  Biso   1.000  H
  H32      1.0000 0.42310  0.58820  0.35890  Biso   1.000  H
  C33      1.0000 0.95440  0.75130  0.08111  Biso   1.000  C
  C34      1.0000 0.45440  0.74870  0.91889  Biso   1.000  C
  C35      1.0000 0.04560  0.25130  0.41889  Biso   1.000  C
  C36      1.0000 0.54560  0.24870  0.58111  Biso   1.000  C
  C37      1.0000 0.04560  0.24870  0.91889  Biso   1.000  C
  C38      1.0000 0.54560  0.25130  0.08111  Biso   1.000  C
  C39      1.0000 0.95440  0.74870  0.58111  Biso   1.000  C
  C40      1.0000 0.45440  0.75130  0.41889  Biso   1.000  C
  H33      1.0000 0.89530  0.81020  0.09340  Biso   1.000  H
  H34      1.0000 0.39530  0.68980  0.90660  Biso   1.000  H
  H35      1.0000 0.10470  0.31020  0.40660  Biso   1.000  H
  H36      1.0000 0.60470  0.18980  0.59340  Biso   1.000  H
  H37      1.0000 0.10470  0.18980  0.90660  Biso   1.000  H
  H38      1.0000 0.60470  0.31020  0.09340  Biso   1.000  H
  H39      1.0000 0.89530  0.68980  0.59340  Biso   1.000  H
  H40      1.0000 0.39530  0.81020  0.40660  Biso   1.000  H
  C41      1.0000 0.22140  0.49460  0.02577  Biso   1.000  C
  C42      1.0000 0.72140  0.00540  0.97423  Biso   1.000  C
  C43      1.0000 0.77860  0.99460  0.47423  Biso   1.000  C
  C44      1.0000 0.27860  0.50540  0.52577  Biso   1.000  C
  C45      1.0000 0.77860  0.50540  0.97423  Biso   1.000  C
  C46      1.0000 0.27860  0.99460  0.02577  Biso   1.000  C
  C47      1.0000 0.22140  0.00540  0.52577  Biso   1.000  C
  C48      1.0000 0.72140  0.49460  0.47423  Biso   1.000  C
  H41      1.0000 0.23440  0.41390  0.05480  Biso   1.000  H
  H42      1.0000 0.73440  0.08610  0.94520  Biso   1.000  H
  H43      1.0000 0.76560  0.91390  0.44520  Biso   1.000  H
  H44      1.0000 0.26560  0.58610  0.55480  Biso   1.000  H
  H45      1.0000 0.76560  0.58610  0.94520  Biso   1.000  H
  H46      1.0000 0.26560  0.91390  0.05480  Biso   1.000  H
  H47      1.0000 0.23440  0.08610  0.55480  Biso   1.000  H
  H48      1.0000 0.73440  0.41390  0.44520  Biso   1.000  H
  H49      1.0000 0.20550  0.45130  0.98550  Biso   1.000  H
  H50      1.0000 0.70550  0.04870  0.01450  Biso   1.000  H
  H51      1.0000 0.79450  0.95130  0.51450  Biso   1.000  H
  H52      1.0000 0.29450  0.54870  0.48550  Biso   1.000  H
  H53      1.0000 0.79450  0.54870  0.01450  Biso   1.000  H
  H54      1.0000 0.29450  0.95130  0.98550  Biso   1.000  H
  H55      1.0000 0.20550  0.04870  0.48550  Biso   1.000  H
  H56      1.0000 0.70550  0.45130  0.51450  Biso   1.000  H
  C49      1.0000 0.01280  0.85790  0.88126  Biso   1.000  C
  C50      1.0000 0.51280  0.64210  0.11874  Biso   1.000  C
  C51      1.0000 0.98720  0.35790  0.61874  Biso   1.000  C
  C52      1.0000 0.48720  0.14210  0.38126  Biso   1.000  C
  C53      1.0000 0.98720  0.14210  0.11874  Biso   1.000  C
  C54      1.0000 0.48720  0.35790  0.88126  Biso   1.000  C
  C55      1.0000 0.01280  0.64210  0.38126  Biso   1.000  C
  C56      1.0000 0.51280  0.85790  0.61874  Biso   1.000  C
  C57      1.0000 0.08600  0.81520  0.83146  Biso   1.000  C
  C58      1.0000 0.58600  0.68480  0.16854  Biso   1.000  C
  C59      1.0000 0.91400  0.31520  0.66854  Biso   1.000  C
  C60      1.0000 0.41400  0.18480  0.33146  Biso   1.000  C
  C61      1.0000 0.91400  0.18480  0.16854  Biso   1.000  C
  C62      1.0000 0.41400  0.31520  0.83146  Biso   1.000  C
  C63      1.0000 0.08600  0.68480  0.33146  Biso   1.000  C
  C64      1.0000 0.58600  0.81520  0.66854  Biso   1.000  C
  C65      1.0000 0.19090  0.85250  0.82403  Biso   1.000  C
  C66      1.0000 0.69090  0.64750  0.17597  Biso   1.000  C
  C67      1.0000 0.80910  0.35250  0.67597  Biso   1.000  C
  C68      1.0000 0.30910  0.14750  0.32403  Biso   1.000  C
  C69      1.0000 0.80910  0.14750  0.17597  Biso   1.000  C
  C70      1.0000 0.30910  0.35250  0.82403  Biso   1.000  C
  C71      1.0000 0.19090  0.64750  0.32403  Biso   1.000  C
  C72      1.0000 0.69090  0.85250  0.67597  Biso   1.000  C
  H57      1.0000 0.22960  0.91000  0.85260  Biso   1.000  H
  H58      1.0000 0.72960  0.59000  0.14740  Biso   1.000  H
  H59      1.0000 0.77040  0.41000  0.64740  Biso   1.000  H
  H60      1.0000 0.27040  0.09000  0.35260  Biso   1.000  H
  H61      1.0000 0.77040  0.09000  0.14740  Biso   1.000  H
  H62      1.0000 0.27040  0.41000  0.85260  Biso   1.000  H
  H63      1.0000 0.22960  0.59000  0.35260  Biso   1.000  H
  H64      1.0000 0.72960  0.91000  0.64740  Biso   1.000  H
  C73      1.0000 0.23840  0.79520  0.77123  Biso   1.000  C
  C74      1.0000 0.73840  0.70480  0.22877  Biso   1.000  C
  C75      1.0000 0.76160  0.29520  0.72877  Biso   1.000  C
  C76      1.0000 0.26160  0.20480  0.27123  Biso   1.000  C
  C77      1.0000 0.76160  0.20480  0.22877  Biso   1.000  C
  C78      1.0000 0.26160  0.29520  0.77123  Biso   1.000  C
  C79      1.0000 0.23840  0.70480  0.27123  Biso   1.000  C
  C80      1.0000 0.73840  0.79520  0.72877  Biso   1.000  C
  H65      1.0000 0.31060  0.81460  0.75940  Biso   1.000  H
  H66      1.0000 0.81060  0.68540  0.24060  Biso   1.000  H
  H67      1.0000 0.68940  0.31460  0.74060  Biso   1.000  H
  H68      1.0000 0.18940  0.18540  0.25940  Biso   1.000  H
  H69      1.0000 0.68940  0.18540  0.24060  Biso   1.000  H
  H70      1.0000 0.18940  0.31460  0.75940  Biso   1.000  H
  H71      1.0000 0.31060  0.68540  0.25940  Biso   1.000  H
  H72      1.0000 0.81060  0.81460  0.74060  Biso   1.000  H
  C81      1.0000 0.17010  0.71150  0.73860  Biso   1.000  C
  C82      1.0000 0.67010  0.78850  0.26140  Biso   1.000  C
  C83      1.0000 0.82990  0.21150  0.76140  Biso   1.000  C
  C84      1.0000 0.32990  0.28850  0.23860  Biso   1.000  C
  C85      1.0000 0.82990  0.28850  0.26140  Biso   1.000  C
  C86      1.0000 0.32990  0.21150  0.73860  Biso   1.000  C
  C87      1.0000 0.17010  0.78850  0.23860  Biso   1.000  C
  C88      1.0000 0.67010  0.71150  0.76140  Biso   1.000  C
  C89      1.0000 0.19190  0.63320  0.68032  Biso   1.000  C
  C90      1.0000 0.69190  0.86680  0.31968  Biso   1.000  C
  C91      1.0000 0.80810  0.13320  0.81968  Biso   1.000  C
  C92      1.0000 0.30810  0.36680  0.18032  Biso   1.000  C
  C93      1.0000 0.80810  0.36680  0.31968  Biso   1.000  C
  C94      1.0000 0.30810  0.13320  0.68032  Biso   1.000  C
  C95      1.0000 0.19190  0.86680  0.18032  Biso   1.000  C
  C96      1.0000 0.69190  0.63320  0.81968  Biso   1.000  C
  H73      1.0000 0.25970  0.66870  0.66280  Biso   1.000  H
  H74      1.0000 0.75970  0.83130  0.33720  Biso   1.000  H
  H75      1.0000 0.74030  0.16870  0.83720  Biso   1.000  H
  H76      1.0000 0.24030  0.33130  0.16280  Biso   1.000  H
  H77      1.0000 0.74030  0.33130  0.33720  Biso   1.000  H
  H78      1.0000 0.24030  0.16870  0.66280  Biso   1.000  H
  H79      1.0000 0.25970  0.83130  0.16280  Biso   1.000  H
  H80      1.0000 0.75970  0.66870  0.83720  Biso   1.000  H
  H81      1.0000 0.13280  0.65130  0.65170  Biso   1.000  H
  H82      1.0000 0.63280  0.84870  0.34830  Biso   1.000  H
  H83      1.0000 0.86720  0.15130  0.84830  Biso   1.000  H
  H84      1.0000 0.36720  0.34870  0.15170  Biso   1.000  H
  H85      1.0000 0.86720  0.34870  0.34830  Biso   1.000  H
  H86      1.0000 0.36720  0.15130  0.65170  Biso   1.000  H
  H87      1.0000 0.13280  0.84870  0.15170  Biso   1.000  H
  H88      1.0000 0.63280  0.65130  0.84830  Biso   1.000  H
  H89      1.0000 0.19770  0.52850  0.68810  Biso   1.000  H
  H90      1.0000 0.69770  0.97150  0.31190  Biso   1.000  H
  H91      1.0000 0.80230  0.02850  0.81190  Biso   1.000  H
  H92      1.0000 0.30230  0.47150  0.18810  Biso   1.000  H
  H93      1.0000 0.80230  0.47150  0.31190  Biso   1.000  H
  H94      1.0000 0.30230  0.02850  0.68810  Biso   1.000  H
  H95      1.0000 0.19770  0.97150  0.18810  Biso   1.000  H
  H96      1.0000 0.69770  0.52850  0.81190  Biso   1.000  H
