data_image0
_cell_length_a       12.796
_cell_length_b       9.371
_cell_length_c       18.987
_cell_angle_alpha    90
_cell_angle_beta     90
_cell_angle_gamma    90

_symmetry_space_group_name_H-M    "P 1"
_symmetry_int_tables_number       1

loop_
  _symmetry_equiv_pos_as_xyz
  'x, y, z'

loop_
  _atom_site_label
  _atom_site_occupancy
  _atom_site_fract_x
  _atom_site_fract_y
  _atom_site_fract_z
  _atom_site_thermal_displace_type
  _atom_site_B_iso_or_equiv
  _atom_site_type_symbol
  Cu1      1.0000 0.00000  0.00000  0.00000  Biso   1.000  Cu
  Cu2      1.0000 0.50000  0.00000  0.50000  Biso   1.000  Cu
  Cu3      1.0000 0.50000  0.50000  0.00000  Biso   1.000  Cu
  Cu4      1.0000 0.00000  0.50000  0.50000  Biso   1.000  Cu
  S1       1.0000 0.19441  0.85353  0.79701  Biso   1.000  S
  S2       1.0000 0.30559  0.14647  0.29701  Biso   1.000  S
  S3       1.0000 0.69441  0.64647  0.20299  Biso   1.000  S
  S4       1.0000 0.80559  0.35353  0.70299  Biso   1.000  S
  S5       1.0000 0.80559  0.14647  0.20299  Biso   1.000  S
  S6       1.0000 0.69441  0.85353  0.70299  Biso   1.000  S
  S7       1.0000 0.30559  0.35353  0.79701  Biso   1.000  S
  S8       1.0000 0.19441  0.64647  0.29701  Biso   1.000  S
  C1       1.0000 0.04690  0.68870  0.76210  Biso   1.000  C
  C2       1.0000 0.45310  0.31130  0.26210  Biso   1.000  C
  C3       1.0000 0.54690  0.81130  0.23790  Biso   1.000  C
  C4       1.0000 0.95310  0.18870  0.73790  Biso   1.000  C
  C5       1.0000 0.95310  0.31130  0.23790  Biso   1.000  C
  C6       1.0000 0.54690  0.68870  0.73790  Biso   1.000  C
  C7       1.0000 0.45310  0.18870  0.76210  Biso   1.000  C
  C8       1.0000 0.04690  0.81130  0.26210  Biso   1.000  C
  H1       1.0000 0.98088  0.64231  0.76053  Biso   1.000  H
  H2       1.0000 0.51912  0.35769  0.26053  Biso   1.000  H
  H3       1.0000 0.48088  0.85769  0.23947  Biso   1.000  H
  H4       1.0000 0.01912  0.14231  0.73947  Biso   1.000  H
  H5       1.0000 0.01912  0.35769  0.23947  Biso   1.000  H
  H6       1.0000 0.48088  0.64231  0.73947  Biso   1.000  H
  H7       1.0000 0.51912  0.14231  0.76053  Biso   1.000  H
  H8       1.0000 0.98088  0.85769  0.26053  Biso   1.000  H
  C9       1.0000 0.12960  0.65640  0.71620  Biso   1.000  C
  C10      1.0000 0.37040  0.34360  0.21620  Biso   1.000  C
  C11      1.0000 0.62960  0.84360  0.28380  Biso   1.000  C
  C12      1.0000 0.87040  0.15640  0.78380  Biso   1.000  C
  C13      1.0000 0.87040  0.34360  0.28380  Biso   1.000  C
  C14      1.0000 0.62960  0.65640  0.78380  Biso   1.000  C
  C15      1.0000 0.37040  0.15640  0.71620  Biso   1.000  C
  C16      1.0000 0.12960  0.84360  0.21620  Biso   1.000  C
  H9       1.0000 0.12622  0.58564  0.68041  Biso   1.000  H
  H10      1.0000 0.37378  0.41436  0.18041  Biso   1.000  H
  H11      1.0000 0.62622  0.91436  0.31959  Biso   1.000  H
  H12      1.0000 0.87378  0.08564  0.81959  Biso   1.000  H
  H13      1.0000 0.87378  0.41436  0.31959  Biso   1.000  H
  H14      1.0000 0.62622  0.58564  0.81959  Biso   1.000  H
  H15      1.0000 0.37378  0.08564  0.68041  Biso   1.000  H
  H16      1.0000 0.12622  0.91436  0.18041  Biso   1.000  H
  C17      1.0000 0.21330  0.73660  0.72870  Biso   1.000  C
  C18      1.0000 0.28670  0.26340  0.22870  Biso   1.000  C
  C19      1.0000 0.71330  0.76340  0.27130  Biso   1.000  C
  C20      1.0000 0.78670  0.23660  0.77130  Biso   1.000  C
  C21      1.0000 0.78670  0.26340  0.27130  Biso   1.000  C
  C22      1.0000 0.71330  0.73660  0.77130  Biso   1.000  C
  C23      1.0000 0.28670  0.23660  0.72870  Biso   1.000  C
  C24      1.0000 0.21330  0.76340  0.22870  Biso   1.000  C
  H17      1.0000 0.27653  0.72986  0.70275  Biso   1.000  H
  H18      1.0000 0.22347  0.27014  0.20275  Biso   1.000  H
  H19      1.0000 0.77653  0.77014  0.29725  Biso   1.000  H
  H20      1.0000 0.72347  0.22986  0.79725  Biso   1.000  H
  H21      1.0000 0.72347  0.27014  0.29725  Biso   1.000  H
  H22      1.0000 0.77653  0.72986  0.79725  Biso   1.000  H
  H23      1.0000 0.22347  0.22986  0.70275  Biso   1.000  H
  H24      1.0000 0.27653  0.77014  0.20275  Biso   1.000  H
  O1       1.0000 0.05030  0.93790  0.90802  Biso   1.000  O
  O2       1.0000 0.44970  0.06210  0.40802  Biso   1.000  O
  O3       1.0000 0.55030  0.56210  0.09198  Biso   1.000  O
  O4       1.0000 0.94970  0.43790  0.59198  Biso   1.000  O
  O5       1.0000 0.94970  0.06210  0.09198  Biso   1.000  O
  O6       1.0000 0.55030  0.93790  0.59198  Biso   1.000  O
  O7       1.0000 0.44970  0.43790  0.90802  Biso   1.000  O
  O8       1.0000 0.05030  0.56210  0.40802  Biso   1.000  O
  O9       1.0000 0.91338  0.80890  0.87207  Biso   1.000  O
  O10      1.0000 0.58662  0.19110  0.37207  Biso   1.000  O
  O11      1.0000 0.41338  0.69110  0.12793  Biso   1.000  O
  O12      1.0000 0.08662  0.30890  0.62793  Biso   1.000  O
  O13      1.0000 0.08662  0.19110  0.12793  Biso   1.000  O
  O14      1.0000 0.41338  0.80890  0.62793  Biso   1.000  O
  O15      1.0000 0.58662  0.30890  0.87207  Biso   1.000  O
  O16      1.0000 0.91338  0.69110  0.37207  Biso   1.000  O
  O17      1.0000 0.31028  0.58670  0.01791  Biso   1.000  O
  O18      1.0000 0.18972  0.41330  0.51791  Biso   1.000  O
  O19      1.0000 0.81028  0.91330  0.98209  Biso   1.000  O
  O20      1.0000 0.68972  0.08670  0.48209  Biso   1.000  O
  O21      1.0000 0.68972  0.41330  0.98209  Biso   1.000  O
  O22      1.0000 0.81028  0.58670  0.48209  Biso   1.000  O
  O23      1.0000 0.18972  0.08670  0.01791  Biso   1.000  O
  O24      1.0000 0.31028  0.91330  0.51791  Biso   1.000  O
  H25      1.0000 0.32970  0.62246  0.05510  Biso   1.000  H
  H26      1.0000 0.17030  0.37754  0.55510  Biso   1.000  H
  H27      1.0000 0.82970  0.87754  0.94490  Biso   1.000  H
  H28      1.0000 0.67030  0.12246  0.44490  Biso   1.000  H
  H29      1.0000 0.67030  0.37754  0.94490  Biso   1.000  H
  H30      1.0000 0.82970  0.62246  0.44490  Biso   1.000  H
  H31      1.0000 0.17030  0.12246  0.05510  Biso   1.000  H
  H32      1.0000 0.32970  0.87754  0.55510  Biso   1.000  H
  N1       1.0000 0.02201  0.80180  0.03880  Biso   1.000  N
  N2       1.0000 0.47799  0.19820  0.53880  Biso   1.000  N
  N3       1.0000 0.52201  0.69820  0.96120  Biso   1.000  N
  N4       1.0000 0.97799  0.30180  0.46120  Biso   1.000  N
  N5       1.0000 0.97799  0.19820  0.96120  Biso   1.000  N
  N6       1.0000 0.52201  0.80180  0.46120  Biso   1.000  N
  N7       1.0000 0.47799  0.30180  0.03880  Biso   1.000  N
  N8       1.0000 0.02201  0.69820  0.53880  Biso   1.000  N
  C25      1.0000 0.00500  0.85070  0.86713  Biso   1.000  C
  C26      1.0000 0.49500  0.14930  0.36713  Biso   1.000  C
  C27      1.0000 0.50500  0.64930  0.13287  Biso   1.000  C
  C28      1.0000 0.99500  0.35070  0.63287  Biso   1.000  C
  C29      1.0000 0.99500  0.14930  0.13287  Biso   1.000  C
  C30      1.0000 0.50500  0.85070  0.63287  Biso   1.000  C
  C31      1.0000 0.49500  0.35070  0.86713  Biso   1.000  C
  C32      1.0000 0.00500  0.64930  0.36713  Biso   1.000  C
  C33      1.0000 0.07110  0.79400  0.80951  Biso   1.000  C
  C34      1.0000 0.42890  0.20600  0.30951  Biso   1.000  C
  C35      1.0000 0.57110  0.70600  0.19049  Biso   1.000  C
  C36      1.0000 0.92890  0.29400  0.69049  Biso   1.000  C
  C37      1.0000 0.92890  0.20600  0.19049  Biso   1.000  C
  C38      1.0000 0.57110  0.79400  0.69049  Biso   1.000  C
  C39      1.0000 0.42890  0.29400  0.80951  Biso   1.000  C
  C40      1.0000 0.07110  0.70600  0.30951  Biso   1.000  C
  C41      1.0000 0.10530  0.72390  0.02110  Biso   1.000  C
  C42      1.0000 0.39470  0.27610  0.52110  Biso   1.000  C
  C43      1.0000 0.60530  0.77610  0.97890  Biso   1.000  C
  C44      1.0000 0.89470  0.22390  0.47890  Biso   1.000  C
  C45      1.0000 0.89470  0.27610  0.97890  Biso   1.000  C
  C46      1.0000 0.60530  0.72390  0.47890  Biso   1.000  C
  C47      1.0000 0.39470  0.22390  0.02110  Biso   1.000  C
  C48      1.0000 0.10530  0.77610  0.52110  Biso   1.000  C
  H33      1.0000 0.15287  0.76139  0.98744  Biso   1.000  H
  H34      1.0000 0.34713  0.23861  0.48744  Biso   1.000  H
  H35      1.0000 0.65287  0.73861  0.01256  Biso   1.000  H
  H36      1.0000 0.84713  0.26139  0.51256  Biso   1.000  H
  H37      1.0000 0.84713  0.23861  0.01256  Biso   1.000  H
  H38      1.0000 0.65287  0.76139  0.51256  Biso   1.000  H
  H39      1.0000 0.34713  0.26139  0.98744  Biso   1.000  H
  H40      1.0000 0.15287  0.73861  0.48744  Biso   1.000  H
  C49      1.0000 0.12550  0.59040  0.04973  Biso   1.000  C
  C50      1.0000 0.37450  0.40960  0.54973  Biso   1.000  C
  C51      1.0000 0.62550  0.90960  0.95027  Biso   1.000  C
  C52      1.0000 0.87450  0.09040  0.45027  Biso   1.000  C
  C53      1.0000 0.87450  0.40960  0.95027  Biso   1.000  C
  C54      1.0000 0.62550  0.59040  0.45027  Biso   1.000  C
  C55      1.0000 0.37450  0.09040  0.04973  Biso   1.000  C
  C56      1.0000 0.12550  0.90960  0.54973  Biso   1.000  C
  C57      1.0000 0.05380  0.53610  0.09654  Biso   1.000  C
  C58      1.0000 0.44620  0.46390  0.59654  Biso   1.000  C
  C59      1.0000 0.55380  0.96390  0.90346  Biso   1.000  C
  C60      1.0000 0.94620  0.03610  0.40346  Biso   1.000  C
  C61      1.0000 0.94620  0.46390  0.90346  Biso   1.000  C
  C62      1.0000 0.55380  0.53610  0.40346  Biso   1.000  C
  C63      1.0000 0.44620  0.03610  0.09654  Biso   1.000  C
  C64      1.0000 0.05380  0.96390  0.59654  Biso   1.000  C
  H41      1.0000 0.06464  0.44475  0.11703  Biso   1.000  H
  H42      1.0000 0.43536  0.55525  0.61703  Biso   1.000  H
  H43      1.0000 0.56464  0.05525  0.88297  Biso   1.000  H
  H44      1.0000 0.93536  0.94475  0.38297  Biso   1.000  H
  H45      1.0000 0.93536  0.55525  0.88297  Biso   1.000  H
  H46      1.0000 0.56464  0.44475  0.38297  Biso   1.000  H
  H47      1.0000 0.43536  0.94475  0.11703  Biso   1.000  H
  H48      1.0000 0.06464  0.05525  0.61703  Biso   1.000  H
  C65      1.0000 0.96690  0.61380  0.11354  Biso   1.000  C
  C66      1.0000 0.53310  0.38620  0.61354  Biso   1.000  C
  C67      1.0000 0.46690  0.88620  0.88646  Biso   1.000  C
  C68      1.0000 0.03310  0.11380  0.38646  Biso   1.000  C
  C69      1.0000 0.03310  0.38620  0.88646  Biso   1.000  C
  C70      1.0000 0.46690  0.61380  0.38646  Biso   1.000  C
  C71      1.0000 0.53310  0.11380  0.11354  Biso   1.000  C
  C72      1.0000 0.96690  0.88620  0.61354  Biso   1.000  C
  H49      1.0000 0.91622  0.57605  0.14500  Biso   1.000  H
  H50      1.0000 0.58378  0.42395  0.64500  Biso   1.000  H
  H51      1.0000 0.41622  0.92395  0.85500  Biso   1.000  H
  H52      1.0000 0.08378  0.07605  0.35500  Biso   1.000  H
  H53      1.0000 0.08378  0.42395  0.85500  Biso   1.000  H
  H54      1.0000 0.41622  0.57605  0.35500  Biso   1.000  H
  H55      1.0000 0.58378  0.07605  0.14500  Biso   1.000  H
  H56      1.0000 0.91622  0.92395  0.64500  Biso   1.000  H
  C73      1.0000 0.95350  0.74750  0.08459  Biso   1.000  C
  C74      1.0000 0.54650  0.25250  0.58459  Biso   1.000  C
  C75      1.0000 0.45350  0.75250  0.91541  Biso   1.000  C
  C76      1.0000 0.04650  0.24750  0.41541  Biso   1.000  C
  C77      1.0000 0.04650  0.25250  0.91541  Biso   1.000  C
  C78      1.0000 0.45350  0.74750  0.41541  Biso   1.000  C
  C79      1.0000 0.54650  0.24750  0.08459  Biso   1.000  C
  C80      1.0000 0.95350  0.75250  0.58459  Biso   1.000  C
  H57      1.0000 0.89405  0.80237  0.09753  Biso   1.000  H
  H58      1.0000 0.60595  0.19763  0.59753  Biso   1.000  H
  H59      1.0000 0.39405  0.69763  0.90247  Biso   1.000  H
  H60      1.0000 0.10595  0.30237  0.40247  Biso   1.000  H
  H61      1.0000 0.10595  0.19763  0.90247  Biso   1.000  H
  H62      1.0000 0.39405  0.80237  0.40247  Biso   1.000  H
  H63      1.0000 0.60595  0.30237  0.09753  Biso   1.000  H
  H64      1.0000 0.89405  0.69763  0.59753  Biso   1.000  H
  C81      1.0000 0.22070  0.50600  0.02970  Biso   1.000  C
  C82      1.0000 0.27930  0.49400  0.52970  Biso   1.000  C
  C83      1.0000 0.72070  0.99400  0.97030  Biso   1.000  C
  C84      1.0000 0.77930  0.00600  0.47030  Biso   1.000  C
  C85      1.0000 0.77930  0.49400  0.97030  Biso   1.000  C
  C86      1.0000 0.72070  0.50600  0.47030  Biso   1.000  C
  C87      1.0000 0.27930  0.00600  0.02970  Biso   1.000  C
  C88      1.0000 0.22070  0.99400  0.52970  Biso   1.000  C
  H65      1.0000 0.23553  0.43641  0.06765  Biso   1.000  H
  H66      1.0000 0.26447  0.56359  0.56765  Biso   1.000  H
  H67      1.0000 0.73553  0.06359  0.93235  Biso   1.000  H
  H68      1.0000 0.76447  0.93641  0.43235  Biso   1.000  H
  H69      1.0000 0.76447  0.56359  0.93235  Biso   1.000  H
  H70      1.0000 0.73553  0.43641  0.43235  Biso   1.000  H
  H71      1.0000 0.26447  0.93641  0.06765  Biso   1.000  H
  H72      1.0000 0.23553  0.06359  0.56765  Biso   1.000  H
  H73      1.0000 0.20490  0.45109  0.98644  Biso   1.000  H
  H74      1.0000 0.29510  0.54891  0.48644  Biso   1.000  H
  H75      1.0000 0.70490  0.04891  0.01356  Biso   1.000  H
  H76      1.0000 0.79510  0.95109  0.51356  Biso   1.000  H
  H77      1.0000 0.79510  0.54891  0.01356  Biso   1.000  H
  H78      1.0000 0.70490  0.45109  0.51356  Biso   1.000  H
  H79      1.0000 0.29510  0.95109  0.98644  Biso   1.000  H
  H80      1.0000 0.20490  0.04891  0.48644  Biso   1.000  H
  S9       1.0000 0.03990  0.67110  0.75620  Biso   1.000  S
  S10      1.0000 0.46010  0.32890  0.25620  Biso   1.000  S
  S11      1.0000 0.53990  0.82890  0.24380  Biso   1.000  S
  S12      1.0000 0.96010  0.17110  0.74380  Biso   1.000  S
  S13      1.0000 0.96010  0.32890  0.24380  Biso   1.000  S
  S14      1.0000 0.53990  0.67110  0.74380  Biso   1.000  S
  S15      1.0000 0.46010  0.17110  0.75620  Biso   1.000  S
  S16      1.0000 0.03990  0.82890  0.25620  Biso   1.000  S
  C89      1.0000 0.15130  0.68600  0.70930  Biso   1.000  C
  C90      1.0000 0.34870  0.31400  0.20930  Biso   1.000  C
  C91      1.0000 0.65130  0.81400  0.29070  Biso   1.000  C
  C92      1.0000 0.84870  0.18600  0.79070  Biso   1.000  C
  C93      1.0000 0.84870  0.31400  0.29070  Biso   1.000  C
  C94      1.0000 0.65130  0.68600  0.79070  Biso   1.000  C
  C95      1.0000 0.34870  0.18600  0.70930  Biso   1.000  C
  C96      1.0000 0.15130  0.81400  0.20930  Biso   1.000  C
  H81      1.0000 0.16813  0.62799  0.66986  Biso   1.000  H
  H82      1.0000 0.33187  0.37201  0.16986  Biso   1.000  H
  H83      1.0000 0.66813  0.87201  0.33014  Biso   1.000  H
  H84      1.0000 0.83187  0.12799  0.83014  Biso   1.000  H
  H85      1.0000 0.83187  0.37201  0.33014  Biso   1.000  H
  H86      1.0000 0.66813  0.62799  0.83014  Biso   1.000  H
  H87      1.0000 0.33187  0.12799  0.66986  Biso   1.000  H
  H88      1.0000 0.16813  0.87201  0.16986  Biso   1.000  H
  C97      1.0000 0.21420  0.79100  0.73480  Biso   1.000  C
  C98      1.0000 0.28580  0.20900  0.23480  Biso   1.000  C
  C99      1.0000 0.71420  0.70900  0.26520  Biso   1.000  C
  C100     1.0000 0.78580  0.29100  0.76520  Biso   1.000  C
  C101     1.0000 0.78580  0.20900  0.26520  Biso   1.000  C
  C102     1.0000 0.71420  0.79100  0.76520  Biso   1.000  C
  C103     1.0000 0.28580  0.29100  0.73480  Biso   1.000  C
  C104     1.0000 0.21420  0.70900  0.23480  Biso   1.000  C
  H89      1.0000 0.28020  0.81587  0.71542  Biso   1.000  H
  H90      1.0000 0.21980  0.18413  0.21542  Biso   1.000  H
  H91      1.0000 0.78020  0.68413  0.28458  Biso   1.000  H
  H92      1.0000 0.71980  0.31587  0.78458  Biso   1.000  H
  H93      1.0000 0.71980  0.18413  0.28458  Biso   1.000  H
  H94      1.0000 0.78020  0.81587  0.78458  Biso   1.000  H
  H95      1.0000 0.21980  0.31587  0.71542  Biso   1.000  H
  H96      1.0000 0.28020  0.68413  0.21542  Biso   1.000  H
  C105     1.0000 0.16930  0.85900  0.79340  Biso   1.000  C
  C106     1.0000 0.33070  0.14100  0.29340  Biso   1.000  C
  C107     1.0000 0.66930  0.64100  0.20660  Biso   1.000  C
  C108     1.0000 0.83070  0.35900  0.70660  Biso   1.000  C
  C109     1.0000 0.83070  0.14100  0.20660  Biso   1.000  C
  C110     1.0000 0.66930  0.85900  0.70660  Biso   1.000  C
  C111     1.0000 0.33070  0.35900  0.79340  Biso   1.000  C
  C112     1.0000 0.16930  0.64100  0.29340  Biso   1.000  C
  H97      1.0000 0.19952  0.93686  0.81849  Biso   1.000  H
  H98      1.0000 0.30048  0.06314  0.31849  Biso   1.000  H
  H99      1.0000 0.69952  0.56314  0.18151  Biso   1.000  H
  H100     1.0000 0.80048  0.43686  0.68151  Biso   1.000  H
  H101     1.0000 0.80048  0.06314  0.18151  Biso   1.000  H
  H102     1.0000 0.69952  0.93686  0.68151  Biso   1.000  H
  H103     1.0000 0.30048  0.43686  0.81849  Biso   1.000  H
  H104     1.0000 0.19952  0.56314  0.31849  Biso   1.000  H
