data_image0
_cell_length_a       13.208
_cell_length_b       9.17
_cell_length_c       19.932
_cell_angle_alpha    90
_cell_angle_beta     90
_cell_angle_gamma    90

_symmetry_space_group_name_H-M    "P 1"
_symmetry_int_tables_number       1

loop_
  _symmetry_equiv_pos_as_xyz
  'x, y, z'

loop_
  _atom_site_label
  _atom_site_occupancy
  _atom_site_fract_x
  _atom_site_fract_y
  _atom_site_fract_z
  _atom_site_thermal_displace_type
  _atom_site_B_iso_or_equiv
  _atom_site_type_symbol
  Cu1      1.0000 0.00000  0.00000  0.00000  Biso   1.000  Cu
  Cu2      1.0000 0.50000  0.00000  0.50000  Biso   1.000  Cu
  Cu3      1.0000 0.50000  0.50000  0.00000  Biso   1.000  Cu
  Cu4      1.0000 0.00000  0.50000  0.50000  Biso   1.000  Cu
  O1       1.0000 0.05094  0.94475  0.91183  Biso   1.000  O
  O2       1.0000 0.44906  0.05525  0.41183  Biso   1.000  O
  O3       1.0000 0.55094  0.55525  0.08817  Biso   1.000  O
  O4       1.0000 0.94906  0.44475  0.58817  Biso   1.000  O
  O5       1.0000 0.94906  0.05525  0.08817  Biso   1.000  O
  O6       1.0000 0.55094  0.94475  0.58817  Biso   1.000  O
  O7       1.0000 0.44906  0.44475  0.91183  Biso   1.000  O
  O8       1.0000 0.05094  0.55525  0.41183  Biso   1.000  O
  O9       1.0000 0.91526  0.82580  0.87278  Biso   1.000  O
  O10      1.0000 0.58474  0.17420  0.37278  Biso   1.000  O
  O11      1.0000 0.41526  0.67420  0.12722  Biso   1.000  O
  O12      1.0000 0.08474  0.32580  0.62722  Biso   1.000  O
  O13      1.0000 0.08474  0.17420  0.12722  Biso   1.000  O
  O14      1.0000 0.41526  0.82580  0.62722  Biso   1.000  O
  O15      1.0000 0.58474  0.32580  0.87278  Biso   1.000  O
  O16      1.0000 0.91526  0.67420  0.37278  Biso   1.000  O
  O17      1.0000 0.31316  0.59740  0.01784  Biso   1.000  O
  O18      1.0000 0.18684  0.40260  0.51784  Biso   1.000  O
  O19      1.0000 0.81316  0.90260  0.98216  Biso   1.000  O
  O20      1.0000 0.68684  0.09740  0.48216  Biso   1.000  O
  O21      1.0000 0.68684  0.40260  0.98216  Biso   1.000  O
  O22      1.0000 0.81316  0.59740  0.48216  Biso   1.000  O
  O23      1.0000 0.18684  0.09740  0.01784  Biso   1.000  O
  O24      1.0000 0.31316  0.90260  0.51784  Biso   1.000  O
  H1       1.0000 0.33583  0.62443  0.05519  Biso   1.000  H
  H2       1.0000 0.16417  0.37557  0.55519  Biso   1.000  H
  H3       1.0000 0.83583  0.87557  0.94481  Biso   1.000  H
  H4       1.0000 0.66417  0.12443  0.44481  Biso   1.000  H
  H5       1.0000 0.66417  0.37557  0.94481  Biso   1.000  H
  H6       1.0000 0.83583  0.62443  0.44481  Biso   1.000  H
  H7       1.0000 0.16417  0.12443  0.05519  Biso   1.000  H
  H8       1.0000 0.33583  0.87557  0.55519  Biso   1.000  H
  N1       1.0000 0.02437  0.79500  0.03342  Biso   1.000  N
  N2       1.0000 0.47563  0.20500  0.53342  Biso   1.000  N
  N3       1.0000 0.52437  0.70500  0.96658  Biso   1.000  N
  N4       1.0000 0.97563  0.29500  0.46658  Biso   1.000  N
  N5       1.0000 0.97563  0.20500  0.96658  Biso   1.000  N
  N6       1.0000 0.52437  0.79500  0.46658  Biso   1.000  N
  N7       1.0000 0.47563  0.29500  0.03342  Biso   1.000  N
  N8       1.0000 0.02437  0.70500  0.53342  Biso   1.000  N
  C1       1.0000 0.10940  0.72180  0.01795  Biso   1.000  C
  C2       1.0000 0.39060  0.27820  0.51795  Biso   1.000  C
  C3       1.0000 0.60940  0.77820  0.98205  Biso   1.000  C
  C4       1.0000 0.89060  0.22180  0.48205  Biso   1.000  C
  C5       1.0000 0.89060  0.27820  0.98205  Biso   1.000  C
  C6       1.0000 0.60940  0.72180  0.48205  Biso   1.000  C
  C7       1.0000 0.39060  0.22180  0.01795  Biso   1.000  C
  C8       1.0000 0.10940  0.77820  0.51795  Biso   1.000  C
  H9       1.0000 0.15562  0.76455  0.98718  Biso   1.000  H
  H10      1.0000 0.34438  0.23545  0.48718  Biso   1.000  H
  H11      1.0000 0.65562  0.73545  0.01282  Biso   1.000  H
  H12      1.0000 0.84438  0.26455  0.51282  Biso   1.000  H
  H13      1.0000 0.84438  0.23545  0.01282  Biso   1.000  H
  H14      1.0000 0.65562  0.76455  0.51282  Biso   1.000  H
  H15      1.0000 0.34438  0.26455  0.98718  Biso   1.000  H
  H16      1.0000 0.15562  0.73545  0.48718  Biso   1.000  H
  C9       1.0000 0.13254  0.58640  0.04503  Biso   1.000  C
  C10      1.0000 0.36746  0.41360  0.54503  Biso   1.000  C
  C11      1.0000 0.63254  0.91360  0.95497  Biso   1.000  C
  C12      1.0000 0.86746  0.08640  0.45497  Biso   1.000  C
  C13      1.0000 0.86746  0.41360  0.95497  Biso   1.000  C
  C14      1.0000 0.63254  0.58640  0.45497  Biso   1.000  C
  C15      1.0000 0.36746  0.08640  0.04503  Biso   1.000  C
  C16      1.0000 0.13254  0.91360  0.54503  Biso   1.000  C
  C17      1.0000 0.06250  0.52320  0.08724  Biso   1.000  C
  C18      1.0000 0.43750  0.47680  0.58724  Biso   1.000  C
  C19      1.0000 0.56250  0.97680  0.91276  Biso   1.000  C
  C20      1.0000 0.93750  0.02320  0.41276  Biso   1.000  C
  C21      1.0000 0.93750  0.47680  0.91276  Biso   1.000  C
  C22      1.0000 0.56250  0.52320  0.41276  Biso   1.000  C
  C23      1.0000 0.43750  0.02320  0.08724  Biso   1.000  C
  C24      1.0000 0.06250  0.97680  0.58724  Biso   1.000  C
  H17      1.0000 0.07524  0.42999  0.10628  Biso   1.000  H
  H18      1.0000 0.42476  0.57001  0.60628  Biso   1.000  H
  H19      1.0000 0.57524  0.07001  0.89372  Biso   1.000  H
  H20      1.0000 0.92476  0.92999  0.39372  Biso   1.000  H
  H21      1.0000 0.92476  0.57001  0.89372  Biso   1.000  H
  H22      1.0000 0.57524  0.42999  0.39372  Biso   1.000  H
  H23      1.0000 0.42476  0.92999  0.10628  Biso   1.000  H
  H24      1.0000 0.07524  0.07001  0.60628  Biso   1.000  H
  C25      1.0000 0.97420  0.59560  0.10156  Biso   1.000  C
  C26      1.0000 0.52580  0.40440  0.60156  Biso   1.000  C
  C27      1.0000 0.47420  0.90440  0.89844  Biso   1.000  C
  C28      1.0000 0.02580  0.09560  0.39844  Biso   1.000  C
  C29      1.0000 0.02580  0.40440  0.89844  Biso   1.000  C
  C30      1.0000 0.47420  0.59560  0.39844  Biso   1.000  C
  C31      1.0000 0.52580  0.09560  0.10156  Biso   1.000  C
  C32      1.0000 0.97420  0.90440  0.60156  Biso   1.000  C
  H25      1.0000 0.92481  0.55196  0.12980  Biso   1.000  H
  H26      1.0000 0.57519  0.44804  0.62980  Biso   1.000  H
  H27      1.0000 0.42481  0.94804  0.87020  Biso   1.000  H
  H28      1.0000 0.07519  0.05196  0.37020  Biso   1.000  H
  H29      1.0000 0.07519  0.44804  0.87020  Biso   1.000  H
  H30      1.0000 0.42481  0.55196  0.37020  Biso   1.000  H
  H31      1.0000 0.57519  0.05196  0.12980  Biso   1.000  H
  H32      1.0000 0.92481  0.94804  0.62980  Biso   1.000  H
  C33      1.0000 0.95767  0.73210  0.07470  Biso   1.000  C
  C34      1.0000 0.54233  0.26790  0.57470  Biso   1.000  C
  C35      1.0000 0.45767  0.76790  0.92530  Biso   1.000  C
  C36      1.0000 0.04233  0.23210  0.42530  Biso   1.000  C
  C37      1.0000 0.04233  0.26790  0.92530  Biso   1.000  C
  C38      1.0000 0.45767  0.73210  0.42530  Biso   1.000  C
  C39      1.0000 0.54233  0.23210  0.07470  Biso   1.000  C
  C40      1.0000 0.95767  0.76790  0.57470  Biso   1.000  C
  H33      1.0000 0.89724  0.78285  0.08584  Biso   1.000  H
  H34      1.0000 0.60276  0.21715  0.58584  Biso   1.000  H
  H35      1.0000 0.39724  0.71715  0.91416  Biso   1.000  H
  H36      1.0000 0.10276  0.28285  0.41416  Biso   1.000  H
  H37      1.0000 0.10276  0.21715  0.91416  Biso   1.000  H
  H38      1.0000 0.39724  0.78285  0.41416  Biso   1.000  H
  H39      1.0000 0.60276  0.28285  0.08584  Biso   1.000  H
  H40      1.0000 0.89724  0.71715  0.58584  Biso   1.000  H
  C41      1.0000 0.22880  0.50640  0.02772  Biso   1.000  C
  C42      1.0000 0.27120  0.49360  0.52772  Biso   1.000  C
  C43      1.0000 0.72880  0.99360  0.97228  Biso   1.000  C
  C44      1.0000 0.77120  0.00640  0.47228  Biso   1.000  C
  C45      1.0000 0.77120  0.49360  0.97228  Biso   1.000  C
  C46      1.0000 0.72880  0.50640  0.47228  Biso   1.000  C
  C47      1.0000 0.27120  0.00640  0.02772  Biso   1.000  C
  C48      1.0000 0.22880  0.99360  0.52772  Biso   1.000  C
  H41      1.0000 0.24434  0.43687  0.06428  Biso   1.000  H
  H42      1.0000 0.25566  0.56313  0.56428  Biso   1.000  H
  H43      1.0000 0.74434  0.06313  0.93572  Biso   1.000  H
  H44      1.0000 0.75566  0.93687  0.43572  Biso   1.000  H
  H45      1.0000 0.75566  0.56313  0.93572  Biso   1.000  H
  H46      1.0000 0.74434  0.43687  0.43572  Biso   1.000  H
  H47      1.0000 0.25566  0.93687  0.06428  Biso   1.000  H
  H48      1.0000 0.24434  0.06313  0.56428  Biso   1.000  H
  H49      1.0000 0.21727  0.44899  0.98635  Biso   1.000  H
  H50      1.0000 0.28273  0.55101  0.48635  Biso   1.000  H
  H51      1.0000 0.71727  0.05101  0.01365  Biso   1.000  H
  H52      1.0000 0.78273  0.94899  0.51365  Biso   1.000  H
  H53      1.0000 0.78273  0.55101  0.01365  Biso   1.000  H
  H54      1.0000 0.71727  0.44899  0.51365  Biso   1.000  H
  H55      1.0000 0.28273  0.94899  0.98635  Biso   1.000  H
  H56      1.0000 0.21727  0.05101  0.48635  Biso   1.000  H
  C49      1.0000 0.00550  0.86410  0.86933  Biso   1.000  C
  C50      1.0000 0.49450  0.13590  0.36933  Biso   1.000  C
  C51      1.0000 0.50550  0.63590  0.13067  Biso   1.000  C
  C52      1.0000 0.99450  0.36410  0.63067  Biso   1.000  C
  C53      1.0000 0.99450  0.13590  0.13067  Biso   1.000  C
  C54      1.0000 0.50550  0.86410  0.63067  Biso   1.000  C
  C55      1.0000 0.49450  0.36410  0.86933  Biso   1.000  C
  C56      1.0000 0.00550  0.63590  0.36933  Biso   1.000  C
  S1       1.0000 0.00224  0.68073  0.75660  Biso   1.000  S
  S2       1.0000 0.49776  0.31927  0.25660  Biso   1.000  S
  S3       1.0000 0.50224  0.81927  0.24340  Biso   1.000  S
  S4       1.0000 0.99776  0.18073  0.74340  Biso   1.000  S
  S5       1.0000 0.99776  0.31927  0.24340  Biso   1.000  S
  S6       1.0000 0.50224  0.68073  0.74340  Biso   1.000  S
  S7       1.0000 0.49776  0.18073  0.75660  Biso   1.000  S
  S8       1.0000 0.00224  0.81927  0.25660  Biso   1.000  S
  C57      1.0000 0.05950  0.80580  0.80990  Biso   1.000  C
  C58      1.0000 0.44050  0.19420  0.30990  Biso   1.000  C
  C59      1.0000 0.55950  0.69420  0.19010  Biso   1.000  C
  C60      1.0000 0.94050  0.30580  0.69010  Biso   1.000  C
  C61      1.0000 0.94050  0.19420  0.19010  Biso   1.000  C
  C62      1.0000 0.55950  0.80580  0.69010  Biso   1.000  C
  C63      1.0000 0.44050  0.30580  0.80990  Biso   1.000  C
  C64      1.0000 0.05950  0.69420  0.30990  Biso   1.000  C
  C65      1.0000 0.15560  0.83790  0.78908  Biso   1.000  C
  C66      1.0000 0.34440  0.16210  0.28908  Biso   1.000  C
  C67      1.0000 0.65560  0.66210  0.21092  Biso   1.000  C
  C68      1.0000 0.84440  0.33790  0.71092  Biso   1.000  C
  C69      1.0000 0.84440  0.16210  0.21092  Biso   1.000  C
  C70      1.0000 0.65560  0.83790  0.71092  Biso   1.000  C
  C71      1.0000 0.34440  0.33790  0.78908  Biso   1.000  C
  C72      1.0000 0.15560  0.66210  0.28908  Biso   1.000  C
  C73      1.0000 0.18250  0.76110  0.72940  Biso   1.000  C
  C74      1.0000 0.31750  0.23890  0.22940  Biso   1.000  C
  C75      1.0000 0.68250  0.73890  0.27060  Biso   1.000  C
  C76      1.0000 0.81750  0.26110  0.77060  Biso   1.000  C
  C77      1.0000 0.81750  0.23890  0.27060  Biso   1.000  C
  C78      1.0000 0.68250  0.76110  0.77060  Biso   1.000  C
  C79      1.0000 0.31750  0.26110  0.72940  Biso   1.000  C
  C80      1.0000 0.18250  0.73890  0.22940  Biso   1.000  C
  H57      1.0000 0.24563  0.77136  0.70704  Biso   1.000  H
  H58      1.0000 0.25437  0.22864  0.20704  Biso   1.000  H
  H59      1.0000 0.74563  0.72864  0.29296  Biso   1.000  H
  H60      1.0000 0.75437  0.27136  0.79296  Biso   1.000  H
  H61      1.0000 0.75437  0.22864  0.29296  Biso   1.000  H
  H62      1.0000 0.74563  0.77136  0.79296  Biso   1.000  H
  H63      1.0000 0.25437  0.27136  0.70704  Biso   1.000  H
  H64      1.0000 0.24563  0.72864  0.20704  Biso   1.000  H
  C81      1.0000 0.10720  0.67170  0.70830  Biso   1.000  C
  C82      1.0000 0.39280  0.32830  0.20830  Biso   1.000  C
  C83      1.0000 0.60720  0.82830  0.29170  Biso   1.000  C
  C84      1.0000 0.89280  0.17170  0.79170  Biso   1.000  C
  C85      1.0000 0.89280  0.32830  0.29170  Biso   1.000  C
  C86      1.0000 0.60720  0.67170  0.79170  Biso   1.000  C
  C87      1.0000 0.39280  0.17170  0.70830  Biso   1.000  C
  C88      1.0000 0.10720  0.82830  0.20830  Biso   1.000  C
  H65      1.0000 0.11293  0.61011  0.67018  Biso   1.000  H
  H66      1.0000 0.38707  0.38989  0.17018  Biso   1.000  H
  H67      1.0000 0.61293  0.88989  0.32982  Biso   1.000  H
  H68      1.0000 0.88707  0.11011  0.82982  Biso   1.000  H
  H69      1.0000 0.88707  0.38989  0.32982  Biso   1.000  H
  H70      1.0000 0.61293  0.61011  0.82982  Biso   1.000  H
  H71      1.0000 0.38707  0.11011  0.67018  Biso   1.000  H
  H72      1.0000 0.11293  0.88989  0.17018  Biso   1.000  H
  C89      1.0000 0.21900  0.95100  0.82140  Biso   1.000  C
  C90      1.0000 0.28100  0.04900  0.32140  Biso   1.000  C
  C91      1.0000 0.71900  0.54900  0.17860  Biso   1.000  C
  C92      1.0000 0.78100  0.45100  0.67860  Biso   1.000  C
  C93      1.0000 0.78100  0.04900  0.17860  Biso   1.000  C
  C94      1.0000 0.71900  0.95100  0.67860  Biso   1.000  C
  C95      1.0000 0.28100  0.45100  0.82140  Biso   1.000  C
  C96      1.0000 0.21900  0.54900  0.32140  Biso   1.000  C
  H73      1.0000 0.28476  0.95600  0.79870  Biso   1.000  H
  H74      1.0000 0.21524  0.04400  0.29870  Biso   1.000  H
  H75      1.0000 0.78476  0.54400  0.20130  Biso   1.000  H
  H76      1.0000 0.71524  0.45600  0.70130  Biso   1.000  H
  H77      1.0000 0.71524  0.04400  0.20130  Biso   1.000  H
  H78      1.0000 0.78476  0.95600  0.70130  Biso   1.000  H
  H79      1.0000 0.21524  0.45600  0.79870  Biso   1.000  H
  H80      1.0000 0.28476  0.54400  0.29870  Biso   1.000  H
  H81      1.0000 0.18507  0.04572  0.81816  Biso   1.000  H
  H82      1.0000 0.31493  0.95428  0.31816  Biso   1.000  H
  H83      1.0000 0.68507  0.45428  0.18184  Biso   1.000  H
  H84      1.0000 0.81493  0.54572  0.68184  Biso   1.000  H
  H85      1.0000 0.81493  0.95428  0.18184  Biso   1.000  H
  H86      1.0000 0.68507  0.04572  0.68184  Biso   1.000  H
  H87      1.0000 0.31493  0.54572  0.81816  Biso   1.000  H
  H88      1.0000 0.18507  0.45428  0.31816  Biso   1.000  H
  H89      1.0000 0.22925  0.92601  0.86872  Biso   1.000  H
  H90      1.0000 0.27075  0.07399  0.36872  Biso   1.000  H
  H91      1.0000 0.72925  0.57399  0.13128  Biso   1.000  H
  H92      1.0000 0.77075  0.42601  0.63128  Biso   1.000  H
  H93      1.0000 0.77075  0.07399  0.13128  Biso   1.000  H
  H94      1.0000 0.72925  0.92601  0.63128  Biso   1.000  H
  H95      1.0000 0.27075  0.42601  0.86872  Biso   1.000  H
  H96      1.0000 0.22925  0.57399  0.36872  Biso   1.000  H
  S9       1.0000 0.20500  0.90080  0.81379  Biso   1.000  S
  S10      1.0000 0.29500  0.09920  0.31379  Biso   1.000  S
  S11      1.0000 0.70500  0.59920  0.18621  Biso   1.000  S
  S12      1.0000 0.79500  0.40080  0.68621  Biso   1.000  S
  S13      1.0000 0.79500  0.09920  0.18621  Biso   1.000  S
  S14      1.0000 0.70500  0.90080  0.68621  Biso   1.000  S
  S15      1.0000 0.29500  0.40080  0.81379  Biso   1.000  S
  S16      1.0000 0.20500  0.59920  0.31379  Biso   1.000  S
  C97      1.0000 0.08460  0.83190  0.81630  Biso   1.000  C
  C98      1.0000 0.41540  0.16810  0.31630  Biso   1.000  C
  C99      1.0000 0.58460  0.66810  0.18370  Biso   1.000  C
  C100     1.0000 0.91540  0.33190  0.68370  Biso   1.000  C
  C101     1.0000 0.91540  0.16810  0.18370  Biso   1.000  C
  C102     1.0000 0.58460  0.83190  0.68370  Biso   1.000  C
  C103     1.0000 0.41540  0.33190  0.81630  Biso   1.000  C
  C104     1.0000 0.08460  0.66810  0.31630  Biso   1.000  C
  C105     1.0000 0.06620  0.74270  0.76270  Biso   1.000  C
  C106     1.0000 0.43380  0.25730  0.26270  Biso   1.000  C
  C107     1.0000 0.56620  0.75730  0.23730  Biso   1.000  C
  C108     1.0000 0.93380  0.24270  0.73730  Biso   1.000  C
  C109     1.0000 0.93380  0.25730  0.23730  Biso   1.000  C
  C110     1.0000 0.56620  0.74270  0.73730  Biso   1.000  C
  C111     1.0000 0.43380  0.24270  0.76270  Biso   1.000  C
  C112     1.0000 0.06620  0.75730  0.26270  Biso   1.000  C
  C113     1.0000 0.15180  0.73600  0.71940  Biso   1.000  C
  C114     1.0000 0.34820  0.26400  0.21940  Biso   1.000  C
  C115     1.0000 0.65180  0.76400  0.28060  Biso   1.000  C
  C116     1.0000 0.84820  0.23600  0.78060  Biso   1.000  C
  C117     1.0000 0.84820  0.26400  0.28060  Biso   1.000  C
  C118     1.0000 0.65180  0.73600  0.78060  Biso   1.000  C
  C119     1.0000 0.34820  0.23600  0.71940  Biso   1.000  C
  C120     1.0000 0.15180  0.76400  0.21940  Biso   1.000  C
  H97      1.0000 0.15464  0.67640  0.68032  Biso   1.000  H
  H98      1.0000 0.34536  0.32360  0.18032  Biso   1.000  H
  H99      1.0000 0.65464  0.82360  0.31968  Biso   1.000  H
  H100     1.0000 0.84536  0.17640  0.81968  Biso   1.000  H
  H101     1.0000 0.84536  0.32360  0.31968  Biso   1.000  H
  H102     1.0000 0.65464  0.67640  0.81968  Biso   1.000  H
  H103     1.0000 0.34536  0.17640  0.68032  Biso   1.000  H
  H104     1.0000 0.15464  0.82360  0.18032  Biso   1.000  H
  C121     1.0000 0.22930  0.82280  0.74000  Biso   1.000  C
  C122     1.0000 0.27070  0.17720  0.24000  Biso   1.000  C
  C123     1.0000 0.72930  0.67720  0.26000  Biso   1.000  C
  C124     1.0000 0.77070  0.32280  0.76000  Biso   1.000  C
  C125     1.0000 0.77070  0.17720  0.26000  Biso   1.000  C
  C126     1.0000 0.72930  0.82280  0.76000  Biso   1.000  C
  C127     1.0000 0.27070  0.32280  0.74000  Biso   1.000  C
  C128     1.0000 0.22930  0.67720  0.24000  Biso   1.000  C
  H105     1.0000 0.28989  0.83751  0.71530  Biso   1.000  H
  H106     1.0000 0.21011  0.16249  0.21530  Biso   1.000  H
  H107     1.0000 0.78989  0.66249  0.28470  Biso   1.000  H
  H108     1.0000 0.71011  0.33751  0.78470  Biso   1.000  H
  H109     1.0000 0.71011  0.16249  0.28470  Biso   1.000  H
  H110     1.0000 0.78989  0.83751  0.78470  Biso   1.000  H
  H111     1.0000 0.21011  0.33751  0.71530  Biso   1.000  H
  H112     1.0000 0.28989  0.66249  0.21530  Biso   1.000  H
  C129     1.0000 0.96520  0.67080  0.75130  Biso   1.000  C
  C130     1.0000 0.53480  0.32920  0.25130  Biso   1.000  C
  C131     1.0000 0.46520  0.82920  0.24870  Biso   1.000  C
  C132     1.0000 0.03480  0.17080  0.74870  Biso   1.000  C
  C133     1.0000 0.03480  0.32920  0.24870  Biso   1.000  C
  C134     1.0000 0.46520  0.67080  0.74870  Biso   1.000  C
  C135     1.0000 0.53480  0.17080  0.75130  Biso   1.000  C
  C136     1.0000 0.96520  0.82920  0.25130  Biso   1.000  C
  H113     1.0000 0.96810  0.61189  0.71030  Biso   1.000  H
  H114     1.0000 0.53190  0.38811  0.21030  Biso   1.000  H
  H115     1.0000 0.46810  0.88811  0.28970  Biso   1.000  H
  H116     1.0000 0.03190  0.11189  0.78970  Biso   1.000  H
  H117     1.0000 0.03190  0.38811  0.28970  Biso   1.000  H
  H118     1.0000 0.46810  0.61189  0.78970  Biso   1.000  H
  H119     1.0000 0.53190  0.11189  0.71030  Biso   1.000  H
  H120     1.0000 0.96810  0.88811  0.21030  Biso   1.000  H
  H121     1.0000 0.94894  0.60798  0.78955  Biso   1.000  H
  H122     1.0000 0.55106  0.39202  0.28955  Biso   1.000  H
  H123     1.0000 0.44894  0.89202  0.21045  Biso   1.000  H
  H124     1.0000 0.05106  0.10798  0.71045  Biso   1.000  H
  H125     1.0000 0.05106  0.39202  0.21045  Biso   1.000  H
  H126     1.0000 0.44894  0.60798  0.71045  Biso   1.000  H
  H127     1.0000 0.55106  0.10798  0.78955  Biso   1.000  H
  H128     1.0000 0.94894  0.89202  0.28955  Biso   1.000  H
  H129     1.0000 0.91278  0.74575  0.74648  Biso   1.000  H
  H130     1.0000 0.58722  0.25425  0.24648  Biso   1.000  H
  H131     1.0000 0.41278  0.75425  0.25352  Biso   1.000  H
  H132     1.0000 0.08722  0.24575  0.75352  Biso   1.000  H
  H133     1.0000 0.08722  0.25425  0.25352  Biso   1.000  H
  H134     1.0000 0.41278  0.74575  0.75352  Biso   1.000  H
  H135     1.0000 0.58722  0.24575  0.74648  Biso   1.000  H
  H136     1.0000 0.91278  0.75425  0.24648  Biso   1.000  H
