data_image0
_cell_length_a       12.545
_cell_length_b       9.444
_cell_length_c       18.312
_cell_angle_alpha    90
_cell_angle_beta     90
_cell_angle_gamma    90

_symmetry_space_group_name_H-M    "P 1"
_symmetry_int_tables_number       1

loop_
  _symmetry_equiv_pos_as_xyz
  'x, y, z'

loop_
  _atom_site_label
  _atom_site_occupancy
  _atom_site_fract_x
  _atom_site_fract_y
  _atom_site_fract_z
  _atom_site_thermal_displace_type
  _atom_site_B_iso_or_equiv
  _atom_site_type_symbol
  Cu1      1.0000 0.00000  0.00000  0.00000  Biso   1.000  Cu
  Cu2      1.0000 0.50000  0.00000  0.50000  Biso   1.000  Cu
  Cu3      1.0000 0.50000  0.50000  0.00000  Biso   1.000  Cu
  Cu4      1.0000 0.00000  0.50000  0.50000  Biso   1.000  Cu
  O1       1.0000 0.05556  0.93180  0.90663  Biso   1.000  O
  O2       1.0000 0.44444  0.06820  0.40663  Biso   1.000  O
  O3       1.0000 0.55556  0.56820  0.09337  Biso   1.000  O
  O4       1.0000 0.94444  0.43180  0.59337  Biso   1.000  O
  O5       1.0000 0.94444  0.06820  0.09337  Biso   1.000  O
  O6       1.0000 0.55556  0.93180  0.59337  Biso   1.000  O
  O7       1.0000 0.44444  0.43180  0.90663  Biso   1.000  O
  O8       1.0000 0.05556  0.56820  0.40663  Biso   1.000  O
  O9       1.0000 0.91827  0.80330  0.86632  Biso   1.000  O
  O10      1.0000 0.58173  0.19670  0.36632  Biso   1.000  O
  O11      1.0000 0.41827  0.69670  0.13368  Biso   1.000  O
  O12      1.0000 0.08173  0.30330  0.63368  Biso   1.000  O
  O13      1.0000 0.08173  0.19670  0.13368  Biso   1.000  O
  O14      1.0000 0.41827  0.80330  0.63368  Biso   1.000  O
  O15      1.0000 0.58173  0.30330  0.86632  Biso   1.000  O
  O16      1.0000 0.91827  0.69670  0.36632  Biso   1.000  O
  O17      1.0000 0.31163  0.58700  0.02161  Biso   1.000  O
  O18      1.0000 0.18837  0.41300  0.52161  Biso   1.000  O
  O19      1.0000 0.81163  0.91300  0.97839  Biso   1.000  O
  O20      1.0000 0.68837  0.08700  0.47839  Biso   1.000  O
  O21      1.0000 0.68837  0.41300  0.97839  Biso   1.000  O
  O22      1.0000 0.81163  0.58700  0.47839  Biso   1.000  O
  O23      1.0000 0.18837  0.08700  0.02161  Biso   1.000  O
  O24      1.0000 0.31163  0.91300  0.52161  Biso   1.000  O
  H1       1.0000 0.33181  0.62574  0.06051  Biso   1.000  H
  H2       1.0000 0.16819  0.37426  0.56051  Biso   1.000  H
  H3       1.0000 0.83181  0.87426  0.93949  Biso   1.000  H
  H4       1.0000 0.66819  0.12574  0.43949  Biso   1.000  H
  H5       1.0000 0.66819  0.37426  0.93949  Biso   1.000  H
  H6       1.0000 0.83181  0.62574  0.43949  Biso   1.000  H
  H7       1.0000 0.16819  0.12574  0.06051  Biso   1.000  H
  H8       1.0000 0.33181  0.87426  0.56051  Biso   1.000  H
  O25      1.0000 0.05207  0.67190  0.76783  Biso   1.000  O
  O26      1.0000 0.44793  0.32810  0.26783  Biso   1.000  O
  O27      1.0000 0.55207  0.82810  0.23217  Biso   1.000  O
  O28      1.0000 0.94793  0.17190  0.73217  Biso   1.000  O
  O29      1.0000 0.94793  0.32810  0.23217  Biso   1.000  O
  O30      1.0000 0.55207  0.67190  0.73217  Biso   1.000  O
  O31      1.0000 0.44793  0.17190  0.76783  Biso   1.000  O
  O32      1.0000 0.05207  0.82810  0.26783  Biso   1.000  O
  N1       1.0000 0.02167  0.80650  0.04384  Biso   1.000  N
  N2       1.0000 0.47833  0.19350  0.54384  Biso   1.000  N
  N3       1.0000 0.52167  0.69350  0.95616  Biso   1.000  N
  N4       1.0000 0.97833  0.30650  0.45616  Biso   1.000  N
  N5       1.0000 0.97833  0.19350  0.95616  Biso   1.000  N
  N6       1.0000 0.52167  0.80650  0.45616  Biso   1.000  N
  N7       1.0000 0.47833  0.30650  0.04384  Biso   1.000  N
  N8       1.0000 0.02167  0.69350  0.54384  Biso   1.000  N
  C1       1.0000 0.10520  0.72560  0.02588  Biso   1.000  C
  C2       1.0000 0.39480  0.27440  0.52588  Biso   1.000  C
  C3       1.0000 0.60520  0.77440  0.97412  Biso   1.000  C
  C4       1.0000 0.89480  0.22560  0.47412  Biso   1.000  C
  C5       1.0000 0.89480  0.27440  0.97412  Biso   1.000  C
  C6       1.0000 0.60520  0.72560  0.47412  Biso   1.000  C
  C7       1.0000 0.39480  0.22560  0.02588  Biso   1.000  C
  C8       1.0000 0.10520  0.77440  0.52588  Biso   1.000  C
  H9       1.0000 0.15316  0.75918  0.98969  Biso   1.000  H
  H10      1.0000 0.34684  0.24082  0.48969  Biso   1.000  H
  H11      1.0000 0.65316  0.74082  0.01031  Biso   1.000  H
  H12      1.0000 0.84684  0.25918  0.51031  Biso   1.000  H
  H13      1.0000 0.84684  0.24082  0.01031  Biso   1.000  H
  H14      1.0000 0.65316  0.75918  0.51031  Biso   1.000  H
  H15      1.0000 0.34684  0.25918  0.98969  Biso   1.000  H
  H16      1.0000 0.15316  0.74082  0.48969  Biso   1.000  H
  C9       1.0000 0.12470  0.59570  0.05749  Biso   1.000  C
  C10      1.0000 0.37530  0.40430  0.55749  Biso   1.000  C
  C11      1.0000 0.62470  0.90430  0.94251  Biso   1.000  C
  C12      1.0000 0.87530  0.09570  0.44251  Biso   1.000  C
  C13      1.0000 0.87530  0.40430  0.94251  Biso   1.000  C
  C14      1.0000 0.62470  0.59570  0.44251  Biso   1.000  C
  C15      1.0000 0.37530  0.09570  0.05749  Biso   1.000  C
  C16      1.0000 0.12470  0.90430  0.55749  Biso   1.000  C
  C17      1.0000 0.05450  0.54680  0.10887  Biso   1.000  C
  C18      1.0000 0.44550  0.45320  0.60887  Biso   1.000  C
  C19      1.0000 0.55450  0.95320  0.89113  Biso   1.000  C
  C20      1.0000 0.94550  0.04680  0.39113  Biso   1.000  C
  C21      1.0000 0.94550  0.45320  0.89113  Biso   1.000  C
  C22      1.0000 0.55450  0.54680  0.39113  Biso   1.000  C
  C23      1.0000 0.44550  0.04680  0.10887  Biso   1.000  C
  C24      1.0000 0.05450  0.95320  0.60887  Biso   1.000  C
  H17      1.0000 0.06562  0.45768  0.13169  Biso   1.000  H
  H18      1.0000 0.43438  0.54232  0.63169  Biso   1.000  H
  H19      1.0000 0.56562  0.04232  0.86831  Biso   1.000  H
  H20      1.0000 0.93438  0.95768  0.36831  Biso   1.000  H
  H21      1.0000 0.93438  0.54232  0.86831  Biso   1.000  H
  H22      1.0000 0.56562  0.45768  0.36831  Biso   1.000  H
  H23      1.0000 0.43438  0.95768  0.13169  Biso   1.000  H
  H24      1.0000 0.06562  0.04232  0.63169  Biso   1.000  H
  C25      1.0000 0.96800  0.62830  0.12700  Biso   1.000  C
  C26      1.0000 0.53200  0.37170  0.62700  Biso   1.000  C
  C27      1.0000 0.46800  0.87170  0.87300  Biso   1.000  C
  C28      1.0000 0.03200  0.12830  0.37300  Biso   1.000  C
  C29      1.0000 0.03200  0.37170  0.87300  Biso   1.000  C
  C30      1.0000 0.46800  0.62830  0.37300  Biso   1.000  C
  C31      1.0000 0.53200  0.12830  0.12700  Biso   1.000  C
  C32      1.0000 0.96800  0.87170  0.62700  Biso   1.000  C
  H25      1.0000 0.91798  0.59547  0.16204  Biso   1.000  H
  H26      1.0000 0.58202  0.40453  0.66204  Biso   1.000  H
  H27      1.0000 0.41798  0.90453  0.83796  Biso   1.000  H
  H28      1.0000 0.08202  0.09547  0.33796  Biso   1.000  H
  H29      1.0000 0.08202  0.40453  0.83796  Biso   1.000  H
  H30      1.0000 0.41798  0.59547  0.33796  Biso   1.000  H
  H31      1.0000 0.58202  0.09547  0.16204  Biso   1.000  H
  H32      1.0000 0.91798  0.90453  0.66204  Biso   1.000  H
  C33      1.0000 0.95410  0.75730  0.09410  Biso   1.000  C
  C34      1.0000 0.54590  0.24270  0.59410  Biso   1.000  C
  C35      1.0000 0.45410  0.74270  0.90590  Biso   1.000  C
  C36      1.0000 0.04590  0.25730  0.40590  Biso   1.000  C
  C37      1.0000 0.04590  0.24270  0.90590  Biso   1.000  C
  C38      1.0000 0.45410  0.75730  0.40590  Biso   1.000  C
  C39      1.0000 0.54590  0.25730  0.09410  Biso   1.000  C
  C40      1.0000 0.95410  0.74270  0.59410  Biso   1.000  C
  H33      1.0000 0.89446  0.81359  0.10752  Biso   1.000  H
  H34      1.0000 0.60554  0.18641  0.60752  Biso   1.000  H
  H35      1.0000 0.39446  0.68641  0.89248  Biso   1.000  H
  H36      1.0000 0.10554  0.31359  0.39248  Biso   1.000  H
  H37      1.0000 0.10554  0.18641  0.89248  Biso   1.000  H
  H38      1.0000 0.39446  0.81359  0.39248  Biso   1.000  H
  H39      1.0000 0.60554  0.31359  0.10752  Biso   1.000  H
  H40      1.0000 0.89446  0.68641  0.60752  Biso   1.000  H
  C41      1.0000 0.21930  0.50680  0.03520  Biso   1.000  C
  C42      1.0000 0.28070  0.49320  0.53520  Biso   1.000  C
  C43      1.0000 0.71930  0.99320  0.96480  Biso   1.000  C
  C44      1.0000 0.78070  0.00680  0.46480  Biso   1.000  C
  C45      1.0000 0.78070  0.49320  0.96480  Biso   1.000  C
  C46      1.0000 0.71930  0.50680  0.46480  Biso   1.000  C
  C47      1.0000 0.28070  0.00680  0.03520  Biso   1.000  C
  C48      1.0000 0.21930  0.99320  0.53520  Biso   1.000  C
  H41      1.0000 0.23467  0.43750  0.07434  Biso   1.000  H
  H42      1.0000 0.26533  0.56250  0.57434  Biso   1.000  H
  H43      1.0000 0.73467  0.06250  0.92566  Biso   1.000  H
  H44      1.0000 0.76533  0.93750  0.42566  Biso   1.000  H
  H45      1.0000 0.76533  0.56250  0.92566  Biso   1.000  H
  H46      1.0000 0.73467  0.43750  0.42566  Biso   1.000  H
  H47      1.0000 0.26533  0.93750  0.07434  Biso   1.000  H
  H48      1.0000 0.23467  0.06250  0.57434  Biso   1.000  H
  H49      1.0000 0.20081  0.45303  0.99053  Biso   1.000  H
  H50      1.0000 0.29919  0.54697  0.49053  Biso   1.000  H
  H51      1.0000 0.70081  0.04697  0.00947  Biso   1.000  H
  H52      1.0000 0.79919  0.95303  0.50947  Biso   1.000  H
  H53      1.0000 0.79919  0.54697  0.00947  Biso   1.000  H
  H54      1.0000 0.70081  0.45303  0.50947  Biso   1.000  H
  H55      1.0000 0.29919  0.95303  0.99053  Biso   1.000  H
  H56      1.0000 0.20081  0.04697  0.49053  Biso   1.000  H
  C49      1.0000 0.01280  0.84200  0.86513  Biso   1.000  C
  C50      1.0000 0.48720  0.15800  0.36513  Biso   1.000  C
  C51      1.0000 0.51280  0.65800  0.13487  Biso   1.000  C
  C52      1.0000 0.98720  0.34200  0.63487  Biso   1.000  C
  C53      1.0000 0.98720  0.15800  0.13487  Biso   1.000  C
  C54      1.0000 0.51280  0.84200  0.63487  Biso   1.000  C
  C55      1.0000 0.48720  0.34200  0.86513  Biso   1.000  C
  C56      1.0000 0.01280  0.65800  0.36513  Biso   1.000  C
  C57      1.0000 0.08540  0.77910  0.81139  Biso   1.000  C
  C58      1.0000 0.41460  0.22090  0.31139  Biso   1.000  C
  C59      1.0000 0.58540  0.72090  0.18861  Biso   1.000  C
  C60      1.0000 0.91460  0.27910  0.68861  Biso   1.000  C
  C61      1.0000 0.91460  0.22090  0.18861  Biso   1.000  C
  C62      1.0000 0.58540  0.77910  0.68861  Biso   1.000  C
  C63      1.0000 0.41460  0.27910  0.81139  Biso   1.000  C
  C64      1.0000 0.08540  0.72090  0.31139  Biso   1.000  C
  C65      1.0000 0.18800  0.80760  0.79826  Biso   1.000  C
  C66      1.0000 0.31200  0.19240  0.29826  Biso   1.000  C
  C67      1.0000 0.68800  0.69240  0.20174  Biso   1.000  C
  C68      1.0000 0.81200  0.30760  0.70174  Biso   1.000  C
  C69      1.0000 0.81200  0.19240  0.20174  Biso   1.000  C
  C70      1.0000 0.68800  0.80760  0.70174  Biso   1.000  C
  C71      1.0000 0.31200  0.30760  0.79826  Biso   1.000  C
  C72      1.0000 0.18800  0.69240  0.29826  Biso   1.000  C
  H57      1.0000 0.23049  0.87710  0.82192  Biso   1.000  H
  H58      1.0000 0.26951  0.12290  0.32192  Biso   1.000  H
  H59      1.0000 0.73049  0.62290  0.17808  Biso   1.000  H
  H60      1.0000 0.76951  0.37710  0.67808  Biso   1.000  H
  H61      1.0000 0.76951  0.12290  0.17808  Biso   1.000  H
  H62      1.0000 0.73049  0.87710  0.67808  Biso   1.000  H
  H63      1.0000 0.26951  0.37710  0.82192  Biso   1.000  H
  H64      1.0000 0.23049  0.62290  0.32192  Biso   1.000  H
  C73      1.0000 0.22100  0.71460  0.74260  Biso   1.000  C
  C74      1.0000 0.27900  0.28540  0.24260  Biso   1.000  C
  C75      1.0000 0.72100  0.78540  0.25740  Biso   1.000  C
  C76      1.0000 0.77900  0.21460  0.75740  Biso   1.000  C
  C77      1.0000 0.77900  0.28540  0.25740  Biso   1.000  C
  C78      1.0000 0.72100  0.71460  0.75740  Biso   1.000  C
  C79      1.0000 0.27900  0.21460  0.74260  Biso   1.000  C
  C80      1.0000 0.22100  0.78540  0.24260  Biso   1.000  C
  H65      1.0000 0.28974  0.71016  0.72100  Biso   1.000  H
  H66      1.0000 0.21026  0.28984  0.22100  Biso   1.000  H
  H67      1.0000 0.78974  0.78984  0.27900  Biso   1.000  H
  H68      1.0000 0.71026  0.21016  0.77900  Biso   1.000  H
  H69      1.0000 0.71026  0.28984  0.27900  Biso   1.000  H
  H70      1.0000 0.78974  0.71016  0.77900  Biso   1.000  H
  H71      1.0000 0.21026  0.21016  0.72100  Biso   1.000  H
  H72      1.0000 0.28974  0.78984  0.22100  Biso   1.000  H
  C81      1.0000 0.13790  0.63450  0.72623  Biso   1.000  C
  C82      1.0000 0.36210  0.36550  0.22623  Biso   1.000  C
  C83      1.0000 0.63790  0.86550  0.27377  Biso   1.000  C
  C84      1.0000 0.86210  0.13450  0.77377  Biso   1.000  C
  C85      1.0000 0.86210  0.36550  0.27377  Biso   1.000  C
  C86      1.0000 0.63790  0.63450  0.77377  Biso   1.000  C
  C87      1.0000 0.36210  0.13450  0.72623  Biso   1.000  C
  C88      1.0000 0.13790  0.86550  0.22623  Biso   1.000  C
  H73      1.0000 0.13785  0.56144  0.69059  Biso   1.000  H
  H74      1.0000 0.36215  0.43856  0.19059  Biso   1.000  H
  H75      1.0000 0.63785  0.93856  0.30941  Biso   1.000  H
  H76      1.0000 0.86215  0.06144  0.80941  Biso   1.000  H
  H77      1.0000 0.86215  0.43856  0.30941  Biso   1.000  H
  H78      1.0000 0.63785  0.56144  0.80941  Biso   1.000  H
  H79      1.0000 0.36215  0.06144  0.69059  Biso   1.000  H
  H80      1.0000 0.13785  0.93856  0.19059  Biso   1.000  H
