data_image0
_cell_length_a       6.769
_cell_length_b       14.56
_cell_length_c       12.727
_cell_angle_alpha    90
_cell_angle_beta     109.557
_cell_angle_gamma    90

_symmetry_space_group_name_H-M    "P 1"
_symmetry_int_tables_number       1

loop_
  _symmetry_equiv_pos_as_xyz
  'x, y, z'

loop_
  _atom_site_label
  _atom_site_occupancy
  _atom_site_fract_x
  _atom_site_fract_y
  _atom_site_fract_z
  _atom_site_thermal_displace_type
  _atom_site_B_iso_or_equiv
  _atom_site_type_symbol
  Cu1      1.0000 0.00000  0.00000  0.00000  Biso   1.000  Cu
  Cu2      1.0000 0.00000  0.50000  0.50000  Biso   1.000  Cu
  O1       1.0000 0.94461  0.99963  0.14200  Biso   1.000  O
  O2       1.0000 0.05539  0.49963  0.35800  Biso   1.000  O
  O3       1.0000 0.05539  0.00037  0.85800  Biso   1.000  O
  O4       1.0000 0.94461  0.50037  0.64200  Biso   1.000  O
  O5       1.0000 0.16020  0.10884  0.24155  Biso   1.000  O
  O6       1.0000 0.83980  0.60884  0.25845  Biso   1.000  O
  O7       1.0000 0.83980  0.89116  0.75845  Biso   1.000  O
  O8       1.0000 0.16020  0.39116  0.74155  Biso   1.000  O
  O9       1.0000 0.29090  0.11092  0.06506  Biso   1.000  O
  O10      1.0000 0.70910  0.61092  0.43494  Biso   1.000  O
  O11      1.0000 0.70910  0.88908  0.93494  Biso   1.000  O
  O12      1.0000 0.29090  0.38908  0.56506  Biso   1.000  O
  H1       1.0000 0.25760  0.12410  0.12120  Biso   1.000  H
  H2       1.0000 0.74240  0.62410  0.37880  Biso   1.000  H
  H3       1.0000 0.74240  0.87590  0.87880  Biso   1.000  H
  H4       1.0000 0.25760  0.37590  0.62120  Biso   1.000  H
  O13      1.0000 0.95565  0.10341  0.39534  Biso   1.000  O
  O14      1.0000 0.04435  0.60341  0.10466  Biso   1.000  O
  O15      1.0000 0.04435  0.89659  0.60466  Biso   1.000  O
  O16      1.0000 0.95565  0.39659  0.89534  Biso   1.000  O
  O17      1.0000 0.98140  0.19171  0.57979  Biso   1.000  O
  O18      1.0000 0.01860  0.69171  0.92021  Biso   1.000  O
  O19      1.0000 0.01860  0.80829  0.42021  Biso   1.000  O
  O20      1.0000 0.98140  0.30829  0.07979  Biso   1.000  O
  O21      1.0000 0.71320  0.11868  0.59454  Biso   1.000  O
  O22      1.0000 0.28680  0.61868  0.90546  Biso   1.000  O
  O23      1.0000 0.28680  0.88132  0.40546  Biso   1.000  O
  O24      1.0000 0.71320  0.38132  0.09454  Biso   1.000  O
  N1       1.0000 0.77600  0.09805  0.94019  Biso   1.000  N
  N2       1.0000 0.22400  0.59805  0.55981  Biso   1.000  N
  N3       1.0000 0.22400  0.90195  0.05981  Biso   1.000  N
  N4       1.0000 0.77600  0.40195  0.44019  Biso   1.000  N
  N5       1.0000 0.84090  0.13565  0.54755  Biso   1.000  N
  N6       1.0000 0.15910  0.63565  0.95245  Biso   1.000  N
  N7       1.0000 0.15910  0.86435  0.45245  Biso   1.000  N
  N8       1.0000 0.84090  0.36435  0.04755  Biso   1.000  N
  C1       1.0000 0.62660  0.11095  0.98710  Biso   1.000  C
  C2       1.0000 0.37340  0.61095  0.51290  Biso   1.000  C
  C3       1.0000 0.37340  0.88905  0.01290  Biso   1.000  C
  C4       1.0000 0.62660  0.38905  0.48710  Biso   1.000  C
  H5       1.0000 0.62580  0.07210  0.04690  Biso   1.000  H
  H6       1.0000 0.37420  0.57210  0.45310  Biso   1.000  H
  H7       1.0000 0.37420  0.92790  0.95310  Biso   1.000  H
  H8       1.0000 0.62580  0.42790  0.54690  Biso   1.000  H
  C5       1.0000 0.47410  0.17813  0.95214  Biso   1.000  C
  C6       1.0000 0.52590  0.67813  0.54786  Biso   1.000  C
  C7       1.0000 0.52590  0.82187  0.04786  Biso   1.000  C
  C8       1.0000 0.47410  0.32187  0.45214  Biso   1.000  C
  C9       1.0000 0.47420  0.23406  0.86360  Biso   1.000  C
  C10      1.0000 0.52580  0.73406  0.63640  Biso   1.000  C
  C11      1.0000 0.52580  0.76594  0.13640  Biso   1.000  C
  C12      1.0000 0.47420  0.26594  0.36360  Biso   1.000  C
  H9       1.0000 0.37150  0.28080  0.83730  Biso   1.000  H
  H10      1.0000 0.62850  0.78080  0.66270  Biso   1.000  H
  H11      1.0000 0.62850  0.71920  0.16270  Biso   1.000  H
  H12      1.0000 0.37150  0.21920  0.33730  Biso   1.000  H
  C13      1.0000 0.62600  0.22056  0.81453  Biso   1.000  C
  C14      1.0000 0.37400  0.72056  0.68547  Biso   1.000  C
  C15      1.0000 0.37400  0.77944  0.18547  Biso   1.000  C
  C16      1.0000 0.62600  0.27944  0.31453  Biso   1.000  C
  H13      1.0000 0.62860  0.25800  0.75390  Biso   1.000  H
  H14      1.0000 0.37140  0.75800  0.74610  Biso   1.000  H
  H15      1.0000 0.37140  0.74200  0.24610  Biso   1.000  H
  H16      1.0000 0.62860  0.24200  0.25390  Biso   1.000  H
  C17      1.0000 0.77430  0.15245  0.85459  Biso   1.000  C
  C18      1.0000 0.22570  0.65245  0.64541  Biso   1.000  C
  C19      1.0000 0.22570  0.84755  0.14541  Biso   1.000  C
  C20      1.0000 0.77430  0.34755  0.35459  Biso   1.000  C
  H17      1.0000 0.87840  0.14360  0.82080  Biso   1.000  H
  H18      1.0000 0.12160  0.64360  0.67920  Biso   1.000  H
  H19      1.0000 0.12160  0.85640  0.17920  Biso   1.000  H
  H20      1.0000 0.87840  0.35640  0.32080  Biso   1.000  H
  C21      1.0000 0.31580  0.19257  0.01071  Biso   1.000  C
  C22      1.0000 0.68420  0.69257  0.48929  Biso   1.000  C
  C23      1.0000 0.68420  0.80743  0.98929  Biso   1.000  C
  C24      1.0000 0.31580  0.30743  0.51071  Biso   1.000  C
  H21      1.0000 0.36410  0.24260  0.06610  Biso   1.000  H
  H22      1.0000 0.63590  0.74260  0.43390  Biso   1.000  H
  H23      1.0000 0.63590  0.75740  0.93390  Biso   1.000  H
  H24      1.0000 0.36410  0.25740  0.56610  Biso   1.000  H
  H25      1.0000 0.17930  0.21090  0.95590  Biso   1.000  H
  H26      1.0000 0.82070  0.71090  0.54410  Biso   1.000  H
  H27      1.0000 0.82070  0.78910  0.04410  Biso   1.000  H
  H28      1.0000 0.17930  0.28910  0.45590  Biso   1.000  H
  C25      1.0000 0.01430  0.05434  0.22361  Biso   1.000  C
  C26      1.0000 0.98570  0.55434  0.27639  Biso   1.000  C
  C27      1.0000 0.98570  0.94566  0.77639  Biso   1.000  C
  C28      1.0000 0.01430  0.44566  0.72361  Biso   1.000  C
  C29      1.0000 0.89470  0.04844  0.30277  Biso   1.000  C
  C30      1.0000 0.10530  0.54844  0.19723  Biso   1.000  C
  C31      1.0000 0.10530  0.95156  0.69723  Biso   1.000  C
  C32      1.0000 0.89470  0.45156  0.80277  Biso   1.000  C
  C33      1.0000 0.72380  0.99843  0.29912  Biso   1.000  C
  C34      1.0000 0.27620  0.49843  0.20088  Biso   1.000  C
  C35      1.0000 0.27620  0.00157  0.70088  Biso   1.000  C
  C36      1.0000 0.72380  0.50157  0.79912  Biso   1.000  C
  H29      1.0000 0.65230  0.95540  0.24320  Biso   1.000  H
  H30      1.0000 0.34770  0.45540  0.25680  Biso   1.000  H
  H31      1.0000 0.34770  0.04460  0.75680  Biso   1.000  H
  H32      1.0000 0.65230  0.54460  0.74320  Biso   1.000  H
  C37      1.0000 0.67120  0.02297  0.39417  Biso   1.000  C
  C38      1.0000 0.32880  0.52297  0.10583  Biso   1.000  C
  C39      1.0000 0.32880  0.97703  0.60583  Biso   1.000  C
  C40      1.0000 0.67120  0.47703  0.89417  Biso   1.000  C
  H33      1.0000 0.55870  0.00010  0.41550  Biso   1.000  H
  H34      1.0000 0.44130  0.50010  0.08450  Biso   1.000  H
  H35      1.0000 0.44130  0.99990  0.58450  Biso   1.000  H
  H36      1.0000 0.55870  0.49990  0.91550  Biso   1.000  H
  C41      1.0000 0.81690  0.08527  0.44792  Biso   1.000  C
  C42      1.0000 0.18310  0.58527  0.05208  Biso   1.000  C
  C43      1.0000 0.18310  0.91473  0.55208  Biso   1.000  C
  C44      1.0000 0.81690  0.41473  0.94792  Biso   1.000  C
