data_image0
_cell_length_a       11.061
_cell_length_b       9.157
_cell_length_c       13.601
_cell_angle_alpha    90
_cell_angle_beta     107.74
_cell_angle_gamma    90

_symmetry_space_group_name_H-M    "P 1"
_symmetry_int_tables_number       1

loop_
  _symmetry_equiv_pos_as_xyz
  'x, y, z'

loop_
  _atom_site_label
  _atom_site_occupancy
  _atom_site_fract_x
  _atom_site_fract_y
  _atom_site_fract_z
  _atom_site_thermal_displace_type
  _atom_site_B_iso_or_equiv
  _atom_site_type_symbol
  Cu1      1.0000 0.00000  0.00000  0.00000  Biso   1.000  Cu
  Cu2      1.0000 0.00000  0.50000  0.50000  Biso   1.000  Cu
  O1       1.0000 0.16842  0.92435  0.02033  Biso   1.000  O
  O2       1.0000 0.83158  0.42435  0.47967  Biso   1.000  O
  O3       1.0000 0.83158  0.07565  0.97967  Biso   1.000  O
  O4       1.0000 0.16842  0.57565  0.52033  Biso   1.000  O
  O5       1.0000 0.20697  0.82232  0.17552  Biso   1.000  O
  O6       1.0000 0.79303  0.32232  0.32448  Biso   1.000  O
  O7       1.0000 0.79303  0.17768  0.82448  Biso   1.000  O
  O8       1.0000 0.20697  0.67768  0.67552  Biso   1.000  O
  O9       1.0000 0.01742  0.41784  0.31557  Biso   1.000  O
  O10      1.0000 0.98258  0.91784  0.18443  Biso   1.000  O
  O11      1.0000 0.98258  0.58216  0.68443  Biso   1.000  O
  O12      1.0000 0.01742  0.08216  0.81557  Biso   1.000  O
  H1       1.0000 0.94376  0.38589  0.30715  Biso   1.000  H
  H2       1.0000 0.05624  0.88589  0.19285  Biso   1.000  H
  H3       1.0000 0.05624  0.61411  0.69285  Biso   1.000  H
  H4       1.0000 0.94376  0.11411  0.80715  Biso   1.000  H
  O13      1.0000 0.52033  0.75000  0.02955  Biso   1.000  O
  O14      1.0000 0.47967  0.25000  0.47045  Biso   1.000  O
  O15      1.0000 0.47967  0.25000  0.97045  Biso   1.000  O
  O16      1.0000 0.52033  0.75000  0.52955  Biso   1.000  O
  N1       1.0000 0.07537  0.19565  0.05467  Biso   1.000  N
  N2       1.0000 0.92463  0.69565  0.44533  Biso   1.000  N
  N3       1.0000 0.92463  0.80435  0.94533  Biso   1.000  N
  N4       1.0000 0.07537  0.30435  0.55467  Biso   1.000  N
  C1       1.0000 0.02151  0.27770  0.11059  Biso   1.000  C
  C2       1.0000 0.97849  0.77770  0.38941  Biso   1.000  C
  C3       1.0000 0.97849  0.72230  0.88941  Biso   1.000  C
  C4       1.0000 0.02151  0.22230  0.61059  Biso   1.000  C
  H5       1.0000 0.94390  0.24499  0.11925  Biso   1.000  H
  H6       1.0000 0.05610  0.74499  0.38075  Biso   1.000  H
  H7       1.0000 0.05610  0.75501  0.88075  Biso   1.000  H
  H8       1.0000 0.94390  0.25501  0.61925  Biso   1.000  H
  C5       1.0000 0.07200  0.40760  0.15669  Biso   1.000  C
  C6       1.0000 0.92800  0.90760  0.34331  Biso   1.000  C
  C7       1.0000 0.92800  0.59240  0.84331  Biso   1.000  C
  C8       1.0000 0.07200  0.09240  0.65669  Biso   1.000  C
  C9       1.0000 0.18360  0.45500  0.14160  Biso   1.000  C
  C10      1.0000 0.81640  0.95500  0.35840  Biso   1.000  C
  C11      1.0000 0.81640  0.54500  0.85840  Biso   1.000  C
  C12      1.0000 0.18360  0.04500  0.64160  Biso   1.000  C
  H9       1.0000 0.22145  0.54413  0.17140  Biso   1.000  H
  H10      1.0000 0.77855  0.04413  0.32860  Biso   1.000  H
  H11      1.0000 0.77855  0.45587  0.82860  Biso   1.000  H
  H12      1.0000 0.22145  0.95587  0.67140  Biso   1.000  H
  C13      1.0000 0.23950  0.37190  0.08300  Biso   1.000  C
  C14      1.0000 0.76050  0.87190  0.41700  Biso   1.000  C
  C15      1.0000 0.76050  0.62810  0.91700  Biso   1.000  C
  C16      1.0000 0.23950  0.12810  0.58300  Biso   1.000  C
  H13      1.0000 0.31587  0.40358  0.07145  Biso   1.000  H
  H14      1.0000 0.68413  0.90358  0.42855  Biso   1.000  H
  H15      1.0000 0.68413  0.59642  0.92855  Biso   1.000  H
  H16      1.0000 0.31587  0.09642  0.57145  Biso   1.000  H
  C17      1.0000 0.18370  0.24310  0.04148  Biso   1.000  C
  C18      1.0000 0.81630  0.74310  0.45852  Biso   1.000  C
  C19      1.0000 0.81630  0.75690  0.95852  Biso   1.000  C
  C20      1.0000 0.18370  0.25690  0.54148  Biso   1.000  C
  H17      1.0000 0.22341  0.18549  0.00201  Biso   1.000  H
  H18      1.0000 0.77659  0.68549  0.49799  Biso   1.000  H
  H19      1.0000 0.77659  0.81451  0.99799  Biso   1.000  H
  H20      1.0000 0.22341  0.31451  0.50201  Biso   1.000  H
  C21      1.0000 0.00800  0.49110  0.22234  Biso   1.000  C
  C22      1.0000 0.99200  0.99110  0.27766  Biso   1.000  C
  C23      1.0000 0.99200  0.50890  0.77766  Biso   1.000  C
  C24      1.0000 0.00800  0.00890  0.72234  Biso   1.000  C
  H21      1.0000 0.04757  0.58874  0.23800  Biso   1.000  H
  H22      1.0000 0.95243  0.08874  0.26200  Biso   1.000  H
  H23      1.0000 0.95243  0.41126  0.76200  Biso   1.000  H
  H24      1.0000 0.04757  0.91126  0.73800  Biso   1.000  H
  H25      1.0000 0.91733  0.50505  0.18325  Biso   1.000  H
  H26      1.0000 0.08267  0.00505  0.31675  Biso   1.000  H
  H27      1.0000 0.08267  0.49495  0.81675  Biso   1.000  H
  H28      1.0000 0.91733  0.99495  0.68325  Biso   1.000  H
  C25      1.0000 0.23614  0.85250  0.09737  Biso   1.000  C
  C26      1.0000 0.76386  0.35250  0.40263  Biso   1.000  C
  C27      1.0000 0.76386  0.14750  0.90263  Biso   1.000  C
  C28      1.0000 0.23614  0.64750  0.59737  Biso   1.000  C
  C29      1.0000 0.40420  0.81590  0.00761  Biso   1.000  C
  C30      1.0000 0.59580  0.31590  0.49239  Biso   1.000  C
  C31      1.0000 0.59580  0.18410  0.99239  Biso   1.000  C
  C32      1.0000 0.40420  0.68410  0.50761  Biso   1.000  C
  C33      1.0000 0.35969  0.80180  0.08872  Biso   1.000  C
  C34      1.0000 0.64031  0.30180  0.41128  Biso   1.000  C
  C35      1.0000 0.64031  0.19820  0.91128  Biso   1.000  C
  C36      1.0000 0.35969  0.69820  0.58872  Biso   1.000  C
  C37      1.0000 0.45410  0.72370  0.16660  Biso   1.000  C
  C38      1.0000 0.54590  0.22370  0.33340  Biso   1.000  C
  C39      1.0000 0.54590  0.27630  0.83340  Biso   1.000  C
  C40      1.0000 0.45410  0.77630  0.66660  Biso   1.000  C
  H29      1.0000 0.44999  0.69749  0.23309  Biso   1.000  H
  H30      1.0000 0.55001  0.19749  0.26691  Biso   1.000  H
  H31      1.0000 0.55001  0.30251  0.76691  Biso   1.000  H
  H32      1.0000 0.44999  0.80251  0.73309  Biso   1.000  H
  C41      1.0000 0.54890  0.69480  0.12830  Biso   1.000  C
  C42      1.0000 0.45110  0.19480  0.37170  Biso   1.000  C
  C43      1.0000 0.45110  0.30520  0.87170  Biso   1.000  C
  C44      1.0000 0.54890  0.80520  0.62830  Biso   1.000  C
  C45      1.0000 0.35690  0.88410  0.90391  Biso   1.000  C
  C46      1.0000 0.64310  0.38410  0.59609  Biso   1.000  C
  C47      1.0000 0.64310  0.11590  0.09609  Biso   1.000  C
  C48      1.0000 0.35690  0.61590  0.40391  Biso   1.000  C
  H33      1.0000 0.32515  0.80805  0.85174  Biso   1.000  H
  H34      1.0000 0.67485  0.30805  0.64826  Biso   1.000  H
  H35      1.0000 0.67485  0.19195  0.14826  Biso   1.000  H
  H36      1.0000 0.32515  0.69195  0.35174  Biso   1.000  H
  H37      1.0000 0.42624  0.93722  0.88905  Biso   1.000  H
  H38      1.0000 0.57376  0.43722  0.61095  Biso   1.000  H
  H39      1.0000 0.57376  0.06278  0.11095  Biso   1.000  H
  H40      1.0000 0.42624  0.56278  0.38905  Biso   1.000  H
  H41      1.0000 0.28799  0.95221  0.90249  Biso   1.000  H
  H42      1.0000 0.71201  0.45221  0.59751  Biso   1.000  H
  H43      1.0000 0.71201  0.04779  0.09751  Biso   1.000  H
  H44      1.0000 0.28799  0.54779  0.40249  Biso   1.000  H
  C49      1.0000 0.67330  0.61800  0.16800  Biso   1.000  C
  C50      1.0000 0.32670  0.11800  0.33200  Biso   1.000  C
  C51      1.0000 0.32670  0.38200  0.83200  Biso   1.000  C
  C52      1.0000 0.67330  0.88200  0.66800  Biso   1.000  C
  H45      1.0000 0.68861  0.59257  0.24080  Biso   1.000  H
  H46      1.0000 0.31139  0.09257  0.25920  Biso   1.000  H
  H47      1.0000 0.31139  0.40743  0.75920  Biso   1.000  H
  H48      1.0000 0.68861  0.90743  0.74080  Biso   1.000  H
  H49      1.0000 0.74134  0.68214  0.16146  Biso   1.000  H
  H50      1.0000 0.25866  0.18214  0.33854  Biso   1.000  H
  H51      1.0000 0.25866  0.31786  0.83854  Biso   1.000  H
  H52      1.0000 0.74134  0.81786  0.66146  Biso   1.000  H
  H53      1.0000 0.67170  0.52873  0.12787  Biso   1.000  H
  H54      1.0000 0.32830  0.02873  0.37213  Biso   1.000  H
  H55      1.0000 0.32830  0.47127  0.87213  Biso   1.000  H
  H56      1.0000 0.67170  0.97127  0.62787  Biso   1.000  H
