data_image0
_cell_length_a       12.575
_cell_length_b       9.324
_cell_length_c       18.841
_cell_angle_alpha    90
_cell_angle_beta     90
_cell_angle_gamma    90

_symmetry_space_group_name_H-M    "P 1"
_symmetry_int_tables_number       1

loop_
  _symmetry_equiv_pos_as_xyz
  'x, y, z'

loop_
  _atom_site_label
  _atom_site_occupancy
  _atom_site_fract_x
  _atom_site_fract_y
  _atom_site_fract_z
  _atom_site_thermal_displace_type
  _atom_site_B_iso_or_equiv
  _atom_site_type_symbol
  Cu1      1.0000 0.00000  0.00000  0.00000  Biso   1.000  Cu
  Cu2      1.0000 0.50000  0.00000  0.50000  Biso   1.000  Cu
  Cu3      1.0000 0.50000  0.50000  0.00000  Biso   1.000  Cu
  Cu4      1.0000 0.00000  0.50000  0.50000  Biso   1.000  Cu
  O1       1.0000 0.05554  0.93566  0.90853  Biso   1.000  O
  O2       1.0000 0.44446  0.06434  0.40853  Biso   1.000  O
  O3       1.0000 0.55554  0.56434  0.09147  Biso   1.000  O
  O4       1.0000 0.94446  0.43566  0.59147  Biso   1.000  O
  O5       1.0000 0.94446  0.06434  0.09147  Biso   1.000  O
  O6       1.0000 0.55554  0.93566  0.59147  Biso   1.000  O
  O7       1.0000 0.44446  0.43566  0.90853  Biso   1.000  O
  O8       1.0000 0.05554  0.56434  0.40853  Biso   1.000  O
  O9       1.0000 0.91800  0.80408  0.87037  Biso   1.000  O
  O10      1.0000 0.58200  0.19592  0.37037  Biso   1.000  O
  O11      1.0000 0.41800  0.69592  0.12963  Biso   1.000  O
  O12      1.0000 0.08200  0.30408  0.62963  Biso   1.000  O
  O13      1.0000 0.08200  0.19592  0.12963  Biso   1.000  O
  O14      1.0000 0.41800  0.80408  0.62963  Biso   1.000  O
  O15      1.0000 0.58200  0.30408  0.87037  Biso   1.000  O
  O16      1.0000 0.91800  0.69592  0.37037  Biso   1.000  O
  O17      1.0000 0.31058  0.58698  0.02116  Biso   1.000  O
  O18      1.0000 0.18942  0.41302  0.52116  Biso   1.000  O
  O19      1.0000 0.81058  0.91302  0.97884  Biso   1.000  O
  O20      1.0000 0.68942  0.08698  0.47884  Biso   1.000  O
  O21      1.0000 0.68942  0.41302  0.97884  Biso   1.000  O
  O22      1.0000 0.81058  0.58698  0.47884  Biso   1.000  O
  O23      1.0000 0.18942  0.08698  0.02116  Biso   1.000  O
  O24      1.0000 0.31058  0.91302  0.52116  Biso   1.000  O
  H1       1.0000 0.33712  0.62474  0.05756  Biso   1.000  H
  H2       1.0000 0.16288  0.37526  0.55756  Biso   1.000  H
  H3       1.0000 0.83712  0.87526  0.94244  Biso   1.000  H
  H4       1.0000 0.66288  0.12474  0.44244  Biso   1.000  H
  H5       1.0000 0.66288  0.37526  0.94244  Biso   1.000  H
  H6       1.0000 0.83712  0.62474  0.44244  Biso   1.000  H
  H7       1.0000 0.16288  0.12474  0.05756  Biso   1.000  H
  H8       1.0000 0.33712  0.87526  0.55756  Biso   1.000  H
  N1       1.0000 0.01933  0.80210  0.04106  Biso   1.000  N
  N2       1.0000 0.48067  0.19790  0.54106  Biso   1.000  N
  N3       1.0000 0.51933  0.69790  0.95894  Biso   1.000  N
  N4       1.0000 0.98067  0.30210  0.45894  Biso   1.000  N
  N5       1.0000 0.98067  0.19790  0.95894  Biso   1.000  N
  N6       1.0000 0.51933  0.80210  0.45894  Biso   1.000  N
  N7       1.0000 0.48067  0.30210  0.04106  Biso   1.000  N
  N8       1.0000 0.01933  0.69790  0.54106  Biso   1.000  N
  O25      1.0000 0.13677  0.67620  0.71190  Biso   1.000  O
  O26      1.0000 0.36323  0.32380  0.21190  Biso   1.000  O
  O27      1.0000 0.63677  0.82380  0.28810  Biso   1.000  O
  O28      1.0000 0.86323  0.17620  0.78810  Biso   1.000  O
  O29      1.0000 0.86323  0.32380  0.28810  Biso   1.000  O
  O30      1.0000 0.63677  0.67620  0.78810  Biso   1.000  O
  O31      1.0000 0.36323  0.17620  0.71190  Biso   1.000  O
  O32      1.0000 0.13677  0.82380  0.21190  Biso   1.000  O
  C1       1.0000 0.10549  0.72220  0.02631  Biso   1.000  C
  C2       1.0000 0.39451  0.27780  0.52631  Biso   1.000  C
  C3       1.0000 0.60549  0.77780  0.97369  Biso   1.000  C
  C4       1.0000 0.89451  0.22220  0.47369  Biso   1.000  C
  C5       1.0000 0.89451  0.27780  0.97369  Biso   1.000  C
  C6       1.0000 0.60549  0.72220  0.47369  Biso   1.000  C
  C7       1.0000 0.39451  0.22220  0.02631  Biso   1.000  C
  C8       1.0000 0.10549  0.77780  0.52631  Biso   1.000  C
  H9       1.0000 0.15589  0.75805  0.99320  Biso   1.000  H
  H10      1.0000 0.34411  0.24195  0.49320  Biso   1.000  H
  H11      1.0000 0.65589  0.74195  0.00680  Biso   1.000  H
  H12      1.0000 0.84411  0.25805  0.50680  Biso   1.000  H
  H13      1.0000 0.84411  0.24195  0.00680  Biso   1.000  H
  H14      1.0000 0.65589  0.75805  0.50680  Biso   1.000  H
  H15      1.0000 0.34411  0.25805  0.99320  Biso   1.000  H
  H16      1.0000 0.15589  0.74195  0.49320  Biso   1.000  H
  C9       1.0000 0.12401  0.58910  0.05748  Biso   1.000  C
  C10      1.0000 0.37599  0.41090  0.55748  Biso   1.000  C
  C11      1.0000 0.62401  0.91090  0.94252  Biso   1.000  C
  C12      1.0000 0.87599  0.08910  0.44252  Biso   1.000  C
  C13      1.0000 0.87599  0.41090  0.94252  Biso   1.000  C
  C14      1.0000 0.62401  0.58910  0.44252  Biso   1.000  C
  C15      1.0000 0.37599  0.08910  0.05748  Biso   1.000  C
  C16      1.0000 0.12401  0.91090  0.55748  Biso   1.000  C
  C17      1.0000 0.04860  0.53750  0.10413  Biso   1.000  C
  C18      1.0000 0.45140  0.46250  0.60413  Biso   1.000  C
  C19      1.0000 0.54860  0.96250  0.89587  Biso   1.000  C
  C20      1.0000 0.95140  0.03750  0.39587  Biso   1.000  C
  C21      1.0000 0.95140  0.46250  0.89587  Biso   1.000  C
  C22      1.0000 0.54860  0.53750  0.39587  Biso   1.000  C
  C23      1.0000 0.45140  0.03750  0.10413  Biso   1.000  C
  C24      1.0000 0.04860  0.96250  0.60413  Biso   1.000  C
  H17      1.0000 0.05814  0.44677  0.12619  Biso   1.000  H
  H18      1.0000 0.44186  0.55323  0.62619  Biso   1.000  H
  H19      1.0000 0.55814  0.05323  0.87381  Biso   1.000  H
  H20      1.0000 0.94186  0.94677  0.37381  Biso   1.000  H
  H21      1.0000 0.94186  0.55323  0.87381  Biso   1.000  H
  H22      1.0000 0.55814  0.44677  0.37381  Biso   1.000  H
  H23      1.0000 0.44186  0.94677  0.12619  Biso   1.000  H
  H24      1.0000 0.05814  0.05323  0.62619  Biso   1.000  H
  C25      1.0000 0.95950  0.61780  0.11856  Biso   1.000  C
  C26      1.0000 0.54050  0.38220  0.61856  Biso   1.000  C
  C27      1.0000 0.45950  0.88220  0.88144  Biso   1.000  C
  C28      1.0000 0.04050  0.11780  0.38144  Biso   1.000  C
  C29      1.0000 0.04050  0.38220  0.88144  Biso   1.000  C
  C30      1.0000 0.45950  0.61780  0.38144  Biso   1.000  C
  C31      1.0000 0.54050  0.11780  0.11856  Biso   1.000  C
  C32      1.0000 0.95950  0.88220  0.61856  Biso   1.000  C
  H25      1.0000 0.90666  0.58240  0.15006  Biso   1.000  H
  H26      1.0000 0.59334  0.41760  0.65006  Biso   1.000  H
  H27      1.0000 0.40666  0.91760  0.84994  Biso   1.000  H
  H28      1.0000 0.09334  0.08240  0.34994  Biso   1.000  H
  H29      1.0000 0.09334  0.41760  0.84994  Biso   1.000  H
  H30      1.0000 0.40666  0.58240  0.34994  Biso   1.000  H
  H31      1.0000 0.59334  0.08240  0.15006  Biso   1.000  H
  H32      1.0000 0.90666  0.91760  0.65006  Biso   1.000  H
  C33      1.0000 0.94750  0.75020  0.08685  Biso   1.000  C
  C34      1.0000 0.55250  0.24980  0.58685  Biso   1.000  C
  C35      1.0000 0.44750  0.74980  0.91315  Biso   1.000  C
  C36      1.0000 0.05250  0.25020  0.41315  Biso   1.000  C
  C37      1.0000 0.05250  0.24980  0.91315  Biso   1.000  C
  C38      1.0000 0.44750  0.75020  0.41315  Biso   1.000  C
  C39      1.0000 0.55250  0.25020  0.08685  Biso   1.000  C
  C40      1.0000 0.94750  0.74980  0.58685  Biso   1.000  C
  H33      1.0000 0.88657  0.80612  0.09783  Biso   1.000  H
  H34      1.0000 0.61343  0.19388  0.59783  Biso   1.000  H
  H35      1.0000 0.38657  0.69388  0.90217  Biso   1.000  H
  H36      1.0000 0.11343  0.30612  0.40217  Biso   1.000  H
  H37      1.0000 0.11343  0.19388  0.90217  Biso   1.000  H
  H38      1.0000 0.38657  0.80612  0.40217  Biso   1.000  H
  H39      1.0000 0.61343  0.30612  0.09783  Biso   1.000  H
  H40      1.0000 0.88657  0.69388  0.59783  Biso   1.000  H
  C41      1.0000 0.22190  0.50340  0.04066  Biso   1.000  C
  C42      1.0000 0.27810  0.49660  0.54066  Biso   1.000  C
  C43      1.0000 0.72190  0.99660  0.95934  Biso   1.000  C
  C44      1.0000 0.77810  0.00340  0.45934  Biso   1.000  C
  C45      1.0000 0.77810  0.49660  0.95934  Biso   1.000  C
  C46      1.0000 0.72190  0.50340  0.45934  Biso   1.000  C
  C47      1.0000 0.27810  0.00340  0.04066  Biso   1.000  C
  C48      1.0000 0.22190  0.99660  0.54066  Biso   1.000  C
  H41      1.0000 0.24092  0.44518  0.08273  Biso   1.000  H
  H42      1.0000 0.25908  0.55482  0.58273  Biso   1.000  H
  H43      1.0000 0.74092  0.05482  0.91727  Biso   1.000  H
  H44      1.0000 0.75908  0.94518  0.41727  Biso   1.000  H
  H45      1.0000 0.75908  0.55482  0.91727  Biso   1.000  H
  H46      1.0000 0.74092  0.44518  0.41727  Biso   1.000  H
  H47      1.0000 0.25908  0.94518  0.08273  Biso   1.000  H
  H48      1.0000 0.24092  0.05482  0.58273  Biso   1.000  H
  H49      1.0000 0.20533  0.43638  0.00142  Biso   1.000  H
  H50      1.0000 0.29467  0.56362  0.50142  Biso   1.000  H
  H51      1.0000 0.70533  0.06362  0.99858  Biso   1.000  H
  H52      1.0000 0.79467  0.93638  0.49858  Biso   1.000  H
  H53      1.0000 0.79467  0.56362  0.99858  Biso   1.000  H
  H54      1.0000 0.70533  0.43638  0.49858  Biso   1.000  H
  H55      1.0000 0.29467  0.93638  0.00142  Biso   1.000  H
  H56      1.0000 0.20533  0.06362  0.50142  Biso   1.000  H
  C49      1.0000 0.01041  0.85000  0.86540  Biso   1.000  C
  C50      1.0000 0.48959  0.15000  0.36540  Biso   1.000  C
  C51      1.0000 0.51041  0.65000  0.13460  Biso   1.000  C
  C52      1.0000 0.98959  0.35000  0.63460  Biso   1.000  C
  C53      1.0000 0.98959  0.15000  0.13460  Biso   1.000  C
  C54      1.0000 0.51041  0.85000  0.63460  Biso   1.000  C
  C55      1.0000 0.48959  0.35000  0.86540  Biso   1.000  C
  C56      1.0000 0.01041  0.65000  0.36540  Biso   1.000  C
  C57      1.0000 0.05540  0.69770  0.75839  Biso   1.000  C
  C58      1.0000 0.44460  0.30230  0.25839  Biso   1.000  C
  C59      1.0000 0.55540  0.80230  0.24161  Biso   1.000  C
  C60      1.0000 0.94460  0.19770  0.74161  Biso   1.000  C
  C61      1.0000 0.94460  0.30230  0.24161  Biso   1.000  C
  C62      1.0000 0.55540  0.69770  0.74161  Biso   1.000  C
  C63      1.0000 0.44460  0.19770  0.75839  Biso   1.000  C
  C64      1.0000 0.05540  0.80230  0.25839  Biso   1.000  C
  H57      1.0000 0.99042  0.64584  0.75750  Biso   1.000  H
  H58      1.0000 0.50958  0.35416  0.25750  Biso   1.000  H
  H59      1.0000 0.49042  0.85416  0.24250  Biso   1.000  H
  H60      1.0000 0.00958  0.14584  0.74250  Biso   1.000  H
  H61      1.0000 0.00958  0.35416  0.24250  Biso   1.000  H
  H62      1.0000 0.49042  0.64584  0.74250  Biso   1.000  H
  H63      1.0000 0.50958  0.14584  0.75750  Biso   1.000  H
  H64      1.0000 0.99042  0.85416  0.25750  Biso   1.000  H
  C65      1.0000 0.07818  0.80140  0.80581  Biso   1.000  C
  C66      1.0000 0.42182  0.19860  0.30581  Biso   1.000  C
  C67      1.0000 0.57818  0.69860  0.19419  Biso   1.000  C
  C68      1.0000 0.92182  0.30140  0.69419  Biso   1.000  C
  C69      1.0000 0.92182  0.19860  0.19419  Biso   1.000  C
  C70      1.0000 0.57818  0.80140  0.69419  Biso   1.000  C
  C71      1.0000 0.42182  0.30140  0.80581  Biso   1.000  C
  C72      1.0000 0.07818  0.69860  0.30581  Biso   1.000  C
  C73      1.0000 0.18110  0.85390  0.78741  Biso   1.000  C
  C74      1.0000 0.31890  0.14610  0.28741  Biso   1.000  C
  C75      1.0000 0.68110  0.64610  0.21259  Biso   1.000  C
  C76      1.0000 0.81890  0.35390  0.71259  Biso   1.000  C
  C77      1.0000 0.81890  0.14610  0.21259  Biso   1.000  C
  C78      1.0000 0.68110  0.85390  0.71259  Biso   1.000  C
  C79      1.0000 0.31890  0.35390  0.78741  Biso   1.000  C
  C80      1.0000 0.18110  0.64610  0.28741  Biso   1.000  C
  H65      1.0000 0.21961  0.92826  0.81038  Biso   1.000  H
  H66      1.0000 0.28039  0.07174  0.31038  Biso   1.000  H
  H67      1.0000 0.71961  0.57174  0.18962  Biso   1.000  H
  H68      1.0000 0.78039  0.42826  0.68962  Biso   1.000  H
  H69      1.0000 0.78039  0.07174  0.18962  Biso   1.000  H
  H70      1.0000 0.71961  0.92826  0.68962  Biso   1.000  H
  H71      1.0000 0.28039  0.42826  0.81038  Biso   1.000  H
  H72      1.0000 0.21961  0.57174  0.31038  Biso   1.000  H
  C81      1.0000 0.21300  0.77600  0.73045  Biso   1.000  C
  C82      1.0000 0.28700  0.22400  0.23045  Biso   1.000  C
  C83      1.0000 0.71300  0.72400  0.26955  Biso   1.000  C
  C84      1.0000 0.78700  0.27600  0.76955  Biso   1.000  C
  C85      1.0000 0.78700  0.22400  0.26955  Biso   1.000  C
  C86      1.0000 0.71300  0.77600  0.76955  Biso   1.000  C
  C87      1.0000 0.28700  0.27600  0.73045  Biso   1.000  C
  C88      1.0000 0.21300  0.72400  0.23045  Biso   1.000  C
  H73      1.0000 0.27891  0.78837  0.70655  Biso   1.000  H
  H74      1.0000 0.22109  0.21163  0.20655  Biso   1.000  H
  H75      1.0000 0.77891  0.71163  0.29345  Biso   1.000  H
  H76      1.0000 0.72109  0.28837  0.79345  Biso   1.000  H
  H77      1.0000 0.72109  0.21163  0.29345  Biso   1.000  H
  H78      1.0000 0.77891  0.78837  0.79345  Biso   1.000  H
  H79      1.0000 0.22109  0.28837  0.70655  Biso   1.000  H
  H80      1.0000 0.27891  0.71163  0.20655  Biso   1.000  H
  H81      1.0000 0.14030  0.60749  0.67475  Biso   1.000  H
  H82      1.0000 0.35970  0.39251  0.17475  Biso   1.000  H
  H83      1.0000 0.64030  0.89251  0.32525  Biso   1.000  H
  H84      1.0000 0.85970  0.10749  0.82525  Biso   1.000  H
  H85      1.0000 0.85970  0.39251  0.32525  Biso   1.000  H
  H86      1.0000 0.64030  0.60749  0.82525  Biso   1.000  H
  H87      1.0000 0.35970  0.10749  0.67475  Biso   1.000  H
  H88      1.0000 0.14030  0.89251  0.17475  Biso   1.000  H
