data_image0
_cell_length_a       16.486
_cell_length_b       8.3687
_cell_length_c       18.599
_cell_angle_alpha    90
_cell_angle_beta     90
_cell_angle_gamma    90

_symmetry_space_group_name_H-M    "P 1"
_symmetry_int_tables_number       1

loop_
  _symmetry_equiv_pos_as_xyz
  'x, y, z'

loop_
  _atom_site_label
  _atom_site_occupancy
  _atom_site_fract_x
  _atom_site_fract_y
  _atom_site_fract_z
  _atom_site_thermal_displace_type
  _atom_site_B_iso_or_equiv
  _atom_site_type_symbol
  N1       1.0000 0.98305  0.67740  0.80812  Biso   1.000  N
  N2       1.0000 0.01695  0.32260  0.30812  Biso   1.000  N
  N3       1.0000 0.48305  0.82260  0.80812  Biso   1.000  N
  N4       1.0000 0.51695  0.17740  0.30812  Biso   1.000  N
  C1       1.0000 0.92206  0.58270  0.78724  Biso   1.000  C
  C2       1.0000 0.07794  0.41730  0.28724  Biso   1.000  C
  C3       1.0000 0.42206  0.91730  0.78724  Biso   1.000  C
  C4       1.0000 0.57794  0.08270  0.28724  Biso   1.000  C
  C5       1.0000 0.05795  0.64680  0.78349  Biso   1.000  C
  C6       1.0000 0.94205  0.35320  0.28349  Biso   1.000  C
  C7       1.0000 0.55795  0.85320  0.78349  Biso   1.000  C
  C8       1.0000 0.44205  0.14680  0.28349  Biso   1.000  C
  C9       1.0000 0.93387  0.45310  0.74392  Biso   1.000  C
  C10      1.0000 0.06613  0.54690  0.24392  Biso   1.000  C
  C11      1.0000 0.43387  0.04690  0.74392  Biso   1.000  C
  C12      1.0000 0.56613  0.95310  0.24392  Biso   1.000  C
  C13      1.0000 0.01072  0.41930  0.71955  Biso   1.000  C
  C14      1.0000 0.98928  0.58070  0.21955  Biso   1.000  C
  C15      1.0000 0.51072  0.08070  0.71955  Biso   1.000  C
  C16      1.0000 0.48928  0.91930  0.21955  Biso   1.000  C
  C17      1.0000 0.07515  0.51960  0.73812  Biso   1.000  C
  C18      1.0000 0.92485  0.48040  0.23812  Biso   1.000  C
  C19      1.0000 0.57515  0.98040  0.73812  Biso   1.000  C
  C20      1.0000 0.42485  0.01960  0.23812  Biso   1.000  C
  Cu1      1.0000 0.95919  0.83121  0.88964  Biso   1.000  Cu
  Cu2      1.0000 0.04081  0.16879  0.38964  Biso   1.000  Cu
  Cu3      1.0000 0.45919  0.66879  0.88964  Biso   1.000  Cu
  Cu4      1.0000 0.54081  0.33121  0.38964  Biso   1.000  Cu
  C21      1.0000 0.51274  0.90280  0.97677  Biso   1.000  C
  C22      1.0000 0.48726  0.09720  0.47677  Biso   1.000  C
  C23      1.0000 0.01274  0.59720  0.97677  Biso   1.000  C
  C24      1.0000 0.98726  0.40280  0.47677  Biso   1.000  C
  C25      1.0000 0.57333  0.00170  0.01966  Biso   1.000  C
  C26      1.0000 0.42667  0.99830  0.51966  Biso   1.000  C
  C27      1.0000 0.07333  0.49830  0.01966  Biso   1.000  C
  C28      1.0000 0.92667  0.50170  0.51966  Biso   1.000  C
  C29      1.0000 0.54655  0.12400  0.06284  Biso   1.000  C
  C30      1.0000 0.45345  0.87600  0.56284  Biso   1.000  C
  C31      1.0000 0.04655  0.37600  0.06284  Biso   1.000  C
  C32      1.0000 0.95345  0.62400  0.56284  Biso   1.000  C
  H1       1.0000 0.49150  0.14760  0.06530  Biso   1.000  H
  H2       1.0000 0.50850  0.85240  0.56530  Biso   1.000  H
  H3       1.0000 0.99150  0.35240  0.06530  Biso   1.000  H
  H4       1.0000 0.00850  0.64760  0.56530  Biso   1.000  H
  C33      1.0000 0.60152  0.21160  0.10254  Biso   1.000  C
  C34      1.0000 0.39848  0.78840  0.60254  Biso   1.000  C
  C35      1.0000 0.10152  0.28840  0.10254  Biso   1.000  C
  C36      1.0000 0.89848  0.71160  0.60254  Biso   1.000  C
  H5       1.0000 0.58330  0.29440  0.13170  Biso   1.000  H
  H6       1.0000 0.41670  0.70560  0.63170  Biso   1.000  H
  H7       1.0000 0.08330  0.20560  0.13170  Biso   1.000  H
  H8       1.0000 0.91670  0.79440  0.63170  Biso   1.000  H
  C37      1.0000 0.68342  0.17740  0.09930  Biso   1.000  C
  C38      1.0000 0.31658  0.82260  0.59930  Biso   1.000  C
  C39      1.0000 0.18342  0.32260  0.09930  Biso   1.000  C
  C40      1.0000 0.81658  0.67740  0.59930  Biso   1.000  C
  H9       1.0000 0.71980  0.23660  0.12660  Biso   1.000  H
  H10      1.0000 0.28020  0.76340  0.62660  Biso   1.000  H
  H11      1.0000 0.21980  0.26340  0.12660  Biso   1.000  H
  H12      1.0000 0.78020  0.73660  0.62660  Biso   1.000  H
  C41      1.0000 0.71187  0.05450  0.05524  Biso   1.000  C
  C42      1.0000 0.28813  0.94550  0.55524  Biso   1.000  C
  C43      1.0000 0.21187  0.44550  0.05524  Biso   1.000  C
  C44      1.0000 0.78813  0.55450  0.55524  Biso   1.000  C
  C45      1.0000 0.65570  0.96670  0.01618  Biso   1.000  C
  C46      1.0000 0.34430  0.03330  0.51618  Biso   1.000  C
  C47      1.0000 0.15570  0.53330  0.01618  Biso   1.000  C
  C48      1.0000 0.84430  0.46670  0.51618  Biso   1.000  C
  H13      1.0000 0.67340  0.88320  0.98720  Biso   1.000  H
  H14      1.0000 0.32660  0.11680  0.48720  Biso   1.000  H
  H15      1.0000 0.17340  0.61680  0.98720  Biso   1.000  H
  H16      1.0000 0.82660  0.38320  0.48720  Biso   1.000  H
  C49      1.0000 0.80020  0.02000  0.05122  Biso   1.000  C
  C50      1.0000 0.19980  0.98000  0.55122  Biso   1.000  C
  C51      1.0000 0.30020  0.48000  0.05122  Biso   1.000  C
  C52      1.0000 0.69980  0.52000  0.55122  Biso   1.000  C
  C53      1.0000 0.85127  0.03810  0.11045  Biso   1.000  C
  C54      1.0000 0.14873  0.96190  0.61045  Biso   1.000  C
  C55      1.0000 0.35127  0.46190  0.11045  Biso   1.000  C
  C56      1.0000 0.64873  0.53810  0.61045  Biso   1.000  C
  H17      1.0000 0.83050  0.07300  0.15420  Biso   1.000  H
  H18      1.0000 0.16950  0.92700  0.65420  Biso   1.000  H
  H19      1.0000 0.33050  0.42700  0.15420  Biso   1.000  H
  H20      1.0000 0.66950  0.57300  0.65420  Biso   1.000  H
  C57      1.0000 0.93257  0.00410  0.10357  Biso   1.000  C
  C58      1.0000 0.06743  0.99590  0.60357  Biso   1.000  C
  C59      1.0000 0.43257  0.49590  0.10357  Biso   1.000  C
  C60      1.0000 0.56743  0.50410  0.60357  Biso   1.000  C
  H21      1.0000 0.96740  0.01660  0.14250  Biso   1.000  H
  H22      1.0000 0.03260  0.98340  0.64250  Biso   1.000  H
  H23      1.0000 0.46740  0.48340  0.14250  Biso   1.000  H
  H24      1.0000 0.53260  0.51660  0.64250  Biso   1.000  H
  C61      1.0000 0.96163  0.95150  0.03862  Biso   1.000  C
  C62      1.0000 0.03837  0.04850  0.53862  Biso   1.000  C
  C63      1.0000 0.46163  0.54850  0.03862  Biso   1.000  C
  C64      1.0000 0.53837  0.45150  0.53862  Biso   1.000  C
  H25      1.0000 0.01660  0.92850  0.03460  Biso   1.000  H
  H26      1.0000 0.98340  0.07150  0.53460  Biso   1.000  H
  H27      1.0000 0.51660  0.57150  0.03460  Biso   1.000  H
  H28      1.0000 0.48340  0.42850  0.53460  Biso   1.000  H
  C65      1.0000 0.83542  0.96690  0.98795  Biso   1.000  C
  C66      1.0000 0.16458  0.03310  0.48795  Biso   1.000  C
  C67      1.0000 0.33542  0.53310  0.98795  Biso   1.000  C
  C68      1.0000 0.66458  0.46690  0.48795  Biso   1.000  C
  H29      1.0000 0.80230  0.95490  0.94780  Biso   1.000  H
  H30      1.0000 0.19770  0.04510  0.44780  Biso   1.000  H
  H31      1.0000 0.30230  0.54510  0.94780  Biso   1.000  H
  H32      1.0000 0.69770  0.45490  0.44780  Biso   1.000  H
  C69      1.0000 0.37910  0.51210  0.77301  Biso   1.000  C
  C70      1.0000 0.62090  0.48790  0.27301  Biso   1.000  C
  C71      1.0000 0.87910  0.98790  0.77301  Biso   1.000  C
  C72      1.0000 0.12090  0.01210  0.27301  Biso   1.000  C
  C73      1.0000 0.30400  0.47940  0.72894  Biso   1.000  C
  C74      1.0000 0.69600  0.52060  0.22894  Biso   1.000  C
  C75      1.0000 0.80400  0.02060  0.72894  Biso   1.000  C
  C76      1.0000 0.19600  0.97940  0.22894  Biso   1.000  C
  C77      1.0000 0.22734  0.51800  0.75294  Biso   1.000  C
  C78      1.0000 0.77266  0.48200  0.25294  Biso   1.000  C
  C79      1.0000 0.72734  0.98200  0.75294  Biso   1.000  C
  C80      1.0000 0.27266  0.01800  0.25294  Biso   1.000  C
  H33      1.0000 0.22130  0.56640  0.79760  Biso   1.000  H
  H34      1.0000 0.77870  0.43360  0.29760  Biso   1.000  H
  H35      1.0000 0.72130  0.93360  0.79760  Biso   1.000  H
  H36      1.0000 0.27870  0.06640  0.29760  Biso   1.000  H
  C81      1.0000 0.15838  0.48600  0.71155  Biso   1.000  C
  C82      1.0000 0.84162  0.51400  0.21155  Biso   1.000  C
  C83      1.0000 0.65838  0.01400  0.71155  Biso   1.000  C
  C84      1.0000 0.34162  0.98600  0.21155  Biso   1.000  C
  C85      1.0000 0.16976  0.41710  0.64397  Biso   1.000  C
  C86      1.0000 0.83024  0.58290  0.14397  Biso   1.000  C
  C87      1.0000 0.66976  0.08290  0.64397  Biso   1.000  C
  C88      1.0000 0.33024  0.91710  0.14397  Biso   1.000  C
  H37      1.0000 0.12500  0.39800  0.61470  Biso   1.000  H
  H38      1.0000 0.87500  0.60200  0.11470  Biso   1.000  H
  H39      1.0000 0.62500  0.10200  0.61470  Biso   1.000  H
  H40      1.0000 0.37500  0.89800  0.11470  Biso   1.000  H
  C89      1.0000 0.24576  0.37720  0.61995  Biso   1.000  C
  C90      1.0000 0.75424  0.62280  0.11995  Biso   1.000  C
  C91      1.0000 0.74576  0.12280  0.61995  Biso   1.000  C
  C92      1.0000 0.25424  0.87720  0.11995  Biso   1.000  C
  H41      1.0000 0.25190  0.33030  0.57490  Biso   1.000  H
  H42      1.0000 0.74810  0.66970  0.07490  Biso   1.000  H
  H43      1.0000 0.75190  0.16970  0.57490  Biso   1.000  H
  H44      1.0000 0.24810  0.83030  0.07490  Biso   1.000  H
  C93      1.0000 0.31324  0.40580  0.66194  Biso   1.000  C
  C94      1.0000 0.68676  0.59420  0.16194  Biso   1.000  C
  C95      1.0000 0.81324  0.09420  0.66194  Biso   1.000  C
  C96      1.0000 0.18676  0.90580  0.16194  Biso   1.000  C
  H45      1.0000 0.36450  0.37640  0.64580  Biso   1.000  H
  H46      1.0000 0.63550  0.62360  0.14580  Biso   1.000  H
  H47      1.0000 0.86450  0.12360  0.64580  Biso   1.000  H
  H48      1.0000 0.13550  0.87640  0.14580  Biso   1.000  H
  H49      1.0000 0.10020  0.71400  0.79740  Biso   1.000  H
  H50      1.0000 0.89980  0.28600  0.29740  Biso   1.000  H
  H51      1.0000 0.60020  0.78600  0.79740  Biso   1.000  H
  H52      1.0000 0.39980  0.21400  0.29740  Biso   1.000  H
  H53      1.0000 0.01980  0.33060  0.69080  Biso   1.000  H
  H54      1.0000 0.98020  0.66940  0.19080  Biso   1.000  H
  H55      1.0000 0.51980  0.16940  0.69080  Biso   1.000  H
  H56      1.0000 0.48020  0.83060  0.19080  Biso   1.000  H
  H57      1.0000 0.89040  0.38840  0.73120  Biso   1.000  H
  H58      1.0000 0.10960  0.61160  0.23120  Biso   1.000  H
  H59      1.0000 0.39040  0.11160  0.73120  Biso   1.000  H
  H60      1.0000 0.60960  0.88840  0.23120  Biso   1.000  H
  H61      1.0000 0.86990  0.60640  0.80280  Biso   1.000  H
  H62      1.0000 0.13010  0.39360  0.30280  Biso   1.000  H
  H63      1.0000 0.36990  0.89360  0.80280  Biso   1.000  H
  H64      1.0000 0.63010  0.10640  0.30280  Biso   1.000  H
  C97      1.0000 0.04390  0.18620  0.89200  Biso   1.000  C
  C98      1.0000 0.95610  0.81380  0.39200  Biso   1.000  C
  C99      1.0000 0.54390  0.31380  0.89200  Biso   1.000  C
  C100     1.0000 0.45610  0.68620  0.39200  Biso   1.000  C
  H65      1.0000 0.99050  0.23030  0.88730  Biso   1.000  H
  H66      1.0000 0.00950  0.76970  0.38730  Biso   1.000  H
  H67      1.0000 0.49050  0.26970  0.88730  Biso   1.000  H
  H68      1.0000 0.50950  0.73030  0.38730  Biso   1.000  H
  H69      1.0000 0.05710  0.17510  0.94210  Biso   1.000  H
  H70      1.0000 0.94290  0.82490  0.44210  Biso   1.000  H
  H71      1.0000 0.55710  0.32490  0.94210  Biso   1.000  H
  H72      1.0000 0.44290  0.67510  0.44210  Biso   1.000  H
  H73      1.0000 0.08250  0.25600  0.86940  Biso   1.000  H
  H74      1.0000 0.91750  0.74400  0.36940  Biso   1.000  H
  H75      1.0000 0.58250  0.24400  0.86940  Biso   1.000  H
  H76      1.0000 0.41750  0.75600  0.36940  Biso   1.000  H
  C101     1.0000 0.77340  0.96160  0.30124  Biso   1.000  C
  C102     1.0000 0.22660  0.03840  0.80124  Biso   1.000  C
  C103     1.0000 0.27340  0.53840  0.30124  Biso   1.000  C
  C104     1.0000 0.72660  0.46160  0.80124  Biso   1.000  C
  H77      1.0000 0.77220  0.86850  0.27400  Biso   1.000  H
  H78      1.0000 0.22780  0.13150  0.77400  Biso   1.000  H
  H79      1.0000 0.27220  0.63150  0.27400  Biso   1.000  H
  H80      1.0000 0.72780  0.36850  0.77400  Biso   1.000  H
  C105     1.0000 0.76050  0.09100  0.41557  Biso   1.000  C
  C106     1.0000 0.23950  0.90900  0.91557  Biso   1.000  C
  C107     1.0000 0.26050  0.40900  0.41557  Biso   1.000  C
  C108     1.0000 0.73950  0.59100  0.91557  Biso   1.000  C
  H81      1.0000 0.80720  0.08060  0.44600  Biso   1.000  H
  H82      1.0000 0.19280  0.91940  0.94600  Biso   1.000  H
  H83      1.0000 0.30720  0.41940  0.44600  Biso   1.000  H
  H84      1.0000 0.69280  0.58060  0.94600  Biso   1.000  H
  H85      1.0000 0.71270  0.10160  0.44470  Biso   1.000  H
  H86      1.0000 0.28730  0.89840  0.94470  Biso   1.000  H
  H87      1.0000 0.21270  0.39840  0.44470  Biso   1.000  H
  H88      1.0000 0.78730  0.60160  0.94470  Biso   1.000  H
  H89      1.0000 0.76630  0.18400  0.38580  Biso   1.000  H
  H90      1.0000 0.23370  0.81600  0.88580  Biso   1.000  H
  H91      1.0000 0.26630  0.31600  0.38580  Biso   1.000  H
  H92      1.0000 0.73370  0.68400  0.88580  Biso   1.000  H
  C109     1.0000 0.72420  0.80510  0.40270  Biso   1.000  C
  C110     1.0000 0.27580  0.19490  0.90270  Biso   1.000  C
  C111     1.0000 0.22420  0.69490  0.40270  Biso   1.000  C
  C112     1.0000 0.77580  0.30510  0.90270  Biso   1.000  C
  H93      1.0000 0.66810  0.81710  0.41540  Biso   1.000  H
  H94      1.0000 0.33190  0.18290  0.91540  Biso   1.000  H
  H95      1.0000 0.16810  0.68290  0.41540  Biso   1.000  H
  H96      1.0000 0.83190  0.31710  0.91540  Biso   1.000  H
  H97      1.0000 0.75530  0.78190  0.44500  Biso   1.000  H
  H98      1.0000 0.24470  0.21810  0.94500  Biso   1.000  H
  H99      1.0000 0.25530  0.71810  0.44500  Biso   1.000  H
  H100     1.0000 0.74470  0.28190  0.94500  Biso   1.000  H
  H101     1.0000 0.72990  0.71910  0.36890  Biso   1.000  H
  H102     1.0000 0.27010  0.28090  0.86890  Biso   1.000  H
  H103     1.0000 0.22990  0.78090  0.36890  Biso   1.000  H
  H104     1.0000 0.77010  0.21910  0.86890  Biso   1.000  H
  N5       1.0000 0.91448  0.93180  0.98104  Biso   1.000  N
  N6       1.0000 0.08552  0.06820  0.48104  Biso   1.000  N
  N7       1.0000 0.41448  0.56820  0.98104  Biso   1.000  N
  N8       1.0000 0.58552  0.43180  0.48104  Biso   1.000  N
  N9       1.0000 0.75326  0.95090  0.37072  Biso   1.000  N
  N10      1.0000 0.24674  0.04910  0.87072  Biso   1.000  N
  N11      1.0000 0.25326  0.54910  0.37072  Biso   1.000  N
  N12      1.0000 0.74674  0.45090  0.87072  Biso   1.000  N
  O1       1.0000 0.44120  0.94470  0.97406  Biso   1.000  O
  O2       1.0000 0.55880  0.05530  0.47406  Biso   1.000  O
  O3       1.0000 0.94120  0.55530  0.97406  Biso   1.000  O
  O4       1.0000 0.05880  0.44470  0.47406  Biso   1.000  O
  O5       1.0000 0.54190  0.78100  0.94481  Biso   1.000  O
  O6       1.0000 0.45810  0.21900  0.44481  Biso   1.000  O
  O7       1.0000 0.04190  0.71900  0.94481  Biso   1.000  O
  O8       1.0000 0.95810  0.28100  0.44481  Biso   1.000  O
  O9       1.0000 0.44589  0.47360  0.74716  Biso   1.000  O
  O10      1.0000 0.55411  0.52640  0.24716  Biso   1.000  O
  O11      1.0000 0.94589  0.02640  0.74716  Biso   1.000  O
  O12      1.0000 0.05411  0.97360  0.24716  Biso   1.000  O
  O13      1.0000 0.36829  0.57720  0.83378  Biso   1.000  O
  O14      1.0000 0.63171  0.42280  0.33378  Biso   1.000  O
  O15      1.0000 0.86829  0.92280  0.83378  Biso   1.000  O
  O16      1.0000 0.13171  0.07720  0.33378  Biso   1.000  O
  O17      1.0000 0.04656  0.03540  0.85879  Biso   1.000  O
  O18      1.0000 0.95344  0.96460  0.35879  Biso   1.000  O
  O19      1.0000 0.54656  0.46460  0.85879  Biso   1.000  O
  O20      1.0000 0.45344  0.53540  0.35879  Biso   1.000  O
  O21      1.0000 0.79284  0.08300  0.27176  Biso   1.000  O
  O22      1.0000 0.20716  0.91700  0.77176  Biso   1.000  O
  O23      1.0000 0.29284  0.41700  0.27176  Biso   1.000  O
  O24      1.0000 0.70716  0.58300  0.77176  Biso   1.000  O
  H105     1.0000 0.02610  0.04400  0.81660  Biso   1.000  H
  H106     1.0000 0.97390  0.95600  0.31660  Biso   1.000  H
  H107     1.0000 0.52610  0.45600  0.81660  Biso   1.000  H
  H108     1.0000 0.47390  0.54400  0.31660  Biso   1.000  H
