data_image0
_cell_length_a       8.639
_cell_length_b       8.872
_cell_length_c       10.895
_cell_angle_alpha    79.63
_cell_angle_beta     73.048
_cell_angle_gamma    65.5

_symmetry_space_group_name_H-M    "P 1"
_symmetry_int_tables_number       1

loop_
  _symmetry_equiv_pos_as_xyz
  'x, y, z'

loop_
  _atom_site_label
  _atom_site_occupancy
  _atom_site_fract_x
  _atom_site_fract_y
  _atom_site_fract_z
  _atom_site_thermal_displace_type
  _atom_site_B_iso_or_equiv
  _atom_site_type_symbol
  N1       1.0000 0.90697  0.76275  0.39143  Biso   1.000  N
  N2       1.0000 0.09303  0.23725  0.60857  Biso   1.000  N
  N3       1.0000 0.66544  0.51985  0.14442  Biso   1.000  N
  N4       1.0000 0.33456  0.48015  0.85558  Biso   1.000  N
  C1       1.0000 0.04810  0.02370  0.53038  Biso   1.000  C
  C2       1.0000 0.95190  0.97630  0.46962  Biso   1.000  C
  C3       1.0000 0.01260  0.80570  0.44482  Biso   1.000  C
  C4       1.0000 0.98740  0.19430  0.55518  Biso   1.000  C
  C5       1.0000 0.94450  0.48060  0.17204  Biso   1.000  C
  C6       1.0000 0.05550  0.51940  0.82796  Biso   1.000  C
  H1       1.0000 0.06550  0.42340  0.15060  Biso   1.000  H
  H2       1.0000 0.93450  0.57660  0.84940  Biso   1.000  H
  C7       1.0000 0.86830  0.60529  0.25646  Biso   1.000  C
  C8       1.0000 0.13170  0.39471  0.74354  Biso   1.000  C
  C9       1.0000 0.19930  0.90110  0.56609  Biso   1.000  C
  C10      1.0000 0.80070  0.09890  0.43391  Biso   1.000  C
  H3       1.0000 0.26240  0.93120  0.60650  Biso   1.000  H
  H4       1.0000 0.73760  0.06880  0.39350  Biso   1.000  H
  C11      1.0000 0.83880  0.44200  0.12003  Biso   1.000  C
  C12      1.0000 0.16120  0.55800  0.87997  Biso   1.000  C
  H5       1.0000 0.89200  0.35650  0.06460  Biso   1.000  H
  H6       1.0000 0.10800  0.64350  0.93540  Biso   1.000  H
  C13      1.0000 0.59230  0.63760  0.22849  Biso   1.000  C
  C14      1.0000 0.40770  0.36240  0.77151  Biso   1.000  C
  H7       1.0000 0.47090  0.69170  0.24880  Biso   1.000  H
  H8       1.0000 0.52910  0.30830  0.75120  Biso   1.000  H
  C15      1.0000 0.97790  0.65460  0.30912  Biso   1.000  C
  C16      1.0000 0.02210  0.34540  0.69088  Biso   1.000  C
  H9       1.0000 0.09950  0.60630  0.28190  Biso   1.000  H
  H10      1.0000 0.90050  0.39370  0.71810  Biso   1.000  H
  C17      1.0000 0.25300  0.73960  0.54182  Biso   1.000  C
  C18      1.0000 0.74700  0.26040  0.45818  Biso   1.000  C
  H11      1.0000 0.35250  0.66040  0.56590  Biso   1.000  H
  H12      1.0000 0.64750  0.33960  0.43410  Biso   1.000  H
  C19      1.0000 0.68630  0.68300  0.28653  Biso   1.000  C
  C20      1.0000 0.31370  0.31700  0.71347  Biso   1.000  C
  H13      1.0000 0.62910  0.76480  0.34520  Biso   1.000  H
  H14      1.0000 0.37090  0.23520  0.65480  Biso   1.000  H
  C21      1.0000 0.15990  0.69080  0.48068  Biso   1.000  C
  C22      1.0000 0.84010  0.30920  0.51932  Biso   1.000  C
  H15      1.0000 0.19840  0.58000  0.46450  Biso   1.000  H
  H16      1.0000 0.80160  0.42000  0.53550  Biso   1.000  H
  Cu1      1.0000 0.50000  0.50000  0.00000  Biso   1.000  Cu
  O1       1.0000 0.60886  0.61659  0.85475  Biso   1.000  O
  O2       1.0000 0.39114  0.38341  0.14525  Biso   1.000  O
  O3       1.0000 0.31236  0.70507  0.06625  Biso   1.000  O
  O4       1.0000 0.68764  0.29493  0.93375  Biso   1.000  O
  C23      1.0000 0.29760  0.84910  0.01747  Biso   1.000  C
  C24      1.0000 0.70240  0.15090  0.98253  Biso   1.000  C
  C25      1.0000 0.54520  0.77030  0.82644  Biso   1.000  C
  C26      1.0000 0.45480  0.22970  0.17356  Biso   1.000  C
  C27      1.0000 0.40010  0.88520  0.90220  Biso   1.000  C
  C28      1.0000 0.59990  0.11480  0.09780  Biso   1.000  C
  H17      1.0000 0.36930  0.99630  0.87260  Biso   1.000  H
  H18      1.0000 0.63070  0.00370  0.12740  Biso   1.000  H
  C29      1.0000 0.15500  0.98870  0.09560  Biso   1.000  C
  C30      1.0000 0.84500  0.01130  0.90440  Biso   1.000  C
  H19      1.0000 0.04500  0.97710  0.11190  Biso   1.000  H
  H20      1.0000 0.95500  0.02290  0.88810  Biso   1.000  H
  H21      1.0000 0.14720  0.09310  0.04870  Biso   1.000  H
  H22      1.0000 0.85280  0.90690  0.95130  Biso   1.000  H
  H23      1.0000 0.18220  0.98470  0.17580  Biso   1.000  H
  H24      1.0000 0.81780  0.01530  0.82420  Biso   1.000  H
  C31      1.0000 0.63940  0.82970  0.70020  Biso   1.000  C
  C32      1.0000 0.36060  0.17030  0.29980  Biso   1.000  C
  H25      1.0000 0.76160  0.79160  0.69810  Biso   1.000  H
  H26      1.0000 0.23840  0.20840  0.30190  Biso   1.000  H
  H27      1.0000 0.59010  0.94880  0.69140  Biso   1.000  H
  H28      1.0000 0.40990  0.05120  0.30860  Biso   1.000  H
  H29      1.0000 0.62660  0.78640  0.63080  Biso   1.000  H
  H30      1.0000 0.37340  0.21360  0.36920  Biso   1.000  H
