data_image0
_cell_length_a       12.872
_cell_length_b       13.127
_cell_length_c       16.683
_cell_angle_alpha    90
_cell_angle_beta     111.537
_cell_angle_gamma    90

_symmetry_space_group_name_H-M    "P 1"
_symmetry_int_tables_number       1

loop_
  _symmetry_equiv_pos_as_xyz
  'x, y, z'

loop_
  _atom_site_label
  _atom_site_occupancy
  _atom_site_fract_x
  _atom_site_fract_y
  _atom_site_fract_z
  _atom_site_thermal_displace_type
  _atom_site_B_iso_or_equiv
  _atom_site_type_symbol
  Cu1      1.0000 0.61423  0.13235  0.12839  Biso   1.000  Cu
  Cu2      1.0000 0.88577  0.63235  0.37161  Biso   1.000  Cu
  Cu3      1.0000 0.38577  0.86765  0.87161  Biso   1.000  Cu
  Cu4      1.0000 0.11423  0.36765  0.62839  Biso   1.000  Cu
  N1       1.0000 0.61006  0.97668  0.13506  Biso   1.000  N
  N2       1.0000 0.88994  0.47668  0.36494  Biso   1.000  N
  N3       1.0000 0.38994  0.02332  0.86494  Biso   1.000  N
  N4       1.0000 0.11006  0.52332  0.63506  Biso   1.000  N
  N5       1.0000 0.61772  0.28815  0.12271  Biso   1.000  N
  N6       1.0000 0.88228  0.78815  0.37729  Biso   1.000  N
  N7       1.0000 0.38228  0.71185  0.87729  Biso   1.000  N
  N8       1.0000 0.11772  0.21185  0.62271  Biso   1.000  N
  N9       1.0000 0.62202  0.60893  0.10016  Biso   1.000  N
  N10      1.0000 0.87798  0.10893  0.39984  Biso   1.000  N
  N11      1.0000 0.37798  0.39107  0.89984  Biso   1.000  N
  N12      1.0000 0.12202  0.89107  0.60016  Biso   1.000  N
  N13      1.0000 0.64171  0.65780  0.16671  Biso   1.000  N
  N14      1.0000 0.85829  0.15780  0.33329  Biso   1.000  N
  N15      1.0000 0.35829  0.34220  0.83329  Biso   1.000  N
  N16      1.0000 0.14171  0.84220  0.66671  Biso   1.000  N
  O1       1.0000 0.13612  0.12068  0.90072  Biso   1.000  O
  O2       1.0000 0.36388  0.62068  0.59928  Biso   1.000  O
  O3       1.0000 0.86388  0.87932  0.09928  Biso   1.000  O
  O4       1.0000 0.63612  0.37932  0.40072  Biso   1.000  O
  O5       1.0000 0.67060  0.12304  0.03650  Biso   1.000  O
  O6       1.0000 0.82940  0.62304  0.46350  Biso   1.000  O
  O7       1.0000 0.32940  0.87696  0.96350  Biso   1.000  O
  O8       1.0000 0.17060  0.37696  0.53650  Biso   1.000  O
  O9       1.0000 0.75146  0.12413  0.68519  Biso   1.000  O
  O10      1.0000 0.74854  0.62413  0.81481  Biso   1.000  O
  O11      1.0000 0.24854  0.87587  0.31481  Biso   1.000  O
  O12      1.0000 0.25146  0.37587  0.18519  Biso   1.000  O
  O13      1.0000 0.84100  0.13404  0.13529  Biso   1.000  O
  O14      1.0000 0.65900  0.63404  0.36471  Biso   1.000  O
  O15      1.0000 0.15900  0.86596  0.86471  Biso   1.000  O
  O16      1.0000 0.34100  0.36596  0.63529  Biso   1.000  O
  O17      1.0000 0.15855  0.13020  0.03929  Biso   1.000  O
  O18      1.0000 0.34145  0.63020  0.46071  Biso   1.000  O
  O19      1.0000 0.84145  0.86980  0.96071  Biso   1.000  O
  O20      1.0000 0.65855  0.36980  0.53929  Biso   1.000  O
  H1       1.0000 0.22500  0.13320  0.04650  Biso   1.000  H
  H2       1.0000 0.27500  0.63320  0.45350  Biso   1.000  H
  H3       1.0000 0.77500  0.86680  0.95350  Biso   1.000  H
  H4       1.0000 0.72500  0.36680  0.54650  Biso   1.000  H
  O21      1.0000 0.60615  0.12394  0.72816  Biso   1.000  O
  O22      1.0000 0.89385  0.62394  0.77184  Biso   1.000  O
  O23      1.0000 0.39385  0.87606  0.27184  Biso   1.000  O
  O24      1.0000 0.10615  0.37606  0.22816  Biso   1.000  O
  H5       1.0000 0.57200  0.13860  0.67750  Biso   1.000  H
  H6       1.0000 0.92800  0.63860  0.82250  Biso   1.000  H
  H7       1.0000 0.42800  0.86140  0.32250  Biso   1.000  H
  H8       1.0000 0.07200  0.36140  0.17750  Biso   1.000  H
  O25      1.0000 0.55451  0.14035  0.21791  Biso   1.000  O
  O26      1.0000 0.94549  0.64035  0.28209  Biso   1.000  O
  O27      1.0000 0.44549  0.85965  0.78209  Biso   1.000  O
  O28      1.0000 0.05451  0.35965  0.71791  Biso   1.000  O
  O29      1.0000 0.61633  0.12473  0.52329  Biso   1.000  O
  O30      1.0000 0.88367  0.62473  0.97671  Biso   1.000  O
  O31      1.0000 0.38367  0.87527  0.47671  Biso   1.000  O
  O32      1.0000 0.11633  0.37527  0.02329  Biso   1.000  O
  H9       1.0000 0.65140  0.13370  0.57490  Biso   1.000  H
  H10      1.0000 0.84860  0.63370  0.92510  Biso   1.000  H
  H11      1.0000 0.34860  0.86630  0.42510  Biso   1.000  H
  H12      1.0000 0.15140  0.36630  0.07490  Biso   1.000  H
  O33      1.0000 0.47191  0.12691  0.56662  Biso   1.000  O
  O34      1.0000 0.02809  0.62691  0.93338  Biso   1.000  O
  O35      1.0000 0.52809  0.87309  0.43338  Biso   1.000  O
  O36      1.0000 0.97191  0.37309  0.06662  Biso   1.000  O
  O37      1.0000 0.38476  0.13156  0.11693  Biso   1.000  O
  O38      1.0000 0.11524  0.63156  0.38307  Biso   1.000  O
  O39      1.0000 0.61524  0.86844  0.88307  Biso   1.000  O
  O40      1.0000 0.88476  0.36844  0.61693  Biso   1.000  O
  O41      1.0000 0.06457  0.12333  0.21219  Biso   1.000  O
  O42      1.0000 0.43543  0.62333  0.28781  Biso   1.000  O
  O43      1.0000 0.93543  0.87667  0.78781  Biso   1.000  O
  O44      1.0000 0.56457  0.37667  0.71219  Biso   1.000  O
  H13      1.0000 0.99880  0.13300  0.20490  Biso   1.000  H
  H14      1.0000 0.50120  0.63300  0.29510  Biso   1.000  H
  H15      1.0000 0.00120  0.86700  0.79510  Biso   1.000  H
  H16      1.0000 0.49880  0.36700  0.70490  Biso   1.000  H
  O45      1.0000 0.08741  0.12946  0.35009  Biso   1.000  O
  O46      1.0000 0.41259  0.62946  0.14991  Biso   1.000  O
  O47      1.0000 0.91259  0.87054  0.64991  Biso   1.000  O
  O48      1.0000 0.58741  0.37054  0.85009  Biso   1.000  O
  C1       1.0000 0.93405  0.12440  0.00420  Biso   1.000  C
  C2       1.0000 0.56595  0.62440  0.49580  Biso   1.000  C
  C3       1.0000 0.06595  0.87560  0.99580  Biso   1.000  C
  C4       1.0000 0.43405  0.37560  0.50420  Biso   1.000  C
  H17      1.0000 0.98370  0.12690  0.06110  Biso   1.000  H
  H18      1.0000 0.51630  0.62690  0.43890  Biso   1.000  H
  H19      1.0000 0.01630  0.87310  0.93890  Biso   1.000  H
  H20      1.0000 0.48370  0.37310  0.56110  Biso   1.000  H
  C5       1.0000 0.51280  0.12637  0.50884  Biso   1.000  C
  C6       1.0000 0.98720  0.62637  0.99116  Biso   1.000  C
  C7       1.0000 0.48720  0.87363  0.49116  Biso   1.000  C
  C8       1.0000 0.01280  0.37363  0.00884  Biso   1.000  C
  C9       1.0000 0.43511  0.12646  0.41681  Biso   1.000  C
  C10      1.0000 0.06489  0.62646  0.08319  Biso   1.000  C
  C11      1.0000 0.56489  0.87354  0.58319  Biso   1.000  C
  C12      1.0000 0.93511  0.37354  0.91681  Biso   1.000  C
  C13      1.0000 0.47660  0.13054  0.35079  Biso   1.000  C
  C14      1.0000 0.02340  0.63054  0.14921  Biso   1.000  C
  C15      1.0000 0.52340  0.86946  0.64921  Biso   1.000  C
  C16      1.0000 0.97660  0.36946  0.85079  Biso   1.000  C
  H21      1.0000 0.55330  0.13200  0.36380  Biso   1.000  H
  H22      1.0000 0.94670  0.63200  0.13620  Biso   1.000  H
  H23      1.0000 0.44670  0.86800  0.63620  Biso   1.000  H
  H24      1.0000 0.05330  0.36800  0.86380  Biso   1.000  H
  C17      1.0000 0.44766  0.13549  0.19351  Biso   1.000  C
  C18      1.0000 0.05234  0.63549  0.30649  Biso   1.000  C
  C19      1.0000 0.55234  0.86451  0.80649  Biso   1.000  C
  C20      1.0000 0.94766  0.36451  0.69351  Biso   1.000  C
  C21      1.0000 0.32129  0.12493  0.39771  Biso   1.000  C
  C22      1.0000 0.17871  0.62493  0.10229  Biso   1.000  C
  C23      1.0000 0.67871  0.87507  0.60229  Biso   1.000  C
  C24      1.0000 0.82129  0.37507  0.89771  Biso   1.000  C
  H25      1.0000 0.29390  0.12270  0.44210  Biso   1.000  H
  H26      1.0000 0.20610  0.62270  0.05790  Biso   1.000  H
  H27      1.0000 0.70610  0.87730  0.55790  Biso   1.000  H
  H28      1.0000 0.79390  0.37730  0.94210  Biso   1.000  H
  C25      1.0000 0.40322  0.13242  0.26511  Biso   1.000  C
  C26      1.0000 0.09678  0.63242  0.23489  Biso   1.000  C
  C27      1.0000 0.59678  0.86758  0.73489  Biso   1.000  C
  C28      1.0000 0.90322  0.36758  0.76511  Biso   1.000  C
  C29      1.0000 0.12500  0.12641  0.29468  Biso   1.000  C
  C30      1.0000 0.37500  0.62641  0.20532  Biso   1.000  C
  C31      1.0000 0.87500  0.87359  0.70532  Biso   1.000  C
  C32      1.0000 0.62500  0.37359  0.79468  Biso   1.000  C
  C33      1.0000 0.24755  0.12676  0.31273  Biso   1.000  C
  C34      1.0000 0.25245  0.62676  0.18727  Biso   1.000  C
  C35      1.0000 0.75245  0.87324  0.68727  Biso   1.000  C
  C36      1.0000 0.74755  0.37324  0.81273  Biso   1.000  C
  C37      1.0000 0.82008  0.12340  0.98688  Biso   1.000  C
  C38      1.0000 0.67992  0.62340  0.51312  Biso   1.000  C
  C39      1.0000 0.17992  0.87660  0.01312  Biso   1.000  C
  C40      1.0000 0.32008  0.37660  0.48688  Biso   1.000  C
  C41      1.0000 0.77713  0.12669  0.05949  Biso   1.000  C
  C42      1.0000 0.72287  0.62669  0.44051  Biso   1.000  C
  C43      1.0000 0.22287  0.87331  0.94051  Biso   1.000  C
  C44      1.0000 0.27713  0.37331  0.55949  Biso   1.000  C
  C45      1.0000 0.74666  0.12083  0.90137  Biso   1.000  C
  C46      1.0000 0.75334  0.62083  0.59863  Biso   1.000  C
  C47      1.0000 0.25334  0.87917  0.09863  Biso   1.000  C
  C48      1.0000 0.24666  0.37917  0.40137  Biso   1.000  C
  H29      1.0000 0.67000  0.12020  0.88860  Biso   1.000  H
  H30      1.0000 0.83000  0.62020  0.61140  Biso   1.000  H
  H31      1.0000 0.33000  0.87980  0.11140  Biso   1.000  H
  H32      1.0000 0.17000  0.37980  0.38860  Biso   1.000  H
  C49      1.0000 0.97532  0.12170  0.93851  Biso   1.000  C
  C50      1.0000 0.52468  0.62170  0.56149  Biso   1.000  C
  C51      1.0000 0.02468  0.87830  0.06149  Biso   1.000  C
  C52      1.0000 0.47532  0.37830  0.43851  Biso   1.000  C
  C53      1.0000 0.90159  0.11862  0.85329  Biso   1.000  C
  C54      1.0000 0.59841  0.61862  0.64671  Biso   1.000  C
  C55      1.0000 0.09841  0.88138  0.14671  Biso   1.000  C
  C56      1.0000 0.40159  0.38138  0.35329  Biso   1.000  C
  H33      1.0000 0.92880  0.11620  0.80880  Biso   1.000  H
  H34      1.0000 0.57120  0.61620  0.69120  Biso   1.000  H
  H35      1.0000 0.07120  0.88380  0.19120  Biso   1.000  H
  H36      1.0000 0.42880  0.38380  0.30880  Biso   1.000  H
  C57      1.0000 0.09840  0.12411  0.95593  Biso   1.000  C
  C58      1.0000 0.40160  0.62411  0.54407  Biso   1.000  C
  C59      1.0000 0.90160  0.87589  0.04407  Biso   1.000  C
  C60      1.0000 0.59840  0.37589  0.45593  Biso   1.000  C
  C61      1.0000 0.78769  0.11918  0.83489  Biso   1.000  C
  C62      1.0000 0.71231  0.61918  0.66511  Biso   1.000  C
  C63      1.0000 0.21231  0.88082  0.16511  Biso   1.000  C
  C64      1.0000 0.28769  0.38082  0.33489  Biso   1.000  C
  C65      1.0000 0.70990  0.12231  0.74304  Biso   1.000  C
  C66      1.0000 0.79010  0.62231  0.75696  Biso   1.000  C
  C67      1.0000 0.29010  0.87769  0.25696  Biso   1.000  C
  C68      1.0000 0.20990  0.37769  0.24304  Biso   1.000  C
  C69      1.0000 0.61590  0.45240  0.18553  Biso   1.000  C
  C70      1.0000 0.88410  0.95240  0.31447  Biso   1.000  C
  C71      1.0000 0.38410  0.54760  0.81447  Biso   1.000  C
  C72      1.0000 0.11590  0.04760  0.68553  Biso   1.000  C
  H37      1.0000 0.61160  0.49030  0.23130  Biso   1.000  H
  H38      1.0000 0.88840  0.99030  0.26870  Biso   1.000  H
  H39      1.0000 0.38840  0.50970  0.76870  Biso   1.000  H
  H40      1.0000 0.11160  0.00970  0.73130  Biso   1.000  H
  C73      1.0000 0.61190  0.34759  0.18644  Biso   1.000  C
  C74      1.0000 0.88810  0.84759  0.31356  Biso   1.000  C
  C75      1.0000 0.38810  0.65241  0.81356  Biso   1.000  C
  C76      1.0000 0.11190  0.15241  0.68644  Biso   1.000  C
  H41      1.0000 0.60460  0.31610  0.23400  Biso   1.000  H
  H42      1.0000 0.89540  0.81610  0.26600  Biso   1.000  H
  H43      1.0000 0.39540  0.68390  0.76600  Biso   1.000  H
  H44      1.0000 0.10460  0.18390  0.73400  Biso   1.000  H
  C77      1.0000 0.61110  0.92795  0.20629  Biso   1.000  C
  C78      1.0000 0.88890  0.42795  0.29371  Biso   1.000  C
  C79      1.0000 0.38890  0.07205  0.79371  Biso   1.000  C
  C80      1.0000 0.11110  0.57205  0.70629  Biso   1.000  C
  H45      1.0000 0.60570  0.96680  0.25120  Biso   1.000  H
  H46      1.0000 0.89430  0.46680  0.24880  Biso   1.000  H
  H47      1.0000 0.39430  0.03320  0.74880  Biso   1.000  H
  H48      1.0000 0.10570  0.53320  0.75120  Biso   1.000  H
  C81      1.0000 0.62140  0.81357  0.07444  Biso   1.000  C
  C82      1.0000 0.87860  0.31357  0.42556  Biso   1.000  C
  C83      1.0000 0.37860  0.18643  0.92556  Biso   1.000  C
  C84      1.0000 0.12140  0.68643  0.57444  Biso   1.000  C
  H49      1.0000 0.62280  0.77580  0.02770  Biso   1.000  H
  H50      1.0000 0.87720  0.27580  0.47230  Biso   1.000  H
  H51      1.0000 0.37720  0.22420  0.97230  Biso   1.000  H
  H52      1.0000 0.12280  0.72420  0.52770  Biso   1.000  H
  C85      1.0000 0.61380  0.91753  0.07032  Biso   1.000  C
  C86      1.0000 0.88620  0.41753  0.42968  Biso   1.000  C
  C87      1.0000 0.38620  0.08247  0.92968  Biso   1.000  C
  C88      1.0000 0.11380  0.58247  0.57032  Biso   1.000  C
  H53      1.0000 0.61100  0.94920  0.01970  Biso   1.000  H
  H54      1.0000 0.88900  0.44920  0.48030  Biso   1.000  H
  H55      1.0000 0.38900  0.05080  0.98030  Biso   1.000  H
  H56      1.0000 0.11100  0.55080  0.51970  Biso   1.000  H
  C89      1.0000 0.62680  0.76617  0.14980  Biso   1.000  C
  C90      1.0000 0.87320  0.26617  0.35020  Biso   1.000  C
  C91      1.0000 0.37320  0.23383  0.85020  Biso   1.000  C
  C92      1.0000 0.12680  0.73383  0.64980  Biso   1.000  C
  C93      1.0000 0.62660  0.50027  0.11433  Biso   1.000  C
  C94      1.0000 0.87340  0.00027  0.38567  Biso   1.000  C
  C95      1.0000 0.37340  0.49973  0.88567  Biso   1.000  C
  C96      1.0000 0.12660  0.99973  0.61433  Biso   1.000  C
  C97      1.0000 0.61970  0.82426  0.21636  Biso   1.000  C
  C98      1.0000 0.88030  0.32426  0.28364  Biso   1.000  C
  C99      1.0000 0.38030  0.17574  0.78364  Biso   1.000  C
  C100     1.0000 0.11970  0.67574  0.71636  Biso   1.000  C
  H57      1.0000 0.62060  0.79380  0.26700  Biso   1.000  H
  H58      1.0000 0.87940  0.29380  0.23300  Biso   1.000  H
  H59      1.0000 0.37940  0.20620  0.73300  Biso   1.000  H
  H60      1.0000 0.12060  0.70620  0.76700  Biso   1.000  H
  C101     1.0000 0.62780  0.33640  0.05466  Biso   1.000  C
  C102     1.0000 0.87220  0.83640  0.44534  Biso   1.000  C
  C103     1.0000 0.37220  0.66360  0.94534  Biso   1.000  C
  C104     1.0000 0.12780  0.16360  0.55466  Biso   1.000  C
  H61      1.0000 0.63170  0.29690  0.00950  Biso   1.000  H
  H62      1.0000 0.86830  0.79690  0.49050  Biso   1.000  H
  H63      1.0000 0.36830  0.70310  0.99050  Biso   1.000  H
  H64      1.0000 0.13170  0.20310  0.50950  Biso   1.000  H
  C105     1.0000 0.63270  0.43975  0.04801  Biso   1.000  C
  C106     1.0000 0.86730  0.93975  0.45199  Biso   1.000  C
  C107     1.0000 0.36730  0.56025  0.95199  Biso   1.000  C
  C108     1.0000 0.13270  0.06025  0.54801  Biso   1.000  C
  H65      1.0000 0.64010  0.46920  0.99970  Biso   1.000  H
  H66      1.0000 0.85990  0.96920  0.50030  Biso   1.000  H
  H67      1.0000 0.35990  0.53080  0.00030  Biso   1.000  H
  H68      1.0000 0.14010  0.03080  0.49970  Biso   1.000  H
  C109     1.0000 0.28903  0.13041  0.24663  Biso   1.000  C
  C110     1.0000 0.21097  0.63041  0.25337  Biso   1.000  C
  C111     1.0000 0.71097  0.86959  0.75337  Biso   1.000  C
  C112     1.0000 0.78903  0.36959  0.74663  Biso   1.000  C
  H69      1.0000 0.23980  0.13150  0.18960  Biso   1.000  H
  H70      1.0000 0.26020  0.63150  0.31040  Biso   1.000  H
  H71      1.0000 0.76020  0.86850  0.81040  Biso   1.000  H
  H72      1.0000 0.73980  0.36850  0.68960  Biso   1.000  H
