data_image0
_cell_length_a       12.983
_cell_length_b       19.716
_cell_length_c       11.515
_cell_angle_alpha    90
_cell_angle_beta     107.355
_cell_angle_gamma    90

_symmetry_space_group_name_H-M    "P 1"
_symmetry_int_tables_number       1

loop_
  _symmetry_equiv_pos_as_xyz
  'x, y, z'

loop_
  _atom_site_label
  _atom_site_occupancy
  _atom_site_fract_x
  _atom_site_fract_y
  _atom_site_fract_z
  _atom_site_thermal_displace_type
  _atom_site_B_iso_or_equiv
  _atom_site_type_symbol
  Cu1      1.0000 0.45704  0.21126  0.12009  Biso   1.000  Cu
  Cu2      1.0000 0.54296  0.71126  0.37991  Biso   1.000  Cu
  Cu3      1.0000 0.54296  0.78874  0.87991  Biso   1.000  Cu
  Cu4      1.0000 0.45704  0.28874  0.62009  Biso   1.000  Cu
  O1       1.0000 0.58527  0.80140  0.45876  Biso   1.000  O
  O2       1.0000 0.41473  0.30140  0.04124  Biso   1.000  O
  O3       1.0000 0.41473  0.19860  0.54124  Biso   1.000  O
  O4       1.0000 0.58527  0.69860  0.95876  Biso   1.000  O
  O5       1.0000 0.39900  0.14918  0.93921  Biso   1.000  O
  O6       1.0000 0.60100  0.64918  0.56079  Biso   1.000  O
  O7       1.0000 0.60100  0.85082  0.06079  Biso   1.000  O
  O8       1.0000 0.39900  0.35082  0.43921  Biso   1.000  O
  O9       1.0000 0.53257  0.82144  0.26074  Biso   1.000  O
  O10      1.0000 0.46743  0.32144  0.23926  Biso   1.000  O
  O11      1.0000 0.46743  0.17856  0.73926  Biso   1.000  O
  O12      1.0000 0.53257  0.67856  0.76074  Biso   1.000  O
  O13      1.0000 0.51107  0.14244  0.24555  Biso   1.000  O
  O14      1.0000 0.48893  0.64244  0.25445  Biso   1.000  O
  O15      1.0000 0.48893  0.85756  0.75445  Biso   1.000  O
  O16      1.0000 0.51107  0.35756  0.74555  Biso   1.000  O
  N1       1.0000 0.30771  0.20064  0.13780  Biso   1.000  N
  N2       1.0000 0.69229  0.70064  0.36220  Biso   1.000  N
  N3       1.0000 0.69229  0.79936  0.86220  Biso   1.000  N
  N4       1.0000 0.30771  0.29936  0.63780  Biso   1.000  N
  O17      1.0000 0.72906  0.98738  0.74252  Biso   1.000  O
  O18      1.0000 0.27094  0.48738  0.75748  Biso   1.000  O
  O19      1.0000 0.27094  0.01262  0.25748  Biso   1.000  O
  O20      1.0000 0.72906  0.51262  0.24252  Biso   1.000  O
  O21      1.0000 0.48765  0.05701  0.11209  Biso   1.000  O
  O22      1.0000 0.51235  0.55701  0.38791  Biso   1.000  O
  O23      1.0000 0.51235  0.94299  0.88791  Biso   1.000  O
  O24      1.0000 0.48765  0.44299  0.61209  Biso   1.000  O
  O25      1.0000 0.70944  0.09557  0.68328  Biso   1.000  O
  O26      1.0000 0.29056  0.59557  0.81672  Biso   1.000  O
  O27      1.0000 0.29056  0.90443  0.31672  Biso   1.000  O
  O28      1.0000 0.70944  0.40443  0.18328  Biso   1.000  O
  C1       1.0000 0.58272  0.91616  0.39430  Biso   1.000  C
  C2       1.0000 0.41728  0.41616  0.10570  Biso   1.000  C
  C3       1.0000 0.41728  0.08384  0.60570  Biso   1.000  C
  C4       1.0000 0.58272  0.58384  0.89430  Biso   1.000  C
  C5       1.0000 0.54662  0.96252  0.29980  Biso   1.000  C
  C6       1.0000 0.45338  0.46252  0.20020  Biso   1.000  C
  C7       1.0000 0.45338  0.03748  0.70020  Biso   1.000  C
  C8       1.0000 0.54662  0.53748  0.79980  Biso   1.000  C
  N5       1.0000 0.99813  0.21474  0.17940  Biso   1.000  N
  N6       1.0000 0.00187  0.71474  0.32060  Biso   1.000  N
  N7       1.0000 0.00187  0.78526  0.82060  Biso   1.000  N
  N8       1.0000 0.99813  0.28526  0.67940  Biso   1.000  N
  C9       1.0000 0.60730  0.05484  0.43990  Biso   1.000  C
  C10      1.0000 0.39270  0.55484  0.06010  Biso   1.000  C
  C11      1.0000 0.39270  0.94516  0.56010  Biso   1.000  C
  C12      1.0000 0.60730  0.44516  0.93990  Biso   1.000  C
  C13      1.0000 0.51463  0.08018  0.21720  Biso   1.000  C
  C14      1.0000 0.48537  0.58018  0.28280  Biso   1.000  C
  C15      1.0000 0.48537  0.91982  0.78280  Biso   1.000  C
  C16      1.0000 0.51463  0.41982  0.71720  Biso   1.000  C
  C17      1.0000 0.29220  0.20368  0.24730  Biso   1.000  C
  C18      1.0000 0.70780  0.70368  0.25270  Biso   1.000  C
  C19      1.0000 0.70780  0.79632  0.75270  Biso   1.000  C
  C20      1.0000 0.29220  0.29632  0.74730  Biso   1.000  C
  C21      1.0000 0.69810  0.03559  0.66040  Biso   1.000  C
  C22      1.0000 0.30190  0.53559  0.83960  Biso   1.000  C
  C23      1.0000 0.30190  0.96441  0.33960  Biso   1.000  C
  C24      1.0000 0.69810  0.46441  0.16040  Biso   1.000  C
  C25      1.0000 0.63220  0.93972  0.51180  Biso   1.000  C
  C26      1.0000 0.36780  0.43972  0.98820  Biso   1.000  C
  C27      1.0000 0.36780  0.06028  0.48820  Biso   1.000  C
  C28      1.0000 0.63220  0.56028  0.01180  Biso   1.000  C
  N9       1.0000 0.60856  0.22350  0.10870  Biso   1.000  N
  N10      1.0000 0.39144  0.72350  0.39130  Biso   1.000  N
  N11      1.0000 0.39144  0.77650  0.89130  Biso   1.000  N
  N12      1.0000 0.60856  0.27650  0.60870  Biso   1.000  N
  C29      1.0000 0.55778  0.03189  0.32210  Biso   1.000  C
  C30      1.0000 0.44222  0.53189  0.17790  Biso   1.000  C
  C31      1.0000 0.44222  0.96811  0.67790  Biso   1.000  C
  C32      1.0000 0.55778  0.46811  0.82210  Biso   1.000  C
  C33      1.0000 0.18980  0.20661  0.26160  Biso   1.000  C
  C34      1.0000 0.81020  0.70661  0.23840  Biso   1.000  C
  C35      1.0000 0.81020  0.79339  0.73840  Biso   1.000  C
  C36      1.0000 0.18980  0.29339  0.76160  Biso   1.000  C
  C37      1.0000 0.10170  0.20851  0.15910  Biso   1.000  C
  C38      1.0000 0.89830  0.70851  0.34090  Biso   1.000  C
  C39      1.0000 0.89830  0.79149  0.84090  Biso   1.000  C
  C40      1.0000 0.10170  0.29149  0.65910  Biso   1.000  C
  C41      1.0000 0.64552  0.00885  0.53460  Biso   1.000  C
  C42      1.0000 0.35448  0.50885  0.96540  Biso   1.000  C
  C43      1.0000 0.35448  0.99115  0.46540  Biso   1.000  C
  C44      1.0000 0.64552  0.49115  0.03460  Biso   1.000  C
  C45      1.0000 0.56552  0.84171  0.36830  Biso   1.000  C
  C46      1.0000 0.43448  0.34171  0.13170  Biso   1.000  C
  C47      1.0000 0.43448  0.15829  0.63170  Biso   1.000  C
  C48      1.0000 0.56552  0.65829  0.86830  Biso   1.000  C
  N13      1.0000 0.92470  0.22460  0.08380  Biso   1.000  N
  N14      1.0000 0.07530  0.72460  0.41620  Biso   1.000  N
  N15      1.0000 0.07530  0.77540  0.91620  Biso   1.000  N
  N16      1.0000 0.92470  0.27540  0.58380  Biso   1.000  N
  C49      1.0000 0.11670  0.20251  0.04530  Biso   1.000  C
  C50      1.0000 0.88330  0.70251  0.45470  Biso   1.000  C
  C51      1.0000 0.88330  0.79749  0.95470  Biso   1.000  C
  C52      1.0000 0.11670  0.29749  0.54530  Biso   1.000  C
  H1       1.0000 0.05810  0.20160  0.97510  Biso   1.000  H
  H2       1.0000 0.94190  0.70160  0.52490  Biso   1.000  H
  H3       1.0000 0.94190  0.79840  0.02490  Biso   1.000  H
  H4       1.0000 0.05810  0.29840  0.47510  Biso   1.000  H
  C53      1.0000 0.22070  0.19789  0.03940  Biso   1.000  C
  C54      1.0000 0.77930  0.69789  0.46060  Biso   1.000  C
  C55      1.0000 0.77930  0.80211  0.96060  Biso   1.000  C
  C56      1.0000 0.22070  0.30211  0.53940  Biso   1.000  C
  C57      1.0000 0.81950  0.22745  0.10040  Biso   1.000  C
  C58      1.0000 0.18050  0.72745  0.39960  Biso   1.000  C
  C59      1.0000 0.18050  0.77255  0.89960  Biso   1.000  C
  C60      1.0000 0.81950  0.27255  0.60040  Biso   1.000  C
  C61      1.0000 0.73570  0.19750  0.99140  Biso   1.000  C
  C62      1.0000 0.26430  0.69750  0.50860  Biso   1.000  C
  C63      1.0000 0.26430  0.80250  0.00860  Biso   1.000  C
  C64      1.0000 0.73570  0.30250  0.49140  Biso   1.000  C
  C65      1.0000 0.68310  0.24600  0.18670  Biso   1.000  C
  C66      1.0000 0.31690  0.74600  0.31330  Biso   1.000  C
  C67      1.0000 0.31690  0.75400  0.81330  Biso   1.000  C
  C68      1.0000 0.68310  0.25400  0.68670  Biso   1.000  C
  C69      1.0000 0.79350  0.24680  0.19000  Biso   1.000  C
  C70      1.0000 0.20650  0.74680  0.31000  Biso   1.000  C
  C71      1.0000 0.20650  0.75320  0.81000  Biso   1.000  C
  C72      1.0000 0.79350  0.25320  0.69000  Biso   1.000  C
  C73      1.0000 0.63140  0.19640  0.99920  Biso   1.000  C
  C74      1.0000 0.36860  0.69640  0.50080  Biso   1.000  C
  C75      1.0000 0.36860  0.80360  0.00080  Biso   1.000  C
  C76      1.0000 0.63140  0.30360  0.49920  Biso   1.000  C
  H5       1.0000 0.23100  0.18950  0.96800  Biso   1.000  H
  H6       1.0000 0.76900  0.68950  0.53200  Biso   1.000  H
  H7       1.0000 0.76900  0.81050  0.03200  Biso   1.000  H
  H8       1.0000 0.23100  0.31050  0.46800  Biso   1.000  H
  H9       1.0000 0.17600  0.20770  0.33500  Biso   1.000  H
  H10      1.0000 0.82400  0.70770  0.16500  Biso   1.000  H
  H11      1.0000 0.82400  0.79230  0.66500  Biso   1.000  H
  H12      1.0000 0.17600  0.29230  0.83500  Biso   1.000  H
  H13      1.0000 0.51130  0.94630  0.22100  Biso   1.000  H
  H14      1.0000 0.48870  0.44630  0.27900  Biso   1.000  H
  H15      1.0000 0.48870  0.05370  0.77900  Biso   1.000  H
  H16      1.0000 0.51130  0.55370  0.72100  Biso   1.000  H
  H17      1.0000 0.61300  0.10040  0.45700  Biso   1.000  H
  H18      1.0000 0.38700  0.60040  0.04300  Biso   1.000  H
  H19      1.0000 0.38700  0.89960  0.54300  Biso   1.000  H
  H20      1.0000 0.61300  0.39960  0.95700  Biso   1.000  H
  H21      1.0000 0.65400  0.91060  0.57100  Biso   1.000  H
  H22      1.0000 0.34600  0.41060  0.92900  Biso   1.000  H
  H23      1.0000 0.34600  0.08940  0.42900  Biso   1.000  H
  H24      1.0000 0.65400  0.58940  0.07100  Biso   1.000  H
  H25      1.0000 0.75500  0.00500  0.81900  Biso   1.000  H
  H26      1.0000 0.24500  0.50500  0.68100  Biso   1.000  H
  H27      1.0000 0.24500  0.99500  0.18100  Biso   1.000  H
  H28      1.0000 0.75500  0.49500  0.31900  Biso   1.000  H
  H29      1.0000 0.35300  0.20380  0.31000  Biso   1.000  H
  H30      1.0000 0.64700  0.70380  0.19000  Biso   1.000  H
  H31      1.0000 0.64700  0.79620  0.69000  Biso   1.000  H
  H32      1.0000 0.35300  0.29620  0.81000  Biso   1.000  H
  H33      1.0000 0.42700  0.11300  0.98000  Biso   1.000  H
  H34      1.0000 0.57300  0.61300  0.52000  Biso   1.000  H
  H35      1.0000 0.57300  0.88700  0.02000  Biso   1.000  H
  H36      1.0000 0.42700  0.38700  0.48000  Biso   1.000  H
  H37      1.0000 0.42600  0.15350  0.88100  Biso   1.000  H
  H38      1.0000 0.57400  0.65350  0.61900  Biso   1.000  H
  H39      1.0000 0.57400  0.84650  0.11900  Biso   1.000  H
  H40      1.0000 0.42600  0.34650  0.38100  Biso   1.000  H
  C77      1.0000 0.63250  0.24740  0.01900  Biso   1.000  C
  C78      1.0000 0.36750  0.74740  0.48100  Biso   1.000  C
  C79      1.0000 0.36750  0.75260  0.98100  Biso   1.000  C
  C80      1.0000 0.63250  0.25260  0.51900  Biso   1.000  C
  C81      1.0000 0.73780  0.25270  0.01110  Biso   1.000  C
  C82      1.0000 0.26220  0.75270  0.48890  Biso   1.000  C
  C83      1.0000 0.26220  0.74730  0.98890  Biso   1.000  C
  C84      1.0000 0.73780  0.24730  0.51110  Biso   1.000  C
  C85      1.0000 0.80050  0.21810  0.21970  Biso   1.000  C
  C86      1.0000 0.19950  0.71810  0.28030  Biso   1.000  C
  C87      1.0000 0.19950  0.78190  0.78030  Biso   1.000  C
  C88      1.0000 0.80050  0.28190  0.71970  Biso   1.000  C
  C89      1.0000 0.69660  0.21470  0.22040  Biso   1.000  C
  C90      1.0000 0.30340  0.71470  0.27960  Biso   1.000  C
  C91      1.0000 0.30340  0.78530  0.77960  Biso   1.000  C
  C92      1.0000 0.69660  0.28530  0.72040  Biso   1.000  C
  N17      1.0000 0.80190  0.02975  0.97060  Biso   1.000  N
  N18      1.0000 0.19810  0.52975  0.52940  Biso   1.000  N
  N19      1.0000 0.19810  0.97025  0.02940  Biso   1.000  N
  N20      1.0000 0.80190  0.47025  0.47060  Biso   1.000  N
  N21      1.0000 0.99060  0.08108  0.39580  Biso   1.000  N
  N22      1.0000 0.00940  0.58108  0.10420  Biso   1.000  N
  N23      1.0000 0.00940  0.91892  0.60420  Biso   1.000  N
  N24      1.0000 0.99060  0.41892  0.89580  Biso   1.000  N
  N25      1.0000 0.89540  0.06691  0.34670  Biso   1.000  N
  N26      1.0000 0.10460  0.56691  0.15330  Biso   1.000  N
  N27      1.0000 0.10460  0.93309  0.65330  Biso   1.000  N
  N28      1.0000 0.89540  0.43309  0.84670  Biso   1.000  N
  N29      1.0000 0.07590  0.12032  0.77380  Biso   1.000  N
  N30      1.0000 0.92410  0.62032  0.72620  Biso   1.000  N
  N31      1.0000 0.92410  0.87968  0.22620  Biso   1.000  N
  N32      1.0000 0.07590  0.37968  0.27380  Biso   1.000  N
  C93      1.0000 0.87120  0.05417  0.21830  Biso   1.000  C
  C94      1.0000 0.12880  0.55417  0.28170  Biso   1.000  C
  C95      1.0000 0.12880  0.94583  0.78170  Biso   1.000  C
  C96      1.0000 0.87120  0.44583  0.71830  Biso   1.000  C
  C97      1.0000 0.76540  0.03637  0.16050  Biso   1.000  C
  C98      1.0000 0.23460  0.53637  0.33950  Biso   1.000  C
  C99      1.0000 0.23460  0.96363  0.83950  Biso   1.000  C
  C100     1.0000 0.76540  0.46363  0.66050  Biso   1.000  C
  C101     1.0000 0.01280  0.09415  0.52480  Biso   1.000  C
  C102     1.0000 0.98720  0.59415  0.97520  Biso   1.000  C
  C103     1.0000 0.98720  0.90585  0.47520  Biso   1.000  C
  C104     1.0000 0.01280  0.40585  0.02480  Biso   1.000  C
  C105     1.0000 0.14680  0.11805  0.71140  Biso   1.000  C
  C106     1.0000 0.85320  0.61805  0.78860  Biso   1.000  C
  C107     1.0000 0.85320  0.88195  0.28860  Biso   1.000  C
  C108     1.0000 0.14680  0.38195  0.21140  Biso   1.000  C
  C109     1.0000 0.90410  0.04816  0.02700  Biso   1.000  C
  C110     1.0000 0.09590  0.54816  0.47300  Biso   1.000  C
  C111     1.0000 0.09590  0.95184  0.97300  Biso   1.000  C
  C112     1.0000 0.90410  0.45184  0.52700  Biso   1.000  C
  C113     1.0000 0.12050  0.10524  0.58770  Biso   1.000  C
  C114     1.0000 0.87950  0.60524  0.91230  Biso   1.000  C
  C115     1.0000 0.87950  0.89476  0.41230  Biso   1.000  C
  C116     1.0000 0.12050  0.39476  0.08770  Biso   1.000  C
  C117     1.0000 0.93690  0.09570  0.58730  Biso   1.000  C
  C118     1.0000 0.06310  0.59570  0.91270  Biso   1.000  C
  C119     1.0000 0.06310  0.90430  0.41270  Biso   1.000  C
  C120     1.0000 0.93690  0.40430  0.08730  Biso   1.000  C
  C121     1.0000 0.94310  0.05928  0.15060  Biso   1.000  C
  C122     1.0000 0.05690  0.55928  0.34940  Biso   1.000  C
  C123     1.0000 0.05690  0.94072  0.84940  Biso   1.000  C
  C124     1.0000 0.94310  0.44072  0.65060  Biso   1.000  C
  C125     1.0000 0.73410  0.02395  0.03750  Biso   1.000  C
  C126     1.0000 0.26590  0.52395  0.46250  Biso   1.000  C
  C127     1.0000 0.26590  0.97605  0.96250  Biso   1.000  C
  C128     1.0000 0.73410  0.47605  0.53750  Biso   1.000  C
  C129     1.0000 0.97260  0.10903  0.71090  Biso   1.000  C
  C130     1.0000 0.02740  0.60903  0.78910  Biso   1.000  C
  C131     1.0000 0.02740  0.89097  0.28910  Biso   1.000  C
  C132     1.0000 0.97260  0.39097  0.21090  Biso   1.000  C
  H41      1.0000 0.92160  0.11020  0.75300  Biso   1.000  H
  H42      1.0000 0.07840  0.61020  0.74700  Biso   1.000  H
  H43      1.0000 0.07840  0.88980  0.24700  Biso   1.000  H
  H44      1.0000 0.92160  0.38980  0.25300  Biso   1.000  H
  H45      1.0000 0.86400  0.09000  0.54600  Biso   1.000  H
  H46      1.0000 0.13600  0.59000  0.95400  Biso   1.000  H
  H47      1.0000 0.13600  0.91000  0.45400  Biso   1.000  H
  H48      1.0000 0.86400  0.41000  0.04600  Biso   1.000  H
  H49      1.0000 0.01600  0.06940  0.18500  Biso   1.000  H
  H50      1.0000 0.98400  0.56940  0.31500  Biso   1.000  H
  H51      1.0000 0.98400  0.93060  0.81500  Biso   1.000  H
  H52      1.0000 0.01600  0.43060  0.68500  Biso   1.000  H
  H53      1.0000 0.95100  0.05200  0.98200  Biso   1.000  H
  H54      1.0000 0.04900  0.55200  0.51800  Biso   1.000  H
  H55      1.0000 0.04900  0.94800  0.01800  Biso   1.000  H
  H56      1.0000 0.95100  0.44800  0.48200  Biso   1.000  H
  H57      1.0000 0.22200  0.12500  0.75400  Biso   1.000  H
  H58      1.0000 0.77800  0.62500  0.74600  Biso   1.000  H
  H59      1.0000 0.77800  0.87500  0.24600  Biso   1.000  H
  H60      1.0000 0.22200  0.37500  0.25400  Biso   1.000  H
  H61      1.0000 0.18000  0.10450  0.54500  Biso   1.000  H
  H62      1.0000 0.82000  0.60450  0.95500  Biso   1.000  H
  H63      1.0000 0.82000  0.89550  0.45500  Biso   1.000  H
  H64      1.0000 0.18000  0.39550  0.04500  Biso   1.000  H
  H65      1.0000 0.65900  0.01430  0.99800  Biso   1.000  H
  H66      1.0000 0.34100  0.51430  0.50200  Biso   1.000  H
  H67      1.0000 0.34100  0.98570  0.00200  Biso   1.000  H
  H68      1.0000 0.65900  0.48570  0.49800  Biso   1.000  H
  H69      1.0000 0.71800  0.02850  0.20600  Biso   1.000  H
  H70      1.0000 0.28200  0.52850  0.29400  Biso   1.000  H
  H71      1.0000 0.28200  0.97150  0.79400  Biso   1.000  H
  H72      1.0000 0.71800  0.47150  0.70600  Biso   1.000  H
