data_image0
_cell_length_a       7.172
_cell_length_b       9.887
_cell_length_c       10.202
_cell_angle_alpha    103.611
_cell_angle_beta     101.587
_cell_angle_gamma    90.322

_symmetry_space_group_name_H-M    "P 1"
_symmetry_int_tables_number       1

loop_
  _symmetry_equiv_pos_as_xyz
  'x, y, z'

loop_
  _atom_site_label
  _atom_site_occupancy
  _atom_site_fract_x
  _atom_site_fract_y
  _atom_site_fract_z
  _atom_site_thermal_displace_type
  _atom_site_B_iso_or_equiv
  _atom_site_type_symbol
  Cu1      1.0000 0.74905  0.37013  0.12967  Biso   1.000  Cu
  Cu2      1.0000 0.25095  0.62987  0.87033  Biso   1.000  Cu
  O1       1.0000 0.80360  0.42480  0.33730  Biso   1.000  O
  O2       1.0000 0.19640  0.57520  0.66270  Biso   1.000  O
  O3       1.0000 0.23960  0.47750  0.30420  Biso   1.000  O
  O4       1.0000 0.76040  0.52250  0.69580  Biso   1.000  O
  O5       1.0000 0.38340  0.38560  0.14250  Biso   1.000  O
  O6       1.0000 0.61660  0.61440  0.85750  Biso   1.000  O
  O7       1.0000 0.67070  0.31160  0.93760  Biso   1.000  O
  O8       1.0000 0.32930  0.68840  0.06240  Biso   1.000  O
  N1       1.0000 0.74510  0.18250  0.15740  Biso   1.000  N
  N2       1.0000 0.25490  0.81750  0.84260  Biso   1.000  N
  N3       1.0000 0.73370  0.57340  0.14630  Biso   1.000  N
  N4       1.0000 0.26630  0.42660  0.85370  Biso   1.000  N
  H1       1.0000 0.79960  0.60020  0.08950  Biso   1.000  H
  H2       1.0000 0.20040  0.39980  0.91050  Biso   1.000  H
  H3       1.0000 0.61150  0.59430  0.12280  Biso   1.000  H
  H4       1.0000 0.38850  0.40570  0.87720  Biso   1.000  H
  N5       1.0000 0.23420  0.41640  0.18360  Biso   1.000  N
  N6       1.0000 0.76580  0.58360  0.81640  Biso   1.000  N
  C1       1.0000 0.75180  0.94020  0.82600  Biso   1.000  C
  C2       1.0000 0.24820  0.05980  0.17400  Biso   1.000  C
  H5       1.0000 0.77430  0.86050  0.85910  Biso   1.000  H
  H6       1.0000 0.22570  0.13950  0.14090  Biso   1.000  H
  C3       1.0000 0.73790  0.93000  0.68830  Biso   1.000  C
  C4       1.0000 0.26210  0.07000  0.31170  Biso   1.000  C
  H7       1.0000 0.75040  0.84460  0.62960  Biso   1.000  H
  H8       1.0000 0.24960  0.15540  0.37040  Biso   1.000  H
  C5       1.0000 0.70510  0.04720  0.63630  Biso   1.000  C
  C6       1.0000 0.29490  0.95280  0.36370  Biso   1.000  C
  H9       1.0000 0.69660  0.04110  0.54290  Biso   1.000  H
  H10      1.0000 0.30340  0.95890  0.45710  Biso   1.000  H
  C7       1.0000 0.68530  0.17220  0.72370  Biso   1.000  C
  C8       1.0000 0.31470  0.82780  0.27630  Biso   1.000  C
  H11      1.0000 0.66350  0.25030  0.68800  Biso   1.000  H
  H12      1.0000 0.33650  0.74970  0.31200  Biso   1.000  H
  C9       1.0000 0.69690  0.18650  0.86600  Biso   1.000  C
  C10      1.0000 0.30310  0.81350  0.13400  Biso   1.000  C
  C11      1.0000 0.73330  0.06690  0.91980  Biso   1.000  C
  C12      1.0000 0.26670  0.93310  0.08020  Biso   1.000  C
  C13      1.0000 0.74720  0.06710  0.06540  Biso   1.000  C
  C14      1.0000 0.25280  0.93290  0.93460  Biso   1.000  C
  C15      1.0000 0.76440  0.93050  0.10670  Biso   1.000  C
  C16      1.0000 0.23560  0.06950  0.89330  Biso   1.000  C
  H13      1.0000 0.89500  0.90600  0.11840  Biso   1.000  H
  H14      1.0000 0.10500  0.09400  0.88160  Biso   1.000  H
  H15      1.0000 0.68660  0.85930  0.03610  Biso   1.000  H
  H16      1.0000 0.31340  0.14070  0.96390  Biso   1.000  H
  H17      1.0000 0.72270  0.93930  0.19190  Biso   1.000  H
  H18      1.0000 0.27730  0.06070  0.80810  Biso   1.000  H
  C17      1.0000 0.81480  0.64640  0.29060  Biso   1.000  C
  C18      1.0000 0.18520  0.35360  0.70940  Biso   1.000  C
  H19      1.0000 0.77050  0.74020  0.30990  Biso   1.000  H
  H20      1.0000 0.22950  0.25980  0.69010  Biso   1.000  H
  H21      1.0000 0.95280  0.65280  0.30610  Biso   1.000  H
  H22      1.0000 0.04720  0.34720  0.69390  Biso   1.000  H
  C19      1.0000 0.75200  0.56570  0.38450  Biso   1.000  C
  C20      1.0000 0.24800  0.43430  0.61550  Biso   1.000  C
  H23      1.0000 0.81610  0.60420  0.47950  Biso   1.000  H
  H24      1.0000 0.18390  0.39580  0.52050  Biso   1.000  H
  H25      1.0000 0.61540  0.56880  0.37840  Biso   1.000  H
  H26      1.0000 0.38460  0.43120  0.62160  Biso   1.000  H
  C21      1.0000 0.70790  0.32080  0.38140  Biso   1.000  C
  C22      1.0000 0.29210  0.67920  0.61860  Biso   1.000  C
  H27      1.0000 0.57110  0.32950  0.36110  Biso   1.000  H
  H28      1.0000 0.42890  0.67050  0.63890  Biso   1.000  H
  H29      1.0000 0.75010  0.33080  0.47990  Biso   1.000  H
  H30      1.0000 0.24990  0.66920  0.52010  Biso   1.000  H
  C23      1.0000 0.75870  0.18190  0.30270  Biso   1.000  C
  C24      1.0000 0.24130  0.81810  0.69730  Biso   1.000  C
  H31      1.0000 0.88750  0.16290  0.34260  Biso   1.000  H
  H32      1.0000 0.11250  0.83710  0.65740  Biso   1.000  H
  H33      1.0000 0.67270  0.10880  0.30930  Biso   1.000  H
  H34      1.0000 0.32730  0.89120  0.69070  Biso   1.000  H
  O9       1.0000 0.07830  0.38350  0.09900  Biso   1.000  O
  O10      1.0000 0.92170  0.61650  0.90100  Biso   1.000  O
