data_image0
_cell_length_a       13.074
_cell_length_b       15.573
_cell_length_c       7.6545
_cell_angle_alpha    90
_cell_angle_beta     95.657
_cell_angle_gamma    90

_symmetry_space_group_name_H-M    "P 1"
_symmetry_int_tables_number       1

loop_
  _symmetry_equiv_pos_as_xyz
  'x, y, z'

loop_
  _atom_site_label
  _atom_site_occupancy
  _atom_site_fract_x
  _atom_site_fract_y
  _atom_site_fract_z
  _atom_site_thermal_displace_type
  _atom_site_B_iso_or_equiv
  _atom_site_type_symbol
  Cu1      1.0000 0.17432  0.16726  0.11643  Biso   1.000  Cu
  Cu2      1.0000 0.82568  0.66726  0.38357  Biso   1.000  Cu
  Cu3      1.0000 0.82568  0.83274  0.88357  Biso   1.000  Cu
  Cu4      1.0000 0.17432  0.33274  0.61643  Biso   1.000  Cu
  Cl1      1.0000 0.08466  0.25331  0.91714  Biso   1.000  Cl
  Cl2      1.0000 0.91534  0.75331  0.58286  Biso   1.000  Cl
  Cl3      1.0000 0.91534  0.74669  0.08286  Biso   1.000  Cl
  Cl4      1.0000 0.08466  0.24669  0.41714  Biso   1.000  Cl
  S1       1.0000 0.31632  0.24187  0.08148  Biso   1.000  S
  S2       1.0000 0.68368  0.74187  0.41852  Biso   1.000  S
  S3       1.0000 0.68368  0.75813  0.91852  Biso   1.000  S
  S4       1.0000 0.31632  0.25813  0.58148  Biso   1.000  S
  O1       1.0000 0.04980  0.09942  0.13570  Biso   1.000  O
  O2       1.0000 0.95020  0.59942  0.36430  Biso   1.000  O
  O3       1.0000 0.95020  0.90058  0.86430  Biso   1.000  O
  O4       1.0000 0.04980  0.40058  0.63570  Biso   1.000  O
  N1       1.0000 0.49660  0.20610  0.25400  Biso   1.000  N
  N2       1.0000 0.50340  0.70610  0.24600  Biso   1.000  N
  N3       1.0000 0.50340  0.79390  0.74600  Biso   1.000  N
  N4       1.0000 0.49660  0.29390  0.75400  Biso   1.000  N
  H1       1.0000 0.53880  0.17380  0.32260  Biso   1.000  H
  H2       1.0000 0.46120  0.67380  0.17740  Biso   1.000  H
  H3       1.0000 0.46120  0.82620  0.67740  Biso   1.000  H
  H4       1.0000 0.53880  0.32620  0.82260  Biso   1.000  H
  H5       1.0000 0.51900  0.25380  0.20930  Biso   1.000  H
  H6       1.0000 0.48100  0.75380  0.29070  Biso   1.000  H
  H7       1.0000 0.48100  0.74620  0.79070  Biso   1.000  H
  H8       1.0000 0.51900  0.24620  0.70930  Biso   1.000  H
  N5       1.0000 0.36890  0.10970  0.28910  Biso   1.000  N
  N6       1.0000 0.63110  0.60970  0.21090  Biso   1.000  N
  N7       1.0000 0.63110  0.89030  0.71090  Biso   1.000  N
  N8       1.0000 0.36890  0.39030  0.78910  Biso   1.000  N
  H9       1.0000 0.41320  0.07630  0.35070  Biso   1.000  H
  H10      1.0000 0.58680  0.57630  0.14930  Biso   1.000  H
  H11      1.0000 0.58680  0.92370  0.64930  Biso   1.000  H
  H12      1.0000 0.41320  0.42370  0.85070  Biso   1.000  H
  N9       1.0000 0.26560  0.08770  0.26330  Biso   1.000  N
  N10      1.0000 0.73440  0.58770  0.23670  Biso   1.000  N
  N11      1.0000 0.73440  0.91230  0.73670  Biso   1.000  N
  N12      1.0000 0.26560  0.41230  0.76330  Biso   1.000  N
  N13      1.0000 0.96570  0.98110  0.24060  Biso   1.000  N
  N14      1.0000 0.03430  0.48110  0.25940  Biso   1.000  N
  N15      1.0000 0.03430  0.01890  0.75940  Biso   1.000  N
  N16      1.0000 0.96570  0.51890  0.74060  Biso   1.000  N
  N17      1.0000 0.99770  0.90980  0.33920  Biso   1.000  N
  N18      1.0000 0.00230  0.40980  0.16080  Biso   1.000  N
  N19      1.0000 0.00230  0.09020  0.66080  Biso   1.000  N
  N20      1.0000 0.99770  0.59020  0.83920  Biso   1.000  N
  H13      1.0000 0.95670  0.86920  0.37150  Biso   1.000  H
  H14      1.0000 0.04330  0.36920  0.12850  Biso   1.000  H
  H15      1.0000 0.04330  0.13080  0.62850  Biso   1.000  H
  H16      1.0000 0.95670  0.63080  0.87150  Biso   1.000  H
  C1       1.0000 0.39980  0.18280  0.21830  Biso   1.000  C
  C2       1.0000 0.60020  0.68280  0.28170  Biso   1.000  C
  C3       1.0000 0.60020  0.81720  0.78170  Biso   1.000  C
  C4       1.0000 0.39980  0.31720  0.71830  Biso   1.000  C
  C5       1.0000 0.24100  0.01690  0.33510  Biso   1.000  C
  C6       1.0000 0.75900  0.51690  0.16490  Biso   1.000  C
  C7       1.0000 0.75900  0.98310  0.66490  Biso   1.000  C
  C8       1.0000 0.24100  0.48310  0.83510  Biso   1.000  C
  H17      1.0000 0.29250  0.98390  0.40070  Biso   1.000  H
  H18      1.0000 0.70750  0.48390  0.09930  Biso   1.000  H
  H19      1.0000 0.70750  0.01610  0.59930  Biso   1.000  H
  H20      1.0000 0.29250  0.51610  0.90070  Biso   1.000  H
  C9       1.0000 0.13650  0.98730  0.31680  Biso   1.000  C
  C10      1.0000 0.86350  0.48730  0.18320  Biso   1.000  C
  C11      1.0000 0.86350  0.01270  0.68320  Biso   1.000  C
  C12      1.0000 0.13650  0.51270  0.81680  Biso   1.000  C
  C13      1.0000 0.05210  0.03050  0.22350  Biso   1.000  C
  C14      1.0000 0.94790  0.53050  0.27650  Biso   1.000  C
  C15      1.0000 0.94790  0.96950  0.77650  Biso   1.000  C
  C16      1.0000 0.05210  0.46950  0.72350  Biso   1.000  C
  C17      1.0000 0.09950  0.91140  0.37850  Biso   1.000  C
  C18      1.0000 0.90050  0.41140  0.12150  Biso   1.000  C
  C19      1.0000 0.90050  0.08860  0.62150  Biso   1.000  C
  C20      1.0000 0.09950  0.58860  0.87850  Biso   1.000  C
  C21      1.0000 0.85980  0.99860  0.19110  Biso   1.000  C
  C22      1.0000 0.14020  0.49860  0.30890  Biso   1.000  C
  C23      1.0000 0.14020  0.00140  0.80890  Biso   1.000  C
  C24      1.0000 0.85980  0.50140  0.69110  Biso   1.000  C
  C25      1.0000 0.83110  0.07110  0.09350  Biso   1.000  C
  C26      1.0000 0.16890  0.57110  0.40650  Biso   1.000  C
  C27      1.0000 0.16890  0.92890  0.90650  Biso   1.000  C
  C28      1.0000 0.83110  0.42890  0.59350  Biso   1.000  C
  H21      1.0000 0.88210  0.10890  0.05740  Biso   1.000  H
  H22      1.0000 0.11790  0.60890  0.44260  Biso   1.000  H
  H23      1.0000 0.11790  0.89110  0.94260  Biso   1.000  H
  H24      1.0000 0.88210  0.39110  0.55740  Biso   1.000  H
  C29      1.0000 0.72810  0.08840  0.04870  Biso   1.000  C
  C30      1.0000 0.27190  0.58840  0.45130  Biso   1.000  C
  C31      1.0000 0.27190  0.91160  0.95130  Biso   1.000  C
  C32      1.0000 0.72810  0.41160  0.54870  Biso   1.000  C
  H25      1.0000 0.70830  0.13850  0.98340  Biso   1.000  H
  H26      1.0000 0.29170  0.63850  0.51660  Biso   1.000  H
  H27      1.0000 0.29170  0.86150  0.01660  Biso   1.000  H
  H28      1.0000 0.70830  0.36150  0.48340  Biso   1.000  H
  C33      1.0000 0.65340  0.03230  0.09910  Biso   1.000  C
  C34      1.0000 0.34660  0.53230  0.40090  Biso   1.000  C
  C35      1.0000 0.34660  0.96770  0.90090  Biso   1.000  C
  C36      1.0000 0.65340  0.46770  0.59910  Biso   1.000  C
  H29      1.0000 0.58270  0.04340  0.06580  Biso   1.000  H
  H30      1.0000 0.41730  0.54340  0.43420  Biso   1.000  H
  H31      1.0000 0.41730  0.95660  0.93420  Biso   1.000  H
  H32      1.0000 0.58270  0.45660  0.56580  Biso   1.000  H
  C37      1.0000 0.68210  0.96120  0.19680  Biso   1.000  C
  C38      1.0000 0.31790  0.46120  0.30320  Biso   1.000  C
  C39      1.0000 0.31790  0.03880  0.80320  Biso   1.000  C
  C40      1.0000 0.68210  0.53880  0.69680  Biso   1.000  C
  H33      1.0000 0.63090  0.92370  0.23350  Biso   1.000  H
  H34      1.0000 0.36910  0.42370  0.26650  Biso   1.000  H
  H35      1.0000 0.36910  0.07630  0.76650  Biso   1.000  H
  H36      1.0000 0.63090  0.57630  0.73350  Biso   1.000  H
  C41      1.0000 0.78550  0.94320  0.24290  Biso   1.000  C
  C42      1.0000 0.21450  0.44320  0.25710  Biso   1.000  C
  C43      1.0000 0.21450  0.05680  0.75710  Biso   1.000  C
  C44      1.0000 0.78550  0.55680  0.74290  Biso   1.000  C
  H37      1.0000 0.80510  0.89330  0.30950  Biso   1.000  H
  H38      1.0000 0.19490  0.39330  0.19050  Biso   1.000  H
  H39      1.0000 0.19490  0.10670  0.69050  Biso   1.000  H
  H40      1.0000 0.80510  0.60670  0.80950  Biso   1.000  H
  C45      1.0000 0.15570  0.83830  0.46950  Biso   1.000  C
  C46      1.0000 0.84430  0.33830  0.03050  Biso   1.000  C
  C47      1.0000 0.84430  0.16170  0.53050  Biso   1.000  C
  C48      1.0000 0.15570  0.66170  0.96950  Biso   1.000  C
  H41      1.0000 0.11230  0.81160  0.55170  Biso   1.000  H
  H42      1.0000 0.88770  0.31160  0.94830  Biso   1.000  H
  H43      1.0000 0.88770  0.18840  0.44830  Biso   1.000  H
  H44      1.0000 0.11230  0.68840  0.05170  Biso   1.000  H
  H45      1.0000 0.21920  0.85940  0.53410  Biso   1.000  H
  H46      1.0000 0.78080  0.35940  0.96590  Biso   1.000  H
  H47      1.0000 0.78080  0.14060  0.46590  Biso   1.000  H
  H48      1.0000 0.21920  0.64060  0.03410  Biso   1.000  H
  H49      1.0000 0.17270  0.79570  0.38250  Biso   1.000  H
  H50      1.0000 0.82730  0.29570  0.11750  Biso   1.000  H
  H51      1.0000 0.82730  0.20430  0.61750  Biso   1.000  H
  H52      1.0000 0.17270  0.70430  0.88250  Biso   1.000  H
  Cl5      1.0000 0.44438  0.89091  0.39041  Biso   1.000  Cl
  Cl6      1.0000 0.55562  0.39091  0.10959  Biso   1.000  Cl
  Cl7      1.0000 0.55562  0.10909  0.60959  Biso   1.000  Cl
  Cl8      1.0000 0.44438  0.60909  0.89041  Biso   1.000  Cl
