data_image0
_cell_length_a       14.4793
_cell_length_b       14.4793
_cell_length_c       26.3306
_cell_angle_alpha    90
_cell_angle_beta     90
_cell_angle_gamma    90

_symmetry_space_group_name_H-M    "P 1"
_symmetry_int_tables_number       1

loop_
  _symmetry_equiv_pos_as_xyz
  'x, y, z'

loop_
  _atom_site_label
  _atom_site_occupancy
  _atom_site_fract_x
  _atom_site_fract_y
  _atom_site_fract_z
  _atom_site_thermal_displace_type
  _atom_site_B_iso_or_equiv
  _atom_site_type_symbol
  O1       1.0000 0.17920  0.34890  0.35960  Biso   1.000  O
  O2       1.0000 0.82080  0.65110  0.85960  Biso   1.000  O
  O3       1.0000 0.15110  0.67920  0.60960  Biso   1.000  O
  O4       1.0000 0.84890  0.32080  0.10960  Biso   1.000  O
  O5       1.0000 0.32080  0.84890  0.89040  Biso   1.000  O
  O6       1.0000 0.67920  0.15110  0.39040  Biso   1.000  O
  O7       1.0000 0.34890  0.17920  0.64040  Biso   1.000  O
  O8       1.0000 0.65110  0.82080  0.14040  Biso   1.000  O
  O9       1.0000 0.72460  0.44700  0.07330  Biso   1.000  O
  O10      1.0000 0.27540  0.55300  0.57330  Biso   1.000  O
  O11      1.0000 0.05300  0.22460  0.32330  Biso   1.000  O
  O12      1.0000 0.94700  0.77540  0.82330  Biso   1.000  O
  O13      1.0000 0.77540  0.94700  0.17670  Biso   1.000  O
  O14      1.0000 0.22460  0.05300  0.67670  Biso   1.000  O
  O15      1.0000 0.44700  0.72460  0.92670  Biso   1.000  O
  O16      1.0000 0.55300  0.27540  0.42670  Biso   1.000  O
  O17      1.0000 0.36520  0.42530  0.32270  Biso   1.000  O
  O18      1.0000 0.63480  0.57470  0.82270  Biso   1.000  O
  O19      1.0000 0.07470  0.86520  0.57270  Biso   1.000  O
  O20      1.0000 0.92530  0.13480  0.07270  Biso   1.000  O
  O21      1.0000 0.13480  0.92530  0.92730  Biso   1.000  O
  O22      1.0000 0.86520  0.07470  0.42730  Biso   1.000  O
  O23      1.0000 0.42530  0.36520  0.67730  Biso   1.000  O
  O24      1.0000 0.57470  0.63480  0.17730  Biso   1.000  O
  O25      1.0000 0.63060  0.69840  0.07390  Biso   1.000  O
  O26      1.0000 0.36940  0.30160  0.57390  Biso   1.000  O
  O27      1.0000 0.80160  0.13060  0.32390  Biso   1.000  O
  O28      1.0000 0.19840  0.86940  0.82390  Biso   1.000  O
  O29      1.0000 0.86940  0.19840  0.17610  Biso   1.000  O
  O30      1.0000 0.13060  0.80160  0.67610  Biso   1.000  O
  O31      1.0000 0.69840  0.63060  0.92610  Biso   1.000  O
  O32      1.0000 0.30160  0.36940  0.42610  Biso   1.000  O
  O33      1.0000 0.72200  0.72200  0.00000  Biso   1.000  O
  O34      1.0000 0.27800  0.27800  0.50000  Biso   1.000  O
  O35      1.0000 0.77800  0.22200  0.25000  Biso   1.000  O
  O36      1.0000 0.22200  0.77800  0.75000  Biso   1.000  O
  O37      1.0000 0.87160  0.51300  0.08980  Biso   1.000  O
  O38      1.0000 0.12840  0.48700  0.58980  Biso   1.000  O
  O39      1.0000 0.98700  0.37160  0.33980  Biso   1.000  O
  O40      1.0000 0.01300  0.62840  0.83980  Biso   1.000  O
  O41      1.0000 0.62840  0.01300  0.16020  Biso   1.000  O
  O42      1.0000 0.37160  0.98700  0.66020  Biso   1.000  O
  O43      1.0000 0.51300  0.87160  0.91020  Biso   1.000  O
  O44      1.0000 0.48700  0.12840  0.41020  Biso   1.000  O
  O45      1.0000 0.79210  0.69400  0.07760  Biso   1.000  O
  O46      1.0000 0.20790  0.30600  0.57760  Biso   1.000  O
  O47      1.0000 0.80600  0.29210  0.32760  Biso   1.000  O
  O48      1.0000 0.19400  0.70790  0.82760  Biso   1.000  O
  O49      1.0000 0.70790  0.19400  0.17240  Biso   1.000  O
  O50      1.0000 0.29210  0.80600  0.67240  Biso   1.000  O
  O51      1.0000 0.69400  0.79210  0.92240  Biso   1.000  O
  O52      1.0000 0.30600  0.20790  0.42240  Biso   1.000  O
  N1       1.0000 0.00800  0.59730  0.96810  Biso   1.000  N
  N2       1.0000 0.99200  0.40270  0.46810  Biso   1.000  N
  N3       1.0000 0.90270  0.50800  0.21810  Biso   1.000  N
  N4       1.0000 0.09730  0.49200  0.71810  Biso   1.000  N
  N5       1.0000 0.49200  0.09730  0.28190  Biso   1.000  N
  N6       1.0000 0.50800  0.90270  0.78190  Biso   1.000  N
  N7       1.0000 0.59730  0.00800  0.03190  Biso   1.000  N
  N8       1.0000 0.40270  0.99200  0.53190  Biso   1.000  N
  H1       1.0000 0.06420  0.58030  0.96320  Biso   1.000  H
  H2       1.0000 0.93580  0.41970  0.46320  Biso   1.000  H
  H3       1.0000 0.91970  0.56420  0.21320  Biso   1.000  H
  H4       1.0000 0.08030  0.43580  0.71320  Biso   1.000  H
  H5       1.0000 0.43580  0.08030  0.28680  Biso   1.000  H
  H6       1.0000 0.56420  0.91970  0.78680  Biso   1.000  H
  H7       1.0000 0.58030  0.06420  0.03680  Biso   1.000  H
  H8       1.0000 0.41970  0.93580  0.53680  Biso   1.000  H
  H9       1.0000 0.96330  0.56260  0.95820  Biso   1.000  H
  H10      1.0000 0.03670  0.43740  0.45820  Biso   1.000  H
  H11      1.0000 0.93740  0.46330  0.20820  Biso   1.000  H
  H12      1.0000 0.06260  0.53670  0.70820  Biso   1.000  H
  H13      1.0000 0.53670  0.06260  0.29180  Biso   1.000  H
  H14      1.0000 0.46330  0.93740  0.79180  Biso   1.000  H
  H15      1.0000 0.56260  0.96330  0.04180  Biso   1.000  H
  H16      1.0000 0.43740  0.03670  0.54180  Biso   1.000  H
  Cu1      1.0000 0.24279  0.37378  0.04144  Biso   1.000  Cu
  Cu2      1.0000 0.75721  0.62622  0.54144  Biso   1.000  Cu
  Cu3      1.0000 0.12622  0.74279  0.29144  Biso   1.000  Cu
  Cu4      1.0000 0.87378  0.25721  0.79144  Biso   1.000  Cu
  Cu5      1.0000 0.25721  0.87378  0.20856  Biso   1.000  Cu
  Cu6      1.0000 0.74279  0.12622  0.70856  Biso   1.000  Cu
  Cu7      1.0000 0.37378  0.24279  0.95856  Biso   1.000  Cu
  Cu8      1.0000 0.62622  0.75721  0.45856  Biso   1.000  Cu
  N9       1.0000 0.33000  0.47610  0.03384  Biso   1.000  N
  N10      1.0000 0.67000  0.52390  0.53384  Biso   1.000  N
  N11      1.0000 0.02390  0.83000  0.28384  Biso   1.000  N
  N12      1.0000 0.97610  0.17000  0.78384  Biso   1.000  N
  N13      1.0000 0.17000  0.97610  0.21616  Biso   1.000  N
  N14      1.0000 0.83000  0.02390  0.71616  Biso   1.000  N
  N15      1.0000 0.47610  0.33000  0.96616  Biso   1.000  N
  N16      1.0000 0.52390  0.67000  0.46616  Biso   1.000  N
  N17      1.0000 0.40750  0.59550  0.00580  Biso   1.000  N
  N18      1.0000 0.59250  0.40450  0.50580  Biso   1.000  N
  N19      1.0000 0.90450  0.90750  0.25580  Biso   1.000  N
  N20      1.0000 0.09550  0.09250  0.75580  Biso   1.000  N
  N21      1.0000 0.09250  0.09550  0.24420  Biso   1.000  N
  N22      1.0000 0.90750  0.90450  0.74420  Biso   1.000  N
  N23      1.0000 0.59550  0.40750  0.99420  Biso   1.000  N
  N24      1.0000 0.40450  0.59250  0.49420  Biso   1.000  N
  H17      1.0000 0.42570  0.63950  0.98630  Biso   1.000  H
  H18      1.0000 0.57430  0.36050  0.48630  Biso   1.000  H
  H19      1.0000 0.86050  0.92570  0.23630  Biso   1.000  H
  H20      1.0000 0.13950  0.07430  0.73630  Biso   1.000  H
  H21      1.0000 0.07430  0.13950  0.26370  Biso   1.000  H
  H22      1.0000 0.92570  0.86050  0.76370  Biso   1.000  H
  H23      1.0000 0.63950  0.42570  0.01370  Biso   1.000  H
  H24      1.0000 0.36050  0.57430  0.51370  Biso   1.000  H
  C1       1.0000 0.39560  0.45200  0.11950  Biso   1.000  C
  C2       1.0000 0.60440  0.54800  0.61950  Biso   1.000  C
  C3       1.0000 0.04800  0.89560  0.36950  Biso   1.000  C
  C4       1.0000 0.95200  0.10440  0.86950  Biso   1.000  C
  C5       1.0000 0.10440  0.95200  0.13050  Biso   1.000  C
  C6       1.0000 0.89560  0.04800  0.63050  Biso   1.000  C
  C7       1.0000 0.45200  0.39560  0.88050  Biso   1.000  C
  C8       1.0000 0.54800  0.60440  0.38050  Biso   1.000  C
  H25      1.0000 0.43730  0.48420  0.14220  Biso   1.000  H
  H26      1.0000 0.56270  0.51580  0.64220  Biso   1.000  H
  H27      1.0000 0.01580  0.93730  0.39220  Biso   1.000  H
  H28      1.0000 0.98420  0.06270  0.89220  Biso   1.000  H
  H29      1.0000 0.06270  0.98420  0.10780  Biso   1.000  H
  H30      1.0000 0.93730  0.01580  0.60780  Biso   1.000  H
  H31      1.0000 0.48420  0.43730  0.85780  Biso   1.000  H
  H32      1.0000 0.51580  0.56270  0.35780  Biso   1.000  H
  H33      1.0000 0.42130  0.39120  0.11310  Biso   1.000  H
  H34      1.0000 0.57870  0.60880  0.61310  Biso   1.000  H
  H35      1.0000 0.10880  0.92130  0.36310  Biso   1.000  H
  H36      1.0000 0.89120  0.07870  0.86310  Biso   1.000  H
  H37      1.0000 0.07870  0.89120  0.13690  Biso   1.000  H
  H38      1.0000 0.92130  0.10880  0.63690  Biso   1.000  H
  H39      1.0000 0.39120  0.42130  0.88690  Biso   1.000  H
  H40      1.0000 0.60880  0.57870  0.38690  Biso   1.000  H
  C9       1.0000 0.43840  0.57710  0.05310  Biso   1.000  C
  C10      1.0000 0.56160  0.42290  0.55310  Biso   1.000  C
  C11      1.0000 0.92290  0.93840  0.30310  Biso   1.000  C
  C12      1.0000 0.07710  0.06160  0.80310  Biso   1.000  C
  C13      1.0000 0.06160  0.07710  0.19690  Biso   1.000  C
  C14      1.0000 0.93840  0.92290  0.69690  Biso   1.000  C
  C15      1.0000 0.57710  0.43840  0.94690  Biso   1.000  C
  C16      1.0000 0.42290  0.56160  0.44690  Biso   1.000  C
  H41      1.0000 0.48420  0.60920  0.07050  Biso   1.000  H
  H42      1.0000 0.51580  0.39080  0.57050  Biso   1.000  H
  H43      1.0000 0.89080  0.98420  0.32050  Biso   1.000  H
  H44      1.0000 0.10920  0.01580  0.82050  Biso   1.000  H
  H45      1.0000 0.01580  0.10920  0.17950  Biso   1.000  H
  H46      1.0000 0.98420  0.89080  0.67950  Biso   1.000  H
  H47      1.0000 0.60920  0.48420  0.92950  Biso   1.000  H
  H48      1.0000 0.39080  0.51580  0.42950  Biso   1.000  H
  C17      1.0000 0.34320  0.53200  0.99490  Biso   1.000  C
  C18      1.0000 0.65680  0.46800  0.49490  Biso   1.000  C
  C19      1.0000 0.96800  0.84320  0.24490  Biso   1.000  C
  C20      1.0000 0.03200  0.15680  0.74490  Biso   1.000  C
  C21      1.0000 0.15680  0.03200  0.25510  Biso   1.000  C
  C22      1.0000 0.84320  0.96800  0.75510  Biso   1.000  C
  C23      1.0000 0.53200  0.34320  0.00510  Biso   1.000  C
  C24      1.0000 0.46800  0.65680  0.50510  Biso   1.000  C
  H49      1.0000 0.31210  0.52780  0.96410  Biso   1.000  H
  H50      1.0000 0.68790  0.47220  0.46410  Biso   1.000  H
  H51      1.0000 0.97220  0.81210  0.21410  Biso   1.000  H
  H52      1.0000 0.02780  0.18790  0.71410  Biso   1.000  H
  H53      1.0000 0.18790  0.02780  0.28590  Biso   1.000  H
  H54      1.0000 0.81210  0.97220  0.78590  Biso   1.000  H
  H55      1.0000 0.52780  0.31210  0.03590  Biso   1.000  H
  H56      1.0000 0.47220  0.68790  0.53590  Biso   1.000  H
  C25      1.0000 0.39040  0.50330  0.07070  Biso   1.000  C
  C26      1.0000 0.60960  0.49670  0.57070  Biso   1.000  C
  C27      1.0000 0.99670  0.89040  0.32070  Biso   1.000  C
  C28      1.0000 0.00330  0.10960  0.82070  Biso   1.000  C
  C29      1.0000 0.10960  0.00330  0.17930  Biso   1.000  C
  C30      1.0000 0.89040  0.99670  0.67930  Biso   1.000  C
  C31      1.0000 0.50330  0.39040  0.92930  Biso   1.000  C
  C32      1.0000 0.49670  0.60960  0.42930  Biso   1.000  C
  C33      1.0000 0.30070  0.44070  0.14620  Biso   1.000  C
  C34      1.0000 0.69930  0.55930  0.64620  Biso   1.000  C
  C35      1.0000 0.05930  0.80070  0.39620  Biso   1.000  C
  C36      1.0000 0.94070  0.19930  0.89620  Biso   1.000  C
  C37      1.0000 0.19930  0.94070  0.10380  Biso   1.000  C
  C38      1.0000 0.80070  0.05930  0.60380  Biso   1.000  C
  C39      1.0000 0.44070  0.30070  0.85380  Biso   1.000  C
  C40      1.0000 0.55930  0.69930  0.35380  Biso   1.000  C
  H57      1.0000 0.31120  0.40810  0.17830  Biso   1.000  H
  H58      1.0000 0.68880  0.59190  0.67830  Biso   1.000  H
  H59      1.0000 0.09190  0.81120  0.42830  Biso   1.000  H
  H60      1.0000 0.90810  0.18880  0.92830  Biso   1.000  H
  H61      1.0000 0.18880  0.90810  0.07170  Biso   1.000  H
  H62      1.0000 0.81120  0.09190  0.57170  Biso   1.000  H
  H63      1.0000 0.40810  0.31120  0.82170  Biso   1.000  H
  H64      1.0000 0.59190  0.68880  0.32170  Biso   1.000  H
  N25      1.0000 0.23970  0.38345  0.11510  Biso   1.000  N
  N26      1.0000 0.76030  0.61655  0.61510  Biso   1.000  N
  N27      1.0000 0.11655  0.73970  0.36510  Biso   1.000  N
  N28      1.0000 0.88345  0.26030  0.86510  Biso   1.000  N
  N29      1.0000 0.26030  0.88345  0.13490  Biso   1.000  N
  N30      1.0000 0.73970  0.11655  0.63490  Biso   1.000  N
  N31      1.0000 0.38345  0.23970  0.88490  Biso   1.000  N
  N32      1.0000 0.61655  0.76030  0.38490  Biso   1.000  N
  C41      1.0000 0.26270  0.53570  0.15881  Biso   1.000  C
  C42      1.0000 0.73730  0.46430  0.65881  Biso   1.000  C
  C43      1.0000 0.96430  0.76270  0.40881  Biso   1.000  C
  C44      1.0000 0.03570  0.23730  0.90881  Biso   1.000  C
  C45      1.0000 0.23730  0.03570  0.09119  Biso   1.000  C
  C46      1.0000 0.76270  0.96430  0.59119  Biso   1.000  C
  C47      1.0000 0.53570  0.26270  0.84119  Biso   1.000  C
  C48      1.0000 0.46430  0.73730  0.34119  Biso   1.000  C
  O53      1.0000 0.30350  0.58360  0.19077  Biso   1.000  O
  O54      1.0000 0.69650  0.41640  0.69077  Biso   1.000  O
  O55      1.0000 0.91640  0.80350  0.44077  Biso   1.000  O
  O56      1.0000 0.08360  0.19650  0.94077  Biso   1.000  O
  O57      1.0000 0.19650  0.08360  0.05923  Biso   1.000  O
  O58      1.0000 0.80350  0.91640  0.55923  Biso   1.000  O
  O59      1.0000 0.58360  0.30350  0.80923  Biso   1.000  O
  O60      1.0000 0.41640  0.69650  0.30923  Biso   1.000  O
  N33      1.0000 0.19110  0.56550  0.13254  Biso   1.000  N
  N34      1.0000 0.80890  0.43450  0.63254  Biso   1.000  N
  N35      1.0000 0.93450  0.69110  0.38254  Biso   1.000  N
  N36      1.0000 0.06550  0.30890  0.88254  Biso   1.000  N
  N37      1.0000 0.30890  0.06550  0.11746  Biso   1.000  N
  N38      1.0000 0.69110  0.93450  0.61746  Biso   1.000  N
  N39      1.0000 0.56550  0.19110  0.86746  Biso   1.000  N
  N40      1.0000 0.43450  0.80890  0.36746  Biso   1.000  N
  H65      1.0000 0.16340  0.52950  0.11150  Biso   1.000  H
  H66      1.0000 0.83660  0.47050  0.61150  Biso   1.000  H
  H67      1.0000 0.97050  0.66340  0.36150  Biso   1.000  H
  H68      1.0000 0.02950  0.33660  0.86150  Biso   1.000  H
  H69      1.0000 0.33660  0.02950  0.13850  Biso   1.000  H
  H70      1.0000 0.66340  0.97050  0.63850  Biso   1.000  H
  H71      1.0000 0.52950  0.16340  0.88850  Biso   1.000  H
  H72      1.0000 0.47050  0.83660  0.38850  Biso   1.000  H
  C49      1.0000 0.17140  0.34280  0.13844  Biso   1.000  C
  C50      1.0000 0.82860  0.65720  0.63844  Biso   1.000  C
  C51      1.0000 0.15720  0.67140  0.38844  Biso   1.000  C
  C52      1.0000 0.84280  0.32860  0.88844  Biso   1.000  C
  C53      1.0000 0.32860  0.84280  0.11156  Biso   1.000  C
  C54      1.0000 0.67140  0.15720  0.61156  Biso   1.000  C
  C55      1.0000 0.34280  0.17140  0.86156  Biso   1.000  C
  C56      1.0000 0.65720  0.82860  0.36156  Biso   1.000  C
  O61      1.0000 0.15360  0.34700  0.18508  Biso   1.000  O
  O62      1.0000 0.84640  0.65300  0.68508  Biso   1.000  O
  O63      1.0000 0.15300  0.65360  0.43508  Biso   1.000  O
  O64      1.0000 0.84700  0.34640  0.93508  Biso   1.000  O
  O65      1.0000 0.34640  0.84700  0.06492  Biso   1.000  O
  O66      1.0000 0.65360  0.15300  0.56492  Biso   1.000  O
  O67      1.0000 0.34700  0.15360  0.81492  Biso   1.000  O
  O68      1.0000 0.65300  0.84640  0.31492  Biso   1.000  O
  C57      1.0000 0.10920  0.28530  0.10530  Biso   1.000  C
  C58      1.0000 0.89080  0.71470  0.60530  Biso   1.000  C
  C59      1.0000 0.21470  0.60920  0.35530  Biso   1.000  C
  C60      1.0000 0.78530  0.39080  0.85530  Biso   1.000  C
  C61      1.0000 0.39080  0.78530  0.14470  Biso   1.000  C
  C62      1.0000 0.60920  0.21470  0.64470  Biso   1.000  C
  C63      1.0000 0.28530  0.10920  0.89470  Biso   1.000  C
  C64      1.0000 0.71470  0.89080  0.39470  Biso   1.000  C
  H73      1.0000 0.10560  0.22330  0.11900  Biso   1.000  H
  H74      1.0000 0.89440  0.77670  0.61900  Biso   1.000  H
  H75      1.0000 0.27670  0.60560  0.36900  Biso   1.000  H
  H76      1.0000 0.72330  0.39440  0.86900  Biso   1.000  H
  H77      1.0000 0.39440  0.72330  0.13100  Biso   1.000  H
  H78      1.0000 0.60560  0.27670  0.63100  Biso   1.000  H
  H79      1.0000 0.22330  0.10560  0.88100  Biso   1.000  H
  H80      1.0000 0.77670  0.89440  0.38100  Biso   1.000  H
  H81      1.0000 0.04750  0.31140  0.10580  Biso   1.000  H
  H82      1.0000 0.95250  0.68860  0.60580  Biso   1.000  H
  H83      1.0000 0.18860  0.54750  0.35580  Biso   1.000  H
  H84      1.0000 0.81140  0.45250  0.85580  Biso   1.000  H
  H85      1.0000 0.45250  0.81140  0.14420  Biso   1.000  H
  H86      1.0000 0.54750  0.18860  0.64420  Biso   1.000  H
  H87      1.0000 0.31140  0.04750  0.89420  Biso   1.000  H
  H88      1.0000 0.68860  0.95250  0.39420  Biso   1.000  H
  N41      1.0000 0.14220  0.28090  0.05245  Biso   1.000  N
  N42      1.0000 0.85780  0.71910  0.55245  Biso   1.000  N
  N43      1.0000 0.21910  0.64220  0.30245  Biso   1.000  N
  N44      1.0000 0.78090  0.35780  0.80245  Biso   1.000  N
  N45      1.0000 0.35780  0.78090  0.19755  Biso   1.000  N
  N46      1.0000 0.64220  0.21910  0.69755  Biso   1.000  N
  N47      1.0000 0.28090  0.14220  0.94755  Biso   1.000  N
  N48      1.0000 0.71910  0.85780  0.44755  Biso   1.000  N
  H89      1.0000 0.09510  0.29250  0.03110  Biso   1.000  H
  H90      1.0000 0.90490  0.70750  0.53110  Biso   1.000  H
  H91      1.0000 0.20750  0.59510  0.28110  Biso   1.000  H
  H92      1.0000 0.79250  0.40490  0.78110  Biso   1.000  H
  H93      1.0000 0.40490  0.79250  0.21890  Biso   1.000  H
  H94      1.0000 0.59510  0.20750  0.71890  Biso   1.000  H
  H95      1.0000 0.29250  0.09510  0.96890  Biso   1.000  H
  H96      1.0000 0.70750  0.90490  0.46890  Biso   1.000  H
  H97      1.0000 0.16370  0.22390  0.04580  Biso   1.000  H
  H98      1.0000 0.83630  0.77610  0.54580  Biso   1.000  H
  H99      1.0000 0.27610  0.66370  0.29580  Biso   1.000  H
  H100     1.0000 0.72390  0.33630  0.79580  Biso   1.000  H
  H101     1.0000 0.33630  0.72390  0.20420  Biso   1.000  H
  H102     1.0000 0.66370  0.27610  0.70420  Biso   1.000  H
  H103     1.0000 0.22390  0.16370  0.95420  Biso   1.000  H
  H104     1.0000 0.77610  0.83630  0.45420  Biso   1.000  H
  C65      1.0000 0.11890  0.67190  0.19317  Biso   1.000  C
  C66      1.0000 0.88110  0.32810  0.69317  Biso   1.000  C
  C67      1.0000 0.82810  0.61890  0.44317  Biso   1.000  C
  C68      1.0000 0.17190  0.38110  0.94317  Biso   1.000  C
  C69      1.0000 0.38110  0.17190  0.05683  Biso   1.000  C
  C70      1.0000 0.61890  0.82810  0.55683  Biso   1.000  C
  C71      1.0000 0.67190  0.11890  0.80683  Biso   1.000  C
  C72      1.0000 0.32810  0.88110  0.30683  Biso   1.000  C
  C73      1.0000 0.15930  0.66040  0.13951  Biso   1.000  C
  C74      1.0000 0.84070  0.33960  0.63951  Biso   1.000  C
  C75      1.0000 0.83960  0.65930  0.38951  Biso   1.000  C
  C76      1.0000 0.16040  0.34070  0.88951  Biso   1.000  C
  C77      1.0000 0.34070  0.16040  0.11049  Biso   1.000  C
  C78      1.0000 0.65930  0.83960  0.61049  Biso   1.000  C
  C79      1.0000 0.66040  0.15930  0.86049  Biso   1.000  C
  C80      1.0000 0.33960  0.84070  0.36049  Biso   1.000  C
  H105     1.0000 0.21320  0.70110  0.13670  Biso   1.000  H
  H106     1.0000 0.78680  0.29890  0.63670  Biso   1.000  H
  H107     1.0000 0.79890  0.71320  0.38670  Biso   1.000  H
  H108     1.0000 0.20110  0.28680  0.88670  Biso   1.000  H
  H109     1.0000 0.28680  0.20110  0.11330  Biso   1.000  H
  H110     1.0000 0.71320  0.79890  0.61330  Biso   1.000  H
  H111     1.0000 0.70110  0.21320  0.86330  Biso   1.000  H
  H112     1.0000 0.29890  0.78680  0.36330  Biso   1.000  H
  C81      1.0000 0.09160  0.68760  0.09836  Biso   1.000  C
  C82      1.0000 0.90840  0.31240  0.59836  Biso   1.000  C
  C83      1.0000 0.81240  0.59160  0.34836  Biso   1.000  C
  C84      1.0000 0.18760  0.40840  0.84836  Biso   1.000  C
  C85      1.0000 0.40840  0.18760  0.15164  Biso   1.000  C
  C86      1.0000 0.59160  0.81240  0.65164  Biso   1.000  C
  C87      1.0000 0.68760  0.09160  0.90164  Biso   1.000  C
  C88      1.0000 0.31240  0.90840  0.40164  Biso   1.000  C
  H113     1.0000 0.06530  0.74740  0.10640  Biso   1.000  H
  H114     1.0000 0.93470  0.25260  0.60640  Biso   1.000  H
  H115     1.0000 0.75260  0.56530  0.35640  Biso   1.000  H
  H116     1.0000 0.24740  0.43470  0.85640  Biso   1.000  H
  H117     1.0000 0.43470  0.24740  0.14360  Biso   1.000  H
  H118     1.0000 0.56530  0.75260  0.64360  Biso   1.000  H
  H119     1.0000 0.74740  0.06530  0.89360  Biso   1.000  H
  H120     1.0000 0.25260  0.93470  0.39360  Biso   1.000  H
  H121     1.0000 0.04170  0.64300  0.09720  Biso   1.000  H
  H122     1.0000 0.95830  0.35700  0.59720  Biso   1.000  H
  H123     1.0000 0.85700  0.54170  0.34720  Biso   1.000  H
  H124     1.0000 0.14300  0.45830  0.84720  Biso   1.000  H
  H125     1.0000 0.45830  0.14300  0.15280  Biso   1.000  H
  H126     1.0000 0.54170  0.85700  0.65280  Biso   1.000  H
  H127     1.0000 0.64300  0.04170  0.90280  Biso   1.000  H
  H128     1.0000 0.35700  0.95830  0.40280  Biso   1.000  H
  O69      1.0000 0.14515  0.74220  0.21745  Biso   1.000  O
  O70      1.0000 0.85485  0.25780  0.71745  Biso   1.000  O
  O71      1.0000 0.75780  0.64515  0.46745  Biso   1.000  O
  O72      1.0000 0.24220  0.35485  0.96745  Biso   1.000  O
  O73      1.0000 0.35485  0.24220  0.03255  Biso   1.000  O
  O74      1.0000 0.64515  0.75780  0.53255  Biso   1.000  O
  O75      1.0000 0.74220  0.14515  0.78255  Biso   1.000  O
  O76      1.0000 0.25780  0.85485  0.28255  Biso   1.000  O
  O77      1.0000 0.06330  0.61460  0.20972  Biso   1.000  O
  O78      1.0000 0.93670  0.38540  0.70972  Biso   1.000  O
  O79      1.0000 0.88540  0.56330  0.45972  Biso   1.000  O
  O80      1.0000 0.11460  0.43670  0.95972  Biso   1.000  O
  O81      1.0000 0.43670  0.11460  0.04028  Biso   1.000  O
  O82      1.0000 0.56330  0.88540  0.54028  Biso   1.000  O
  O83      1.0000 0.61460  0.06330  0.79028  Biso   1.000  O
  O84      1.0000 0.38540  0.93670  0.29028  Biso   1.000  O
  C89      1.0000 0.13860  0.69200  0.04621  Biso   1.000  C
  C90      1.0000 0.86140  0.30800  0.54621  Biso   1.000  C
  C91      1.0000 0.80800  0.63860  0.29621  Biso   1.000  C
  C92      1.0000 0.19200  0.36140  0.79621  Biso   1.000  C
  C93      1.0000 0.36140  0.19200  0.20379  Biso   1.000  C
  C94      1.0000 0.63860  0.80800  0.70379  Biso   1.000  C
  C95      1.0000 0.69200  0.13860  0.95379  Biso   1.000  C
  C96      1.0000 0.30800  0.86140  0.45379  Biso   1.000  C
  H129     1.0000 0.19210  0.73210  0.04860  Biso   1.000  H
  H130     1.0000 0.80790  0.26790  0.54860  Biso   1.000  H
  H131     1.0000 0.76790  0.69210  0.29860  Biso   1.000  H
  H132     1.0000 0.23210  0.30790  0.79860  Biso   1.000  H
  H133     1.0000 0.30790  0.23210  0.20140  Biso   1.000  H
  H134     1.0000 0.69210  0.76790  0.70140  Biso   1.000  H
  H135     1.0000 0.73210  0.19210  0.95140  Biso   1.000  H
  H136     1.0000 0.26790  0.80790  0.45140  Biso   1.000  H
  H137     1.0000 0.16040  0.63070  0.03740  Biso   1.000  H
  H138     1.0000 0.83960  0.36930  0.53740  Biso   1.000  H
  H139     1.0000 0.86930  0.66040  0.28740  Biso   1.000  H
  H140     1.0000 0.13070  0.33960  0.78740  Biso   1.000  H
  H141     1.0000 0.33960  0.13070  0.21260  Biso   1.000  H
  H142     1.0000 0.66040  0.86930  0.71260  Biso   1.000  H
  H143     1.0000 0.63070  0.16040  0.96260  Biso   1.000  H
  H144     1.0000 0.36930  0.83960  0.46260  Biso   1.000  H
  C97      1.0000 0.07800  0.72620  0.00480  Biso   1.000  C
  C98      1.0000 0.92200  0.27380  0.50480  Biso   1.000  C
  C99      1.0000 0.77380  0.57800  0.25480  Biso   1.000  C
  C100     1.0000 0.22620  0.42200  0.75480  Biso   1.000  C
  C101     1.0000 0.42200  0.22620  0.24520  Biso   1.000  C
  C102     1.0000 0.57800  0.77380  0.74520  Biso   1.000  C
  C103     1.0000 0.72620  0.07800  0.99520  Biso   1.000  C
  C104     1.0000 0.27380  0.92200  0.49520  Biso   1.000  C
  H145     1.0000 0.06690  0.79110  0.01160  Biso   1.000  H
  H146     1.0000 0.93310  0.20890  0.51160  Biso   1.000  H
  H147     1.0000 0.70890  0.56690  0.26160  Biso   1.000  H
  H148     1.0000 0.29110  0.43310  0.76160  Biso   1.000  H
  H149     1.0000 0.43310  0.29110  0.23840  Biso   1.000  H
  H150     1.0000 0.56690  0.70890  0.73840  Biso   1.000  H
  H151     1.0000 0.79110  0.06690  0.98840  Biso   1.000  H
  H152     1.0000 0.20890  0.93310  0.48840  Biso   1.000  H
  C105     1.0000 0.98850  0.68510  0.99320  Biso   1.000  C
  C106     1.0000 0.01150  0.31490  0.49320  Biso   1.000  C
  C107     1.0000 0.81490  0.48850  0.24320  Biso   1.000  C
  C108     1.0000 0.18510  0.51150  0.74320  Biso   1.000  C
  C109     1.0000 0.51150  0.18510  0.25680  Biso   1.000  C
  C110     1.0000 0.48850  0.81490  0.75680  Biso   1.000  C
  C111     1.0000 0.68510  0.98850  0.00680  Biso   1.000  C
  C112     1.0000 0.31490  0.01150  0.50680  Biso   1.000  C
  H153     1.0000 0.95340  0.67510  0.02410  Biso   1.000  H
  H154     1.0000 0.04660  0.32490  0.52410  Biso   1.000  H
  H155     1.0000 0.82490  0.45340  0.27410  Biso   1.000  H
  H156     1.0000 0.17510  0.54660  0.77410  Biso   1.000  H
  H157     1.0000 0.54660  0.17510  0.22590  Biso   1.000  H
  H158     1.0000 0.45340  0.82490  0.72590  Biso   1.000  H
  H159     1.0000 0.67510  0.95340  0.97590  Biso   1.000  H
  H160     1.0000 0.32490  0.04660  0.47590  Biso   1.000  H
  H161     1.0000 0.95320  0.72530  0.97100  Biso   1.000  H
  H162     1.0000 0.04680  0.27470  0.47100  Biso   1.000  H
  H163     1.0000 0.77470  0.45320  0.22100  Biso   1.000  H
  H164     1.0000 0.22530  0.54680  0.72100  Biso   1.000  H
  H165     1.0000 0.54680  0.22530  0.27900  Biso   1.000  H
  H166     1.0000 0.45320  0.77470  0.77900  Biso   1.000  H
  H167     1.0000 0.72530  0.95320  0.02900  Biso   1.000  H
  H168     1.0000 0.27470  0.04680  0.52900  Biso   1.000  H
  O85      1.0000 0.01850  0.54920  0.31130  Biso   1.000  O
  O86      1.0000 0.98150  0.45080  0.81130  Biso   1.000  O
  O87      1.0000 0.95080  0.51850  0.56130  Biso   1.000  O
  O88      1.0000 0.04920  0.48150  0.06130  Biso   1.000  O
  O89      1.0000 0.48150  0.04920  0.93870  Biso   1.000  O
  O90      1.0000 0.51850  0.95080  0.43870  Biso   1.000  O
  O91      1.0000 0.54920  0.01850  0.68870  Biso   1.000  O
  O92      1.0000 0.45080  0.98150  0.18870  Biso   1.000  O
  O93      1.0000 0.19890  0.43650  0.27381  Biso   1.000  O
  O94      1.0000 0.80110  0.56350  0.77381  Biso   1.000  O
  O95      1.0000 0.06350  0.69890  0.52381  Biso   1.000  O
  O96      1.0000 0.93650  0.30110  0.02381  Biso   1.000  O
  O97      1.0000 0.30110  0.93650  0.97619  Biso   1.000  O
  O98      1.0000 0.69890  0.06350  0.47619  Biso   1.000  O
  O99      1.0000 0.43650  0.19890  0.72619  Biso   1.000  O
  O100     1.0000 0.56350  0.80110  0.22619  Biso   1.000  O
  O101     1.0000 0.97630  0.32700  0.21110  Biso   1.000  O
  O102     1.0000 0.02370  0.67300  0.71110  Biso   1.000  O
  O103     1.0000 0.17300  0.47630  0.46110  Biso   1.000  O
  O104     1.0000 0.82700  0.52370  0.96110  Biso   1.000  O
  O105     1.0000 0.52370  0.82700  0.03890  Biso   1.000  O
  O106     1.0000 0.47630  0.17300  0.53890  Biso   1.000  O
  O107     1.0000 0.32700  0.97630  0.78890  Biso   1.000  O
  O108     1.0000 0.67300  0.02370  0.28890  Biso   1.000  O
  O109     1.0000 0.63700  0.48200  0.15400  Biso   1.000  O
  O110     1.0000 0.36300  0.51800  0.65400  Biso   1.000  O
  O111     1.0000 0.01800  0.13700  0.40400  Biso   1.000  O
  O112     1.0000 0.98200  0.86300  0.90400  Biso   1.000  O
  O113     1.0000 0.86300  0.98200  0.09600  Biso   1.000  O
  O114     1.0000 0.13700  0.01800  0.59600  Biso   1.000  O
  O115     1.0000 0.48200  0.63700  0.84600  Biso   1.000  O
  O116     1.0000 0.51800  0.36300  0.34600  Biso   1.000  O
  O117     1.0000 0.62050  0.31930  0.12190  Biso   1.000  O
  O118     1.0000 0.37950  0.68070  0.62190  Biso   1.000  O
  O119     1.0000 0.18070  0.12050  0.37190  Biso   1.000  O
  O120     1.0000 0.81930  0.87950  0.87190  Biso   1.000  O
  O121     1.0000 0.87950  0.81930  0.12810  Biso   1.000  O
  O122     1.0000 0.12050  0.18070  0.62810  Biso   1.000  O
  O123     1.0000 0.31930  0.62050  0.87810  Biso   1.000  O
  O124     1.0000 0.68070  0.37950  0.37810  Biso   1.000  O
  O125     1.0000 0.76990  0.51200  0.09030  Biso   1.000  O
  O126     1.0000 0.23010  0.48800  0.59030  Biso   1.000  O
  O127     1.0000 0.98800  0.26990  0.34030  Biso   1.000  O
  O128     1.0000 0.01200  0.73010  0.84030  Biso   1.000  O
  O129     1.0000 0.73010  0.01200  0.15970  Biso   1.000  O
  O130     1.0000 0.26990  0.98800  0.65970  Biso   1.000  O
  O131     1.0000 0.51200  0.76990  0.90970  Biso   1.000  O
  O132     1.0000 0.48800  0.23010  0.40970  Biso   1.000  O
  H169     1.0000 0.11410  0.72340  0.97380  Biso   1.000  H
  H170     1.0000 0.88590  0.27660  0.47380  Biso   1.000  H
  H171     1.0000 0.77660  0.61410  0.22380  Biso   1.000  H
  H172     1.0000 0.22340  0.38590  0.72380  Biso   1.000  H
  H173     1.0000 0.38590  0.22340  0.27620  Biso   1.000  H
  H174     1.0000 0.61410  0.77660  0.77620  Biso   1.000  H
  H175     1.0000 0.72340  0.11410  0.02620  Biso   1.000  H
  H176     1.0000 0.27660  0.88590  0.52620  Biso   1.000  H
  O133     1.0000 0.70860  0.66230  0.04260  Biso   1.000  O
  O134     1.0000 0.29140  0.33770  0.54260  Biso   1.000  O
  O135     1.0000 0.83770  0.20860  0.29260  Biso   1.000  O
  O136     1.0000 0.16230  0.79140  0.79260  Biso   1.000  O
  O137     1.0000 0.79140  0.16230  0.20740  Biso   1.000  O
  O138     1.0000 0.20860  0.83770  0.70740  Biso   1.000  O
  O139     1.0000 0.66230  0.70860  0.95740  Biso   1.000  O
  O140     1.0000 0.33770  0.29140  0.45740  Biso   1.000  O
  O141     1.0000 0.42230  0.51770  0.26690  Biso   1.000  O
  O142     1.0000 0.57770  0.48230  0.76690  Biso   1.000  O
  O143     1.0000 0.98230  0.92230  0.51690  Biso   1.000  O
  O144     1.0000 0.01770  0.07770  0.01690  Biso   1.000  O
  O145     1.0000 0.07770  0.01770  0.98310  Biso   1.000  O
  O146     1.0000 0.92230  0.98230  0.48310  Biso   1.000  O
  O147     1.0000 0.51770  0.42230  0.73310  Biso   1.000  O
  O148     1.0000 0.48230  0.57770  0.23310  Biso   1.000  O
  N49      1.0000 0.08000  0.69300  0.90300  Biso   1.000  N
  N50      1.0000 0.92000  0.30700  0.40300  Biso   1.000  N
  N51      1.0000 0.80700  0.58000  0.15300  Biso   1.000  N
  N52      1.0000 0.19300  0.42000  0.65300  Biso   1.000  N
  N53      1.0000 0.42000  0.19300  0.34700  Biso   1.000  N
  N54      1.0000 0.58000  0.80700  0.84700  Biso   1.000  N
  N55      1.0000 0.69300  0.08000  0.09700  Biso   1.000  N
  N56      1.0000 0.30700  0.92000  0.59700  Biso   1.000  N
  H177     1.0000 0.02080  0.69870  0.90280  Biso   1.000  H
  H178     1.0000 0.97920  0.30130  0.40280  Biso   1.000  H
  H179     1.0000 0.80130  0.52080  0.15280  Biso   1.000  H
  H180     1.0000 0.19870  0.47920  0.65280  Biso   1.000  H
  H181     1.0000 0.47920  0.19870  0.34720  Biso   1.000  H
  H182     1.0000 0.52080  0.80130  0.84720  Biso   1.000  H
  H183     1.0000 0.69870  0.02080  0.09720  Biso   1.000  H
  H184     1.0000 0.30130  0.97920  0.59720  Biso   1.000  H
  H185     1.0000 0.10890  0.68090  0.87520  Biso   1.000  H
  H186     1.0000 0.89110  0.31910  0.37520  Biso   1.000  H
  H187     1.0000 0.81910  0.60890  0.12520  Biso   1.000  H
  H188     1.0000 0.18090  0.39110  0.62520  Biso   1.000  H
  H189     1.0000 0.39110  0.18090  0.37480  Biso   1.000  H
  H190     1.0000 0.60890  0.81910  0.87480  Biso   1.000  H
  H191     1.0000 0.68090  0.10890  0.12480  Biso   1.000  H
  H192     1.0000 0.31910  0.89110  0.62480  Biso   1.000  H
  C113     1.0000 0.13300  0.70360  0.95240  Biso   1.000  C
  C114     1.0000 0.86700  0.29640  0.45240  Biso   1.000  C
  C115     1.0000 0.79640  0.63300  0.20240  Biso   1.000  C
  C116     1.0000 0.20360  0.36700  0.70240  Biso   1.000  C
  C117     1.0000 0.36700  0.20360  0.29760  Biso   1.000  C
  C118     1.0000 0.63300  0.79640  0.79760  Biso   1.000  C
  C119     1.0000 0.70360  0.13300  0.04760  Biso   1.000  C
  C120     1.0000 0.29640  0.86700  0.54760  Biso   1.000  C
  O149     1.0000 0.98520  0.55100  0.91250  Biso   1.000  O
  O150     1.0000 0.01480  0.44900  0.41250  Biso   1.000  O
  O151     1.0000 0.94900  0.48520  0.16250  Biso   1.000  O
  O152     1.0000 0.05100  0.51480  0.66250  Biso   1.000  O
  O153     1.0000 0.51480  0.05100  0.33750  Biso   1.000  O
  O154     1.0000 0.48520  0.94900  0.83750  Biso   1.000  O
  O155     1.0000 0.55100  0.98520  0.08750  Biso   1.000  O
  O156     1.0000 0.44900  0.01480  0.58750  Biso   1.000  O
