data_image0
_cell_length_a       11.1513
_cell_length_b       12.1732
_cell_length_c       15.1784
_cell_angle_alpha    90
_cell_angle_beta     124.707
_cell_angle_gamma    90

_symmetry_space_group_name_H-M    "P 1"
_symmetry_int_tables_number       1

loop_
  _symmetry_equiv_pos_as_xyz
  'x, y, z'

loop_
  _atom_site_label
  _atom_site_occupancy
  _atom_site_fract_x
  _atom_site_fract_y
  _atom_site_fract_z
  _atom_site_thermal_displace_type
  _atom_site_B_iso_or_equiv
  _atom_site_type_symbol
  Cu1      1.0000 0.00000  0.50000  0.50000  Biso   1.000  Cu
  Cu2      1.0000 0.00000  0.00000  0.00000  Biso   1.000  Cu
  Cu3      1.0000 0.50497  0.41822  0.10223  Biso   1.000  Cu
  Cu4      1.0000 0.49503  0.91822  0.39777  Biso   1.000  Cu
  Cu5      1.0000 0.49503  0.58178  0.89777  Biso   1.000  Cu
  Cu6      1.0000 0.50497  0.08178  0.60223  Biso   1.000  Cu
  Cl1      1.0000 0.46287  0.54617  0.18941  Biso   1.000  Cl
  Cl2      1.0000 0.53713  0.04617  0.31059  Biso   1.000  Cl
  Cl3      1.0000 0.53713  0.45383  0.81059  Biso   1.000  Cl
  Cl4      1.0000 0.46287  0.95383  0.68941  Biso   1.000  Cl
  Cl5      1.0000 0.31012  0.46969  0.93829  Biso   1.000  Cl
  Cl6      1.0000 0.68988  0.96969  0.56171  Biso   1.000  Cl
  Cl7      1.0000 0.68988  0.53031  0.06171  Biso   1.000  Cl
  Cl8      1.0000 0.31012  0.03031  0.43829  Biso   1.000  Cl
  Cl9      1.0000 0.89713  0.60040  0.56767  Biso   1.000  Cl
  Cl10     1.0000 0.10287  0.10040  0.93233  Biso   1.000  Cl
  Cl11     1.0000 0.10287  0.39960  0.43233  Biso   1.000  Cl
  Cl12     1.0000 0.89713  0.89960  0.06767  Biso   1.000  Cl
  N1       1.0000 0.79820  0.20980  0.32420  Biso   1.000  N
  N2       1.0000 0.20180  0.70980  0.17580  Biso   1.000  N
  N3       1.0000 0.20180  0.79020  0.67580  Biso   1.000  N
  N4       1.0000 0.79820  0.29020  0.82420  Biso   1.000  N
  N5       1.0000 0.67070  0.35360  0.23660  Biso   1.000  N
  N6       1.0000 0.32930  0.85360  0.26340  Biso   1.000  N
  N7       1.0000 0.32930  0.64640  0.76340  Biso   1.000  N
  N8       1.0000 0.67070  0.14640  0.73660  Biso   1.000  N
  N9       1.0000 0.74290  0.37810  0.34360  Biso   1.000  N
  N10      1.0000 0.25710  0.87810  0.15640  Biso   1.000  N
  N11      1.0000 0.25710  0.62190  0.65640  Biso   1.000  N
  N12      1.0000 0.74290  0.12190  0.84360  Biso   1.000  N
  N13      1.0000 0.86330  0.10600  0.34390  Biso   1.000  N
  N14      1.0000 0.13670  0.60600  0.15610  Biso   1.000  N
  N15      1.0000 0.13670  0.89400  0.65610  Biso   1.000  N
  N16      1.0000 0.86330  0.39400  0.84390  Biso   1.000  N
  H1       1.0000 0.95800  0.11300  0.39100  Biso   1.000  H
  H2       1.0000 0.04200  0.61300  0.10900  Biso   1.000  H
  H3       1.0000 0.04200  0.88700  0.60900  Biso   1.000  H
  H4       1.0000 0.95800  0.38700  0.89100  Biso   1.000  H
  H5       1.0000 0.83100  0.06200  0.35100  Biso   1.000  H
  H6       1.0000 0.16900  0.56200  0.14900  Biso   1.000  H
  H7       1.0000 0.16900  0.93800  0.64900  Biso   1.000  H
  H8       1.0000 0.83100  0.43800  0.85100  Biso   1.000  H
  N17      1.0000 0.98780  0.36570  0.56880  Biso   1.000  N
  N18      1.0000 0.01220  0.86570  0.93120  Biso   1.000  N
  N19      1.0000 0.01220  0.63430  0.43120  Biso   1.000  N
  N20      1.0000 0.98780  0.13430  0.06880  Biso   1.000  N
  N21      1.0000 0.53830  0.27740  0.04350  Biso   1.000  N
  N22      1.0000 0.46170  0.77740  0.45650  Biso   1.000  N
  N23      1.0000 0.46170  0.72260  0.95650  Biso   1.000  N
  N24      1.0000 0.53830  0.22260  0.54350  Biso   1.000  N
  C1       1.0000 0.70570  0.25370  0.22580  Biso   1.000  C
  C2       1.0000 0.29430  0.75370  0.27420  Biso   1.000  C
  C3       1.0000 0.29430  0.74630  0.77420  Biso   1.000  C
  C4       1.0000 0.70570  0.24630  0.72580  Biso   1.000  C
  C5       1.0000 0.81700  0.28950  0.39480  Biso   1.000  C
  C6       1.0000 0.18300  0.78950  0.10520  Biso   1.000  C
  C7       1.0000 0.18300  0.71050  0.60520  Biso   1.000  C
  C8       1.0000 0.81700  0.21050  0.89480  Biso   1.000  C
  C9       1.0000 0.90500  0.27890  0.51190  Biso   1.000  C
  C10      1.0000 0.09500  0.77890  0.98810  Biso   1.000  C
  C11      1.0000 0.09500  0.72110  0.48810  Biso   1.000  C
  C12      1.0000 0.90500  0.22110  0.01190  Biso   1.000  C
  C13      1.0000 0.06450  0.36000  0.67590  Biso   1.000  C
  C14      1.0000 0.93550  0.86000  0.82410  Biso   1.000  C
  C15      1.0000 0.93550  0.64000  0.32410  Biso   1.000  C
  C16      1.0000 0.06450  0.14000  0.17590  Biso   1.000  C
  H9       1.0000 0.12180  0.41970  0.71610  Biso   1.000  H
  H10      1.0000 0.87820  0.91970  0.78390  Biso   1.000  H
  H11      1.0000 0.87820  0.58030  0.28390  Biso   1.000  H
  H12      1.0000 0.12180  0.08030  0.21610  Biso   1.000  H
  C17      1.0000 0.06190  0.26900  0.72880  Biso   1.000  C
  C18      1.0000 0.93810  0.76900  0.77120  Biso   1.000  C
  C19      1.0000 0.93810  0.73100  0.27120  Biso   1.000  C
  C20      1.0000 0.06190  0.23100  0.22880  Biso   1.000  C
  H13      1.0000 0.11780  0.26700  0.80330  Biso   1.000  H
  H14      1.0000 0.88220  0.76700  0.69670  Biso   1.000  H
  H15      1.0000 0.88220  0.73300  0.19670  Biso   1.000  H
  H16      1.0000 0.11780  0.23300  0.30330  Biso   1.000  H
  C21      1.0000 0.97580  0.18140  0.67030  Biso   1.000  C
  C22      1.0000 0.02420  0.68140  0.82970  Biso   1.000  C
  C23      1.0000 0.02420  0.81860  0.32970  Biso   1.000  C
  C24      1.0000 0.97580  0.31860  0.17030  Biso   1.000  C
  H17      1.0000 0.97230  0.11940  0.70450  Biso   1.000  H
  H18      1.0000 0.02770  0.61940  0.79550  Biso   1.000  H
  H19      1.0000 0.02770  0.88060  0.29550  Biso   1.000  H
  H20      1.0000 0.97230  0.38060  0.20450  Biso   1.000  H
  C25      1.0000 0.89420  0.18640  0.55980  Biso   1.000  C
  C26      1.0000 0.10580  0.68640  0.94020  Biso   1.000  C
  C27      1.0000 0.10580  0.81360  0.44020  Biso   1.000  C
  C28      1.0000 0.89420  0.31360  0.05980  Biso   1.000  C
  H21      1.0000 0.83310  0.12870  0.51840  Biso   1.000  H
  H22      1.0000 0.16690  0.62870  0.98160  Biso   1.000  H
  H23      1.0000 0.16690  0.87130  0.48160  Biso   1.000  H
  H24      1.0000 0.83310  0.37130  0.01840  Biso   1.000  H
  C29      1.0000 0.64120  0.20800  0.11890  Biso   1.000  C
  C30      1.0000 0.35880  0.70800  0.38110  Biso   1.000  C
  C31      1.0000 0.35880  0.79200  0.88110  Biso   1.000  C
  C32      1.0000 0.64120  0.29200  0.61890  Biso   1.000  C
  C33      1.0000 0.47210  0.24890  0.94080  Biso   1.000  C
  C34      1.0000 0.52790  0.74890  0.55920  Biso   1.000  C
  C35      1.0000 0.52790  0.75110  0.05920  Biso   1.000  C
  C36      1.0000 0.47210  0.25110  0.44080  Biso   1.000  C
  H25      1.0000 0.40180  0.29580  0.88810  Biso   1.000  H
  H26      1.0000 0.59820  0.79580  0.61190  Biso   1.000  H
  H27      1.0000 0.59820  0.70420  0.11190  Biso   1.000  H
  H28      1.0000 0.40180  0.20420  0.38810  Biso   1.000  H
  C37      1.0000 0.50360  0.15320  0.90970  Biso   1.000  C
  C38      1.0000 0.49640  0.65320  0.59030  Biso   1.000  C
  C39      1.0000 0.49640  0.84680  0.09030  Biso   1.000  C
  C40      1.0000 0.50360  0.34680  0.40970  Biso   1.000  C
  H29      1.0000 0.45430  0.13590  0.83740  Biso   1.000  H
  H30      1.0000 0.54570  0.63590  0.66260  Biso   1.000  H
  H31      1.0000 0.54570  0.86410  0.16260  Biso   1.000  H
  H32      1.0000 0.45430  0.36410  0.33740  Biso   1.000  H
  C41      1.0000 0.60740  0.08390  0.98560  Biso   1.000  C
  C42      1.0000 0.39260  0.58390  0.51440  Biso   1.000  C
  C43      1.0000 0.39260  0.91610  0.01440  Biso   1.000  C
  C44      1.0000 0.60740  0.41610  0.48560  Biso   1.000  C
  H33      1.0000 0.63070  0.01920  0.96590  Biso   1.000  H
  H34      1.0000 0.36930  0.51920  0.53410  Biso   1.000  H
  H35      1.0000 0.36930  0.98080  0.03410  Biso   1.000  H
  H36      1.0000 0.63070  0.48080  0.46590  Biso   1.000  H
  C45      1.0000 0.67760  0.11200  0.09310  Biso   1.000  C
  C46      1.0000 0.32240  0.61200  0.40690  Biso   1.000  C
  C47      1.0000 0.32240  0.88800  0.90690  Biso   1.000  C
  C48      1.0000 0.67760  0.38800  0.59310  Biso   1.000  C
  H37      1.0000 0.74840  0.06610  0.14660  Biso   1.000  H
  H38      1.0000 0.25160  0.56610  0.35340  Biso   1.000  H
  H39      1.0000 0.25160  0.93390  0.85340  Biso   1.000  H
  H40      1.0000 0.74840  0.43390  0.64660  Biso   1.000  H
  O1       1.0000 0.65730  0.74050  0.35850  Biso   1.000  O
  O2       1.0000 0.34270  0.24050  0.14150  Biso   1.000  O
  O3       1.0000 0.34270  0.25950  0.64150  Biso   1.000  O
  O4       1.0000 0.65730  0.75950  0.85850  Biso   1.000  O
  H41      1.0000 0.61800  0.69100  0.31100  Biso   1.000  H
  H42      1.0000 0.38200  0.19100  0.18900  Biso   1.000  H
  H43      1.0000 0.38200  0.30900  0.68900  Biso   1.000  H
  H44      1.0000 0.61800  0.80900  0.81100  Biso   1.000  H
  H45      1.0000 0.71000  0.69900  0.41200  Biso   1.000  H
  H46      1.0000 0.29000  0.19900  0.08800  Biso   1.000  H
  H47      1.0000 0.29000  0.30100  0.58800  Biso   1.000  H
  H48      1.0000 0.71000  0.80100  0.91200  Biso   1.000  H
  O5       1.0000 0.14470  0.09300  0.54320  Biso   1.000  O
  O6       1.0000 0.85530  0.59300  0.95680  Biso   1.000  O
  O7       1.0000 0.85530  0.90700  0.45680  Biso   1.000  O
  O8       1.0000 0.14470  0.40700  0.04320  Biso   1.000  O
  H49      1.0000 0.20700  0.13300  0.59800  Biso   1.000  H
  H50      1.0000 0.79300  0.63300  0.90200  Biso   1.000  H
  H51      1.0000 0.79300  0.86700  0.40200  Biso   1.000  H
  H52      1.0000 0.20700  0.36700  0.09800  Biso   1.000  H
  H53      1.0000 0.17600  0.07600  0.50400  Biso   1.000  H
  H54      1.0000 0.82400  0.57600  0.99600  Biso   1.000  H
  H55      1.0000 0.82400  0.92400  0.49600  Biso   1.000  H
  H56      1.0000 0.17600  0.42400  0.00400  Biso   1.000  H
