data_image0
_cell_length_a       8.6411
_cell_length_b       14.8945
_cell_length_c       15.9135
_cell_angle_alpha    90
_cell_angle_beta     98.353
_cell_angle_gamma    90

_symmetry_space_group_name_H-M    "P 1"
_symmetry_int_tables_number       1

loop_
  _symmetry_equiv_pos_as_xyz
  'x, y, z'

loop_
  _atom_site_label
  _atom_site_occupancy
  _atom_site_fract_x
  _atom_site_fract_y
  _atom_site_fract_z
  _atom_site_thermal_displace_type
  _atom_site_B_iso_or_equiv
  _atom_site_type_symbol
  Cu1      1.0000 0.44032  0.26181  0.09974  Biso   1.000  Cu
  Cu2      1.0000 0.55968  0.76181  0.40026  Biso   1.000  Cu
  Cu3      1.0000 0.55968  0.73819  0.90026  Biso   1.000  Cu
  Cu4      1.0000 0.44032  0.23819  0.59974  Biso   1.000  Cu
  Cu5      1.0000 0.50000  0.00000  0.00000  Biso   1.000  Cu
  Cu6      1.0000 0.50000  0.50000  0.50000  Biso   1.000  Cu
  S1       1.0000 0.23927  0.11787  0.24555  Biso   1.000  S
  S2       1.0000 0.76073  0.61787  0.25445  Biso   1.000  S
  S3       1.0000 0.76073  0.88213  0.75445  Biso   1.000  S
  S4       1.0000 0.23927  0.38213  0.74555  Biso   1.000  S
  O1       1.0000 0.63110  0.30120  0.16080  Biso   1.000  O
  O2       1.0000 0.36890  0.80120  0.33920  Biso   1.000  O
  O3       1.0000 0.36890  0.69880  0.83920  Biso   1.000  O
  O4       1.0000 0.63110  0.19880  0.66080  Biso   1.000  O
  O5       1.0000 0.53170  0.15240  0.06390  Biso   1.000  O
  O6       1.0000 0.46830  0.65240  0.43610  Biso   1.000  O
  O7       1.0000 0.46830  0.84760  0.93610  Biso   1.000  O
  O8       1.0000 0.53170  0.34760  0.56390  Biso   1.000  O
  O9       1.0000 0.69810  0.04280  0.06300  Biso   1.000  O
  O10      1.0000 0.30190  0.54280  0.43700  Biso   1.000  O
  O11      1.0000 0.30190  0.95720  0.93700  Biso   1.000  O
  O12      1.0000 0.69810  0.45720  0.56300  Biso   1.000  O
  O13      1.0000 0.23260  0.03420  0.19920  Biso   1.000  O
  O14      1.0000 0.76740  0.53420  0.30080  Biso   1.000  O
  O15      1.0000 0.76740  0.96580  0.80080  Biso   1.000  O
  O16      1.0000 0.23260  0.46580  0.69920  Biso   1.000  O
  O17      1.0000 0.24890  0.10330  0.33690  Biso   1.000  O
  O18      1.0000 0.75110  0.60330  0.16310  Biso   1.000  O
  O19      1.0000 0.75110  0.89670  0.66310  Biso   1.000  O
  O20      1.0000 0.24890  0.39670  0.83690  Biso   1.000  O
  O21      1.0000 0.36000  0.17920  0.22670  Biso   1.000  O
  O22      1.0000 0.64000  0.67920  0.27330  Biso   1.000  O
  O23      1.0000 0.64000  0.82080  0.77330  Biso   1.000  O
  O24      1.0000 0.36000  0.32080  0.72670  Biso   1.000  O
  O25      1.0000 0.43740  0.96010  0.10610  Biso   1.000  O
  O26      1.0000 0.56260  0.46010  0.39390  Biso   1.000  O
  O27      1.0000 0.56260  0.03990  0.89390  Biso   1.000  O
  O28      1.0000 0.43740  0.53990  0.60610  Biso   1.000  O
  N1       1.0000 0.22910  0.23670  0.03600  Biso   1.000  N
  N2       1.0000 0.77090  0.73670  0.46400  Biso   1.000  N
  N3       1.0000 0.77090  0.76330  0.96400  Biso   1.000  N
  N4       1.0000 0.22910  0.26330  0.53600  Biso   1.000  N
  N5       1.0000 0.33320  0.37390  0.12890  Biso   1.000  N
  N6       1.0000 0.66680  0.87390  0.37110  Biso   1.000  N
  N7       1.0000 0.66680  0.62610  0.87110  Biso   1.000  N
  N8       1.0000 0.33320  0.12610  0.62890  Biso   1.000  N
  C1       1.0000 0.18260  0.16260  0.99390  Biso   1.000  C
  C2       1.0000 0.81740  0.66260  0.50610  Biso   1.000  C
  C3       1.0000 0.81740  0.83740  0.00610  Biso   1.000  C
  C4       1.0000 0.18260  0.33740  0.49390  Biso   1.000  C
  H1       1.0000 0.25460  0.11640  0.99240  Biso   1.000  H
  H2       1.0000 0.74540  0.61640  0.50760  Biso   1.000  H
  H3       1.0000 0.74540  0.88360  0.00760  Biso   1.000  H
  H4       1.0000 0.25460  0.38360  0.49240  Biso   1.000  H
  C5       1.0000 0.03310  0.15040  0.95210  Biso   1.000  C
  C6       1.0000 0.96690  0.65040  0.54790  Biso   1.000  C
  C7       1.0000 0.96690  0.84960  0.04790  Biso   1.000  C
  C8       1.0000 0.03310  0.34960  0.45210  Biso   1.000  C
  H5       1.0000 0.00490  0.09790  0.92220  Biso   1.000  H
  H6       1.0000 0.99510  0.59790  0.57780  Biso   1.000  H
  H7       1.0000 0.99510  0.90210  0.07780  Biso   1.000  H
  H8       1.0000 0.00490  0.40210  0.42220  Biso   1.000  H
  C9       1.0000 0.92790  0.21780  0.95590  Biso   1.000  C
  C10      1.0000 0.07210  0.71780  0.54410  Biso   1.000  C
  C11      1.0000 0.07210  0.78220  0.04410  Biso   1.000  C
  C12      1.0000 0.92790  0.28220  0.45590  Biso   1.000  C
  H9       1.0000 0.82560  0.21100  0.92890  Biso   1.000  H
  H10      1.0000 0.17440  0.71100  0.57110  Biso   1.000  H
  H11      1.0000 0.17440  0.78900  0.07110  Biso   1.000  H
  H12      1.0000 0.82560  0.28900  0.42890  Biso   1.000  H
  C13      1.0000 0.97150  0.29600  0.99930  Biso   1.000  C
  C14      1.0000 0.02850  0.79600  0.50070  Biso   1.000  C
  C15      1.0000 0.02850  0.70400  0.00070  Biso   1.000  C
  C16      1.0000 0.97150  0.20400  0.49930  Biso   1.000  C
  H13      1.0000 0.90090  0.34290  0.00120  Biso   1.000  H
  H14      1.0000 0.09910  0.84290  0.49880  Biso   1.000  H
  H15      1.0000 0.09910  0.65710  0.99880  Biso   1.000  H
  H16      1.0000 0.90090  0.15710  0.50120  Biso   1.000  H
  C17      1.0000 0.12360  0.30240  0.03980  Biso   1.000  C
  C18      1.0000 0.87640  0.80240  0.46020  Biso   1.000  C
  C19      1.0000 0.87640  0.69760  0.96020  Biso   1.000  C
  C20      1.0000 0.12360  0.19760  0.53980  Biso   1.000  C
  C21      1.0000 0.18370  0.38190  0.09230  Biso   1.000  C
  C22      1.0000 0.81630  0.88190  0.40770  Biso   1.000  C
  C23      1.0000 0.81630  0.61810  0.90770  Biso   1.000  C
  C24      1.0000 0.18370  0.11810  0.59230  Biso   1.000  C
  C25      1.0000 0.09540  0.45700  0.10290  Biso   1.000  C
  C26      1.0000 0.90460  0.95700  0.39710  Biso   1.000  C
  C27      1.0000 0.90460  0.54300  0.89710  Biso   1.000  C
  C28      1.0000 0.09540  0.04300  0.60290  Biso   1.000  C
  H17      1.0000 0.99230  0.46130  0.07660  Biso   1.000  H
  H18      1.0000 0.00770  0.96130  0.42340  Biso   1.000  H
  H19      1.0000 0.00770  0.53870  0.92340  Biso   1.000  H
  H20      1.0000 0.99230  0.03870  0.57660  Biso   1.000  H
  C29      1.0000 0.16360  0.52550  0.15350  Biso   1.000  C
  C30      1.0000 0.83640  0.02550  0.34650  Biso   1.000  C
  C31      1.0000 0.83640  0.47450  0.84650  Biso   1.000  C
  C32      1.0000 0.16360  0.97450  0.65350  Biso   1.000  C
  H21      1.0000 0.10580  0.57630  0.16280  Biso   1.000  H
  H22      1.0000 0.89420  0.07630  0.33720  Biso   1.000  H
  H23      1.0000 0.89420  0.42370  0.83720  Biso   1.000  H
  H24      1.0000 0.10580  0.92370  0.66280  Biso   1.000  H
  C33      1.0000 0.31840  0.51840  0.19050  Biso   1.000  C
  C34      1.0000 0.68160  0.01840  0.30950  Biso   1.000  C
  C35      1.0000 0.68160  0.48160  0.80950  Biso   1.000  C
  C36      1.0000 0.31840  0.98160  0.69050  Biso   1.000  C
  H25      1.0000 0.36630  0.56490  0.22360  Biso   1.000  H
  H26      1.0000 0.63370  0.06490  0.27640  Biso   1.000  H
  H27      1.0000 0.63370  0.43510  0.77640  Biso   1.000  H
  H28      1.0000 0.36630  0.93510  0.72360  Biso   1.000  H
  C37      1.0000 0.40080  0.44120  0.17740  Biso   1.000  C
  C38      1.0000 0.59920  0.94120  0.32260  Biso   1.000  C
  C39      1.0000 0.59920  0.55880  0.82260  Biso   1.000  C
  C40      1.0000 0.40080  0.05880  0.67740  Biso   1.000  C
  H29      1.0000 0.50440  0.43580  0.20250  Biso   1.000  H
  H30      1.0000 0.49560  0.93580  0.29750  Biso   1.000  H
  H31      1.0000 0.49560  0.56420  0.79750  Biso   1.000  H
  H32      1.0000 0.50440  0.06420  0.70250  Biso   1.000  H
  C41      1.0000 0.76460  0.25640  0.17580  Biso   1.000  C
  C42      1.0000 0.23540  0.75640  0.32420  Biso   1.000  C
  C43      1.0000 0.23540  0.74360  0.82420  Biso   1.000  C
  C44      1.0000 0.76460  0.24360  0.67580  Biso   1.000  C
  C45      1.0000 0.79020  0.16930  0.14450  Biso   1.000  C
  C46      1.0000 0.20980  0.66930  0.35550  Biso   1.000  C
  C47      1.0000 0.20980  0.83070  0.85550  Biso   1.000  C
  C48      1.0000 0.79020  0.33070  0.64450  Biso   1.000  C
  C49      1.0000 0.93580  0.12870  0.16520  Biso   1.000  C
  C50      1.0000 0.06420  0.62870  0.33480  Biso   1.000  C
  C51      1.0000 0.06420  0.87130  0.83480  Biso   1.000  C
  C52      1.0000 0.93580  0.37130  0.66520  Biso   1.000  C
  H33      1.0000 0.95130  0.07140  0.14490  Biso   1.000  H
  H34      1.0000 0.04870  0.57140  0.35510  Biso   1.000  H
  H35      1.0000 0.04870  0.92860  0.85510  Biso   1.000  H
  H36      1.0000 0.95130  0.42860  0.64490  Biso   1.000  H
  C53      1.0000 0.05720  0.17120  0.21500  Biso   1.000  C
  C54      1.0000 0.94280  0.67120  0.28500  Biso   1.000  C
  C55      1.0000 0.94280  0.82880  0.78500  Biso   1.000  C
  C56      1.0000 0.05720  0.32880  0.71500  Biso   1.000  C
  C57      1.0000 0.03160  0.25720  0.24600  Biso   1.000  C
  C58      1.0000 0.96840  0.75720  0.25400  Biso   1.000  C
  C59      1.0000 0.96840  0.74280  0.75400  Biso   1.000  C
  C60      1.0000 0.03160  0.24280  0.74600  Biso   1.000  C
  H37      1.0000 0.11250  0.28650  0.28020  Biso   1.000  H
  H38      1.0000 0.88750  0.78650  0.21980  Biso   1.000  H
  H39      1.0000 0.88750  0.71350  0.71980  Biso   1.000  H
  H40      1.0000 0.11250  0.21350  0.78020  Biso   1.000  H
  C61      1.0000 0.89170  0.29810  0.22720  Biso   1.000  C
  C62      1.0000 0.10830  0.79810  0.27280  Biso   1.000  C
  C63      1.0000 0.10830  0.70190  0.77280  Biso   1.000  C
  C64      1.0000 0.89170  0.20190  0.72720  Biso   1.000  C
  H41      1.0000 0.87850  0.35530  0.24850  Biso   1.000  H
  H42      1.0000 0.12150  0.85530  0.25150  Biso   1.000  H
  H43      1.0000 0.12150  0.64470  0.75150  Biso   1.000  H
  H44      1.0000 0.87850  0.14470  0.74850  Biso   1.000  H
  C65      1.0000 0.66560  0.12040  0.08900  Biso   1.000  C
  C66      1.0000 0.33440  0.62040  0.41100  Biso   1.000  C
  C67      1.0000 0.33440  0.87960  0.91100  Biso   1.000  C
  C68      1.0000 0.66560  0.37960  0.58900  Biso   1.000  C
  O29      1.0000 0.49360  0.34440  0.96150  Biso   1.000  O
  O30      1.0000 0.50640  0.84440  0.53850  Biso   1.000  O
  O31      1.0000 0.50640  0.65560  0.03850  Biso   1.000  O
  O32      1.0000 0.49360  0.15560  0.46150  Biso   1.000  O
  O33      1.0000 0.54920  0.21030  0.85240  Biso   1.000  O
  O34      1.0000 0.45080  0.71030  0.64760  Biso   1.000  O
  O35      1.0000 0.45080  0.78970  0.14760  Biso   1.000  O
  O36      1.0000 0.54920  0.28970  0.35240  Biso   1.000  O
  O37      1.0000 0.29440  0.94870  0.43560  Biso   1.000  O
  O38      1.0000 0.70560  0.44870  0.06440  Biso   1.000  O
  O39      1.0000 0.70560  0.05130  0.56440  Biso   1.000  O
  O40      1.0000 0.29440  0.55130  0.93560  Biso   1.000  O
