data_image0
_cell_length_a       7.0113
_cell_length_b       19.734
_cell_length_c       11.92
_cell_angle_alpha    90
_cell_angle_beta     94.71
_cell_angle_gamma    90

_symmetry_space_group_name_H-M    "P 1"
_symmetry_int_tables_number       1

loop_
  _symmetry_equiv_pos_as_xyz
  'x, y, z'

loop_
  _atom_site_label
  _atom_site_occupancy
  _atom_site_fract_x
  _atom_site_fract_y
  _atom_site_fract_z
  _atom_site_thermal_displace_type
  _atom_site_B_iso_or_equiv
  _atom_site_type_symbol
  Cu1      1.0000 0.24430  0.84677  0.09230  Biso   1.000  Cu
  Cu2      1.0000 0.24430  0.65323  0.59230  Biso   1.000  Cu
  Cu3      1.0000 0.75570  0.15323  0.90770  Biso   1.000  Cu
  Cu4      1.0000 0.75570  0.34677  0.40770  Biso   1.000  Cu
  O1       1.0000 0.98810  0.78990  0.02466  Biso   1.000  O
  O2       1.0000 0.98810  0.71010  0.52466  Biso   1.000  O
  O3       1.0000 0.01190  0.21010  0.97534  Biso   1.000  O
  O4       1.0000 0.01190  0.28990  0.47534  Biso   1.000  O
  O5       1.0000 0.64390  0.60400  0.86380  Biso   1.000  O
  O6       1.0000 0.64390  0.89600  0.36380  Biso   1.000  O
  O7       1.0000 0.35610  0.39600  0.13620  Biso   1.000  O
  O8       1.0000 0.35610  0.10400  0.63620  Biso   1.000  O
  O9       1.0000 0.14060  0.81513  0.22972  Biso   1.000  O
  O10      1.0000 0.14060  0.68487  0.72972  Biso   1.000  O
  O11      1.0000 0.85940  0.18487  0.77028  Biso   1.000  O
  O12      1.0000 0.85940  0.31513  0.27028  Biso   1.000  O
  O13      1.0000 0.02320  0.43037  0.00780  Biso   1.000  O
  O14      1.0000 0.02320  0.06963  0.50780  Biso   1.000  O
  O15      1.0000 0.97680  0.56963  0.99220  Biso   1.000  O
  O16      1.0000 0.97680  0.93037  0.49220  Biso   1.000  O
  O17      1.0000 0.93930  0.74617  0.30715  Biso   1.000  O
  O18      1.0000 0.93930  0.75383  0.80715  Biso   1.000  O
  O19      1.0000 0.06070  0.25383  0.69285  Biso   1.000  O
  O20      1.0000 0.06070  0.24617  0.19285  Biso   1.000  O
  O21      1.0000 0.29670  0.85000  0.45020  Biso   1.000  O
  O22      1.0000 0.29670  0.65000  0.95020  Biso   1.000  O
  O23      1.0000 0.70330  0.15000  0.54980  Biso   1.000  O
  O24      1.0000 0.70330  0.35000  0.04980  Biso   1.000  O
  O25      1.0000 0.64140  0.83654  0.14720  Biso   1.000  O
  O26      1.0000 0.64140  0.66346  0.64720  Biso   1.000  O
  O27      1.0000 0.35860  0.16346  0.85280  Biso   1.000  O
  O28      1.0000 0.35860  0.33654  0.35280  Biso   1.000  O
  O29      1.0000 0.41370  0.76644  0.07727  Biso   1.000  O
  O30      1.0000 0.41370  0.73356  0.57727  Biso   1.000  O
  O31      1.0000 0.58630  0.23356  0.92273  Biso   1.000  O
  O32      1.0000 0.58630  0.26644  0.42273  Biso   1.000  O
  N1       1.0000 0.29660  0.88524  0.94404  Biso   1.000  N
  N2       1.0000 0.29660  0.61476  0.44404  Biso   1.000  N
  N3       1.0000 0.70340  0.11476  0.05596  Biso   1.000  N
  N4       1.0000 0.70340  0.38524  0.55596  Biso   1.000  N
  N5       1.0000 0.21200  0.94555  0.12664  Biso   1.000  N
  N6       1.0000 0.21200  0.55445  0.62664  Biso   1.000  N
  N7       1.0000 0.78800  0.05445  0.87336  Biso   1.000  N
  N8       1.0000 0.78800  0.44555  0.37336  Biso   1.000  N
  C1       1.0000 0.32950  0.84896  0.85270  Biso   1.000  C
  C2       1.0000 0.32950  0.65104  0.35270  Biso   1.000  C
  C3       1.0000 0.67050  0.15104  0.14730  Biso   1.000  C
  C4       1.0000 0.67050  0.34896  0.64730  Biso   1.000  C
  H1       1.0000 0.34010  0.80210  0.85900  Biso   1.000  H
  H2       1.0000 0.34010  0.69790  0.35900  Biso   1.000  H
  H3       1.0000 0.65990  0.19790  0.14100  Biso   1.000  H
  H4       1.0000 0.65990  0.30210  0.64100  Biso   1.000  H
  C5       1.0000 0.34820  0.87875  0.74940  Biso   1.000  C
  C6       1.0000 0.34820  0.62125  0.24940  Biso   1.000  C
  C7       1.0000 0.65180  0.12125  0.25060  Biso   1.000  C
  C8       1.0000 0.65180  0.37875  0.75060  Biso   1.000  C
  H5       1.0000 0.36520  0.85230  0.68640  Biso   1.000  H
  H6       1.0000 0.36520  0.64770  0.18640  Biso   1.000  H
  H7       1.0000 0.63480  0.14770  0.31360  Biso   1.000  H
  H8       1.0000 0.63480  0.35230  0.81360  Biso   1.000  H
  C9       1.0000 0.34130  0.94887  0.74110  Biso   1.000  C
  C10      1.0000 0.34130  0.55113  0.24110  Biso   1.000  C
  C11      1.0000 0.65870  0.05113  0.25890  Biso   1.000  C
  C12      1.0000 0.65870  0.44887  0.75890  Biso   1.000  C
  H9       1.0000 0.35750  0.97020  0.67290  Biso   1.000  H
  H10      1.0000 0.35750  0.52980  0.17290  Biso   1.000  H
  H11      1.0000 0.64250  0.02980  0.32710  Biso   1.000  H
  H12      1.0000 0.64250  0.47020  0.82710  Biso   1.000  H
  C13      1.0000 0.31000  0.98642  0.83540  Biso   1.000  C
  C14      1.0000 0.31000  0.51358  0.33540  Biso   1.000  C
  C15      1.0000 0.69000  0.01358  0.16460  Biso   1.000  C
  C16      1.0000 0.69000  0.48642  0.66460  Biso   1.000  C
  H13      1.0000 0.30620  0.03350  0.83170  Biso   1.000  H
  H14      1.0000 0.30620  0.46650  0.33170  Biso   1.000  H
  H15      1.0000 0.69380  0.96650  0.16830  Biso   1.000  H
  H16      1.0000 0.69380  0.53350  0.66830  Biso   1.000  H
  C17      1.0000 0.28430  0.95343  0.93585  Biso   1.000  C
  C18      1.0000 0.28430  0.54657  0.43585  Biso   1.000  C
  C19      1.0000 0.71570  0.04657  0.06415  Biso   1.000  C
  C20      1.0000 0.71570  0.45343  0.56415  Biso   1.000  C
  C21      1.0000 0.23930  0.98782  0.04087  Biso   1.000  C
  C22      1.0000 0.23930  0.51218  0.54087  Biso   1.000  C
  C23      1.0000 0.76070  0.01218  0.95913  Biso   1.000  C
  C24      1.0000 0.76070  0.48782  0.45913  Biso   1.000  C
  C25      1.0000 0.22460  0.05740  0.05200  Biso   1.000  C
  C26      1.0000 0.22460  0.44260  0.55200  Biso   1.000  C
  C27      1.0000 0.77540  0.94260  0.94800  Biso   1.000  C
  C28      1.0000 0.77540  0.55740  0.44800  Biso   1.000  C
  H17      1.0000 0.24200  0.08590  0.99150  Biso   1.000  H
  H18      1.0000 0.24200  0.41410  0.49150  Biso   1.000  H
  H19      1.0000 0.75800  0.91410  0.00850  Biso   1.000  H
  H20      1.0000 0.75800  0.58590  0.50850  Biso   1.000  H
  C29      1.0000 0.18360  0.08365  0.15500  Biso   1.000  C
  C30      1.0000 0.18360  0.41635  0.65500  Biso   1.000  C
  C31      1.0000 0.81640  0.91635  0.84500  Biso   1.000  C
  C32      1.0000 0.81640  0.58365  0.34500  Biso   1.000  C
  H21      1.0000 0.17290  0.13020  0.16460  Biso   1.000  H
  H22      1.0000 0.17290  0.36980  0.66460  Biso   1.000  H
  H23      1.0000 0.82710  0.86980  0.83540  Biso   1.000  H
  H24      1.0000 0.82710  0.63020  0.33540  Biso   1.000  H
  C33      1.0000 0.15870  0.04062  0.24280  Biso   1.000  C
  C34      1.0000 0.15870  0.45938  0.74280  Biso   1.000  C
  C35      1.0000 0.84130  0.95938  0.75720  Biso   1.000  C
  C36      1.0000 0.84130  0.54062  0.25720  Biso   1.000  C
  H25      1.0000 0.13340  0.05760  0.31280  Biso   1.000  H
  H26      1.0000 0.13340  0.44240  0.81280  Biso   1.000  H
  H27      1.0000 0.86660  0.94240  0.68720  Biso   1.000  H
  H28      1.0000 0.86660  0.55760  0.18720  Biso   1.000  H
  C37      1.0000 0.17180  0.97165  0.22590  Biso   1.000  C
  C38      1.0000 0.17180  0.52835  0.72590  Biso   1.000  C
  C39      1.0000 0.82820  0.02835  0.77410  Biso   1.000  C
  C40      1.0000 0.82820  0.47165  0.27410  Biso   1.000  C
  H29      1.0000 0.15230  0.94240  0.28510  Biso   1.000  H
  H30      1.0000 0.15230  0.55760  0.78510  Biso   1.000  H
  H31      1.0000 0.84770  0.05760  0.71490  Biso   1.000  H
  H32      1.0000 0.84770  0.44240  0.21490  Biso   1.000  H
  C41      1.0000 0.00760  0.77086  0.22434  Biso   1.000  C
  C42      1.0000 0.00760  0.72914  0.72434  Biso   1.000  C
  C43      1.0000 0.99240  0.22914  0.77566  Biso   1.000  C
  C44      1.0000 0.99240  0.27086  0.27566  Biso   1.000  C
  C45      1.0000 0.94010  0.74260  0.10831  Biso   1.000  C
  C46      1.0000 0.94010  0.75740  0.60831  Biso   1.000  C
  C47      1.0000 0.05990  0.25740  0.89169  Biso   1.000  C
  C48      1.0000 0.05990  0.24260  0.39169  Biso   1.000  C
  H33      1.0000 0.01340  0.70120  0.09740  Biso   1.000  H
  H34      1.0000 0.01340  0.79880  0.59740  Biso   1.000  H
  H35      1.0000 0.98660  0.29880  0.90260  Biso   1.000  H
  H36      1.0000 0.98660  0.20120  0.40260  Biso   1.000  H
  C49      1.0000 0.72950  0.72377  0.09480  Biso   1.000  C
  C50      1.0000 0.72950  0.77623  0.59480  Biso   1.000  C
  C51      1.0000 0.27050  0.27623  0.90520  Biso   1.000  C
  C52      1.0000 0.27050  0.22377  0.40520  Biso   1.000  C
  H37      1.0000 0.70180  0.70430  0.02060  Biso   1.000  H
  H38      1.0000 0.70180  0.79570  0.52060  Biso   1.000  H
  H39      1.0000 0.29820  0.29570  0.97940  Biso   1.000  H
  H40      1.0000 0.29820  0.20430  0.47940  Biso   1.000  H
  H41      1.0000 0.70690  0.68880  0.14940  Biso   1.000  H
  H42      1.0000 0.70690  0.81120  0.64940  Biso   1.000  H
  H43      1.0000 0.29310  0.31120  0.85060  Biso   1.000  H
  H44      1.0000 0.29310  0.18880  0.35060  Biso   1.000  H
  C53      1.0000 0.58910  0.78112  0.10889  Biso   1.000  C
  C54      1.0000 0.58910  0.71888  0.60889  Biso   1.000  C
  C55      1.0000 0.41090  0.21888  0.89111  Biso   1.000  C
  C56      1.0000 0.41090  0.28112  0.39111  Biso   1.000  C
  H45      1.0000 0.12000  0.42400  0.06700  Biso   1.000  H
  H46      1.0000 0.12000  0.07600  0.56700  Biso   1.000  H
  H47      1.0000 0.88000  0.57600  0.93300  Biso   1.000  H
  H48      1.0000 0.88000  0.92400  0.43300  Biso   1.000  H
  H49      1.0000 0.90800  0.40500  0.00400  Biso   1.000  H
  H50      1.0000 0.90800  0.09500  0.50400  Biso   1.000  H
  H51      1.0000 0.09200  0.59500  0.99600  Biso   1.000  H
  H52      1.0000 0.09200  0.90500  0.49600  Biso   1.000  H
  H53      1.0000 0.63600  0.62300  0.79000  Biso   1.000  H
  H54      1.0000 0.63600  0.87700  0.29000  Biso   1.000  H
  H55      1.0000 0.36400  0.37700  0.21000  Biso   1.000  H
  H56      1.0000 0.36400  0.12300  0.71000  Biso   1.000  H
  H57      1.0000 0.32200  0.80870  0.49010  Biso   1.000  H
  H58      1.0000 0.32200  0.69130  0.99010  Biso   1.000  H
  H59      1.0000 0.67800  0.19130  0.50990  Biso   1.000  H
  H60      1.0000 0.67800  0.30870  0.00990  Biso   1.000  H
  H61      1.0000 0.97900  0.77180  0.95980  Biso   1.000  H
  H62      1.0000 0.97900  0.72820  0.45980  Biso   1.000  H
  H63      1.0000 0.02100  0.22820  0.04020  Biso   1.000  H
  H64      1.0000 0.02100  0.27180  0.54020  Biso   1.000  H
  H65      1.0000 0.36200  0.87950  0.49600  Biso   1.000  H
  H66      1.0000 0.36200  0.62050  0.99600  Biso   1.000  H
  H67      1.0000 0.63800  0.12050  0.50400  Biso   1.000  H
  H68      1.0000 0.63800  0.37950  0.00400  Biso   1.000  H
  H69      1.0000 0.55000  0.59700  0.91800  Biso   1.000  H
  H70      1.0000 0.55000  0.90300  0.41800  Biso   1.000  H
  H71      1.0000 0.45000  0.40300  0.08200  Biso   1.000  H
  H72      1.0000 0.45000  0.09700  0.58200  Biso   1.000  H
