data_image0
_cell_length_a       8.6362
_cell_length_b       14.8632
_cell_length_c       15.9582
_cell_angle_alpha    90
_cell_angle_beta     98.186
_cell_angle_gamma    90

_symmetry_space_group_name_H-M    "P 1"
_symmetry_int_tables_number       1

loop_
  _symmetry_equiv_pos_as_xyz
  'x, y, z'

loop_
  _atom_site_label
  _atom_site_occupancy
  _atom_site_fract_x
  _atom_site_fract_y
  _atom_site_fract_z
  _atom_site_thermal_displace_type
  _atom_site_B_iso_or_equiv
  _atom_site_type_symbol
  C1       1.0000 0.18740  0.83800  0.99260  Biso   1.000  C
  C2       1.0000 0.81260  0.33800  0.50740  Biso   1.000  C
  C3       1.0000 0.81260  0.16200  0.00740  Biso   1.000  C
  C4       1.0000 0.18740  0.66200  0.49260  Biso   1.000  C
  H1       1.0000 0.26270  0.88510  0.99080  Biso   1.000  H
  H2       1.0000 0.73730  0.38510  0.50920  Biso   1.000  H
  H3       1.0000 0.73730  0.11490  0.00920  Biso   1.000  H
  H4       1.0000 0.26270  0.61490  0.49080  Biso   1.000  H
  C5       1.0000 0.03680  0.85060  0.95080  Biso   1.000  C
  C6       1.0000 0.96320  0.35060  0.54920  Biso   1.000  C
  C7       1.0000 0.96320  0.14940  0.04920  Biso   1.000  C
  C8       1.0000 0.03680  0.64940  0.45080  Biso   1.000  C
  H5       1.0000 0.00780  0.90470  0.91970  Biso   1.000  H
  H6       1.0000 0.99220  0.40470  0.58030  Biso   1.000  H
  H7       1.0000 0.99220  0.09530  0.08030  Biso   1.000  H
  H8       1.0000 0.00780  0.59530  0.41970  Biso   1.000  H
  C9       1.0000 0.93040  0.78220  0.95520  Biso   1.000  C
  C10      1.0000 0.06960  0.28220  0.54480  Biso   1.000  C
  C11      1.0000 0.06960  0.21780  0.04480  Biso   1.000  C
  C12      1.0000 0.93040  0.71780  0.45520  Biso   1.000  C
  H9       1.0000 0.82530  0.78870  0.92680  Biso   1.000  H
  H10      1.0000 0.17470  0.28870  0.57320  Biso   1.000  H
  H11      1.0000 0.17470  0.21130  0.07320  Biso   1.000  H
  H12      1.0000 0.82530  0.71130  0.42680  Biso   1.000  H
  C13      1.0000 0.97410  0.70350  0.99970  Biso   1.000  C
  C14      1.0000 0.02590  0.20350  0.50030  Biso   1.000  C
  C15      1.0000 0.02590  0.29650  0.00030  Biso   1.000  C
  C16      1.0000 0.97410  0.79650  0.49970  Biso   1.000  C
  H13      1.0000 0.90110  0.65530  0.00290  Biso   1.000  H
  H14      1.0000 0.09890  0.15530  0.49710  Biso   1.000  H
  H15      1.0000 0.09890  0.34470  0.99710  Biso   1.000  H
  H16      1.0000 0.90110  0.84470  0.50290  Biso   1.000  H
  C17      1.0000 0.12710  0.69640  0.03940  Biso   1.000  C
  C18      1.0000 0.87290  0.19640  0.46060  Biso   1.000  C
  C19      1.0000 0.87290  0.30360  0.96060  Biso   1.000  C
  C20      1.0000 0.12710  0.80360  0.53940  Biso   1.000  C
  C21      1.0000 0.18740  0.61800  0.09240  Biso   1.000  C
  C22      1.0000 0.81260  0.11800  0.40760  Biso   1.000  C
  C23      1.0000 0.81260  0.38200  0.90760  Biso   1.000  C
  C24      1.0000 0.18740  0.88200  0.59240  Biso   1.000  C
  C25      1.0000 0.09610  0.54260  0.10410  Biso   1.000  C
  C26      1.0000 0.90390  0.04260  0.39590  Biso   1.000  C
  C27      1.0000 0.90390  0.45740  0.89590  Biso   1.000  C
  C28      1.0000 0.09610  0.95740  0.60410  Biso   1.000  C
  H17      1.0000 0.98810  0.54010  0.07940  Biso   1.000  H
  H18      1.0000 0.01190  0.04010  0.42060  Biso   1.000  H
  H19      1.0000 0.01190  0.45990  0.92060  Biso   1.000  H
  H20      1.0000 0.98810  0.95990  0.57940  Biso   1.000  H
  C29      1.0000 0.16450  0.47410  0.15280  Biso   1.000  C
  C30      1.0000 0.83550  0.97410  0.34720  Biso   1.000  C
  C31      1.0000 0.83550  0.52590  0.84720  Biso   1.000  C
  C32      1.0000 0.16450  0.02590  0.65280  Biso   1.000  C
  H21      1.0000 0.10620  0.42020  0.15920  Biso   1.000  H
  H22      1.0000 0.89380  0.92020  0.34080  Biso   1.000  H
  H23      1.0000 0.89380  0.57980  0.84080  Biso   1.000  H
  H24      1.0000 0.10620  0.07980  0.65920  Biso   1.000  H
  C33      1.0000 0.32080  0.48090  0.19260  Biso   1.000  C
  C34      1.0000 0.67920  0.98090  0.30740  Biso   1.000  C
  C35      1.0000 0.67920  0.51910  0.80740  Biso   1.000  C
  C36      1.0000 0.32080  0.01910  0.69260  Biso   1.000  C
  H25      1.0000 0.36960  0.43350  0.22790  Biso   1.000  H
  H26      1.0000 0.63040  0.93350  0.27210  Biso   1.000  H
  H27      1.0000 0.63040  0.56650  0.77210  Biso   1.000  H
  H28      1.0000 0.36960  0.06650  0.72790  Biso   1.000  H
  C37      1.0000 0.39990  0.55770  0.17860  Biso   1.000  C
  C38      1.0000 0.60010  0.05770  0.32140  Biso   1.000  C
  C39      1.0000 0.60010  0.44230  0.82140  Biso   1.000  C
  C40      1.0000 0.39990  0.94230  0.67860  Biso   1.000  C
  H29      1.0000 0.50580  0.56470  0.20570  Biso   1.000  H
  H30      1.0000 0.49420  0.06470  0.29430  Biso   1.000  H
  H31      1.0000 0.49420  0.43530  0.79430  Biso   1.000  H
  H32      1.0000 0.50580  0.93530  0.70570  Biso   1.000  H
  C41      1.0000 0.76910  0.74310  0.17740  Biso   1.000  C
  C42      1.0000 0.23090  0.24310  0.32260  Biso   1.000  C
  C43      1.0000 0.23090  0.25690  0.82260  Biso   1.000  C
  C44      1.0000 0.76910  0.75690  0.67740  Biso   1.000  C
  C45      1.0000 0.89210  0.70050  0.22800  Biso   1.000  C
  C46      1.0000 0.10790  0.20050  0.27200  Biso   1.000  C
  C47      1.0000 0.10790  0.29950  0.77200  Biso   1.000  C
  C48      1.0000 0.89210  0.79950  0.72800  Biso   1.000  C
  H33      1.0000 0.87550  0.64180  0.25020  Biso   1.000  H
  H34      1.0000 0.12450  0.14180  0.24980  Biso   1.000  H
  H35      1.0000 0.12450  0.35820  0.74980  Biso   1.000  H
  H36      1.0000 0.87550  0.85820  0.75020  Biso   1.000  H
  C49      1.0000 0.03730  0.74110  0.24650  Biso   1.000  C
  C50      1.0000 0.96270  0.24110  0.25350  Biso   1.000  C
  C51      1.0000 0.96270  0.25890  0.75350  Biso   1.000  C
  C52      1.0000 0.03730  0.75890  0.74650  Biso   1.000  C
  H37      1.0000 0.12200  0.71060  0.28050  Biso   1.000  H
  H38      1.0000 0.87800  0.21060  0.21950  Biso   1.000  H
  H39      1.0000 0.87800  0.28940  0.71950  Biso   1.000  H
  H40      1.0000 0.12200  0.78940  0.78050  Biso   1.000  H
  C53      1.0000 0.05950  0.82780  0.21570  Biso   1.000  C
  C54      1.0000 0.94050  0.32780  0.28430  Biso   1.000  C
  C55      1.0000 0.94050  0.17220  0.78430  Biso   1.000  C
  C56      1.0000 0.05950  0.67220  0.71570  Biso   1.000  C
  C57      1.0000 0.93850  0.87120  0.16410  Biso   1.000  C
  C58      1.0000 0.06150  0.37120  0.33590  Biso   1.000  C
  C59      1.0000 0.06150  0.12880  0.83590  Biso   1.000  C
  C60      1.0000 0.93850  0.62880  0.66410  Biso   1.000  C
  H41      1.0000 0.95560  0.92950  0.14130  Biso   1.000  H
  H42      1.0000 0.04440  0.42950  0.35870  Biso   1.000  H
  H43      1.0000 0.04440  0.07050  0.85870  Biso   1.000  H
  H44      1.0000 0.95560  0.57050  0.64130  Biso   1.000  H
  C61      1.0000 0.79240  0.82910  0.14510  Biso   1.000  C
  C62      1.0000 0.20760  0.32910  0.35490  Biso   1.000  C
  C63      1.0000 0.20760  0.17090  0.85490  Biso   1.000  C
  C64      1.0000 0.79240  0.67090  0.64510  Biso   1.000  C
  C65      1.0000 0.67160  0.87760  0.08620  Biso   1.000  C
  C66      1.0000 0.32840  0.37760  0.41380  Biso   1.000  C
  C67      1.0000 0.32840  0.12240  0.91380  Biso   1.000  C
  C68      1.0000 0.67160  0.62240  0.58620  Biso   1.000  C
  Cu1      1.0000 0.44331  0.73734  0.09945  Biso   1.000  Cu
  Cu2      1.0000 0.55669  0.23734  0.40055  Biso   1.000  Cu
  Cu3      1.0000 0.55669  0.26266  0.90055  Biso   1.000  Cu
  Cu4      1.0000 0.44331  0.76266  0.59945  Biso   1.000  Cu
  Cu5      1.0000 0.50000  0.00000  0.00000  Biso   1.000  Cu
  Cu6      1.0000 0.50000  0.50000  0.50000  Biso   1.000  Cu
  N1       1.0000 0.23270  0.76250  0.03630  Biso   1.000  N
  N2       1.0000 0.76730  0.26250  0.46370  Biso   1.000  N
  N3       1.0000 0.76730  0.23750  0.96370  Biso   1.000  N
  N4       1.0000 0.23270  0.73750  0.53630  Biso   1.000  N
  N5       1.0000 0.33610  0.62460  0.12890  Biso   1.000  N
  N6       1.0000 0.66390  0.12460  0.37110  Biso   1.000  N
  N7       1.0000 0.66390  0.37540  0.87110  Biso   1.000  N
  N8       1.0000 0.33610  0.87540  0.62890  Biso   1.000  N
  O1       1.0000 0.70530  0.95440  0.05900  Biso   1.000  O
  O2       1.0000 0.29470  0.45440  0.44100  Biso   1.000  O
  O3       1.0000 0.29470  0.04560  0.94100  Biso   1.000  O
  O4       1.0000 0.70530  0.54560  0.55900  Biso   1.000  O
  O5       1.0000 0.53530  0.84560  0.06280  Biso   1.000  O
  O6       1.0000 0.46470  0.34560  0.43720  Biso   1.000  O
  O7       1.0000 0.46470  0.15440  0.93720  Biso   1.000  O
  O8       1.0000 0.53530  0.65440  0.56280  Biso   1.000  O
  O9       1.0000 0.63470  0.69790  0.16090  Biso   1.000  O
  O10      1.0000 0.36530  0.19790  0.33910  Biso   1.000  O
  O11      1.0000 0.36530  0.30210  0.83910  Biso   1.000  O
  O12      1.0000 0.63470  0.80210  0.66090  Biso   1.000  O
  O13      1.0000 0.23490  0.96620  0.19980  Biso   1.000  O
  O14      1.0000 0.76510  0.46620  0.30020  Biso   1.000  O
  O15      1.0000 0.76510  0.03380  0.80020  Biso   1.000  O
  O16      1.0000 0.23490  0.53380  0.69980  Biso   1.000  O
  O17      1.0000 0.25110  0.89450  0.33810  Biso   1.000  O
  O18      1.0000 0.74890  0.39450  0.16190  Biso   1.000  O
  O19      1.0000 0.74890  0.10550  0.66190  Biso   1.000  O
  O20      1.0000 0.25110  0.60550  0.83810  Biso   1.000  O
  O21      1.0000 0.36400  0.82070  0.22580  Biso   1.000  O
  O22      1.0000 0.63600  0.32070  0.27420  Biso   1.000  O
  O23      1.0000 0.63600  0.17930  0.77420  Biso   1.000  O
  O24      1.0000 0.36400  0.67930  0.72580  Biso   1.000  O
  O25      1.0000 0.43390  0.03920  0.10430  Biso   1.000  O
  O26      1.0000 0.56610  0.53920  0.39570  Biso   1.000  O
  O27      1.0000 0.56610  0.96080  0.89570  Biso   1.000  O
  O28      1.0000 0.43390  0.46080  0.60430  Biso   1.000  O
  H45      1.0000 0.43170  0.99450  0.13730  Biso   1.000  H
  H46      1.0000 0.56830  0.49450  0.36270  Biso   1.000  H
  H47      1.0000 0.56830  0.00550  0.86270  Biso   1.000  H
  H48      1.0000 0.43170  0.50550  0.63730  Biso   1.000  H
  H49      1.0000 0.49900  0.07780  0.12730  Biso   1.000  H
  H50      1.0000 0.50100  0.57780  0.37270  Biso   1.000  H
  H51      1.0000 0.50100  0.92220  0.87270  Biso   1.000  H
  H52      1.0000 0.49900  0.42220  0.62730  Biso   1.000  H
  S1       1.0000 0.24130  0.88193  0.24610  Biso   1.000  S
  S2       1.0000 0.75870  0.38193  0.25390  Biso   1.000  S
  S3       1.0000 0.75870  0.11807  0.75390  Biso   1.000  S
  S4       1.0000 0.24130  0.61807  0.74610  Biso   1.000  S
  O29      1.0000 0.49730  0.65760  0.96130  Biso   1.000  O
  O30      1.0000 0.50270  0.15760  0.53870  Biso   1.000  O
  O31      1.0000 0.50270  0.34240  0.03870  Biso   1.000  O
  O32      1.0000 0.49730  0.84240  0.46130  Biso   1.000  O
  H53      1.0000 0.43220  0.61900  0.97430  Biso   1.000  H
  H54      1.0000 0.56780  0.11900  0.52570  Biso   1.000  H
  H55      1.0000 0.56780  0.38100  0.02570  Biso   1.000  H
  H56      1.0000 0.43220  0.88100  0.47430  Biso   1.000  H
  H57      1.0000 0.58980  0.63770  0.97470  Biso   1.000  H
  H58      1.0000 0.41020  0.13770  0.52530  Biso   1.000  H
  H59      1.0000 0.41020  0.36230  0.02530  Biso   1.000  H
  H60      1.0000 0.58980  0.86230  0.47470  Biso   1.000  H
  O33      1.0000 0.70780  0.55100  0.06540  Biso   1.000  O
  O34      1.0000 0.29220  0.05100  0.43460  Biso   1.000  O
  O35      1.0000 0.29220  0.44900  0.93460  Biso   1.000  O
  O36      1.0000 0.70780  0.94900  0.56540  Biso   1.000  O
  H61      1.0000 0.67380  0.50680  0.09130  Biso   1.000  H
  H62      1.0000 0.32620  0.00680  0.40870  Biso   1.000  H
  H63      1.0000 0.32620  0.49320  0.90870  Biso   1.000  H
  H64      1.0000 0.67380  0.99320  0.59130  Biso   1.000  H
  H65      1.0000 0.73420  0.53280  0.01900  Biso   1.000  H
  H66      1.0000 0.26580  0.03280  0.48100  Biso   1.000  H
  H67      1.0000 0.26580  0.46720  0.98100  Biso   1.000  H
  H68      1.0000 0.73420  0.96720  0.51900  Biso   1.000  H
  O37      1.0000 0.44500  0.21060  0.14760  Biso   1.000  O
  O38      1.0000 0.55500  0.71060  0.35240  Biso   1.000  O
  O39      1.0000 0.55500  0.78940  0.85240  Biso   1.000  O
  O40      1.0000 0.44500  0.28940  0.64760  Biso   1.000  O
  H69      1.0000 0.48720  0.18580  0.10850  Biso   1.000  H
  H70      1.0000 0.51280  0.68580  0.39150  Biso   1.000  H
  H71      1.0000 0.51280  0.81420  0.89150  Biso   1.000  H
  H72      1.0000 0.48720  0.31420  0.60850  Biso   1.000  H
  H73      1.0000 0.50840  0.20930  0.19350  Biso   1.000  H
  H74      1.0000 0.49160  0.70930  0.30650  Biso   1.000  H
  H75      1.0000 0.49160  0.79070  0.80650  Biso   1.000  H
  H76      1.0000 0.50840  0.29070  0.69350  Biso   1.000  H
