data_image0
_cell_length_a       7.0132
_cell_length_b       19.73
_cell_length_c       11.8998
_cell_angle_alpha    90
_cell_angle_beta     94.551
_cell_angle_gamma    90

_symmetry_space_group_name_H-M    "P 1"
_symmetry_int_tables_number       1

loop_
  _symmetry_equiv_pos_as_xyz
  'x, y, z'

loop_
  _atom_site_label
  _atom_site_occupancy
  _atom_site_fract_x
  _atom_site_fract_y
  _atom_site_fract_z
  _atom_site_thermal_displace_type
  _atom_site_B_iso_or_equiv
  _atom_site_type_symbol
  H1       1.0000 0.87800  0.37400  0.70300  Biso   1.000  H
  H2       1.0000 0.12200  0.87400  0.79700  Biso   1.000  H
  H3       1.0000 0.12200  0.62600  0.29700  Biso   1.000  H
  H4       1.0000 0.87800  0.12600  0.20300  Biso   1.000  H
  Cu1      1.0000 0.25459  0.34718  0.90676  Biso   1.000  Cu
  Cu2      1.0000 0.74541  0.84718  0.59324  Biso   1.000  Cu
  Cu3      1.0000 0.74541  0.65282  0.09324  Biso   1.000  Cu
  Cu4      1.0000 0.25459  0.15282  0.40676  Biso   1.000  Cu
  O1       1.0000 0.35820  0.31597  0.76924  Biso   1.000  O
  O2       1.0000 0.64180  0.81597  0.73076  Biso   1.000  O
  O3       1.0000 0.64180  0.68403  0.23076  Biso   1.000  O
  O4       1.0000 0.35820  0.18403  0.26924  Biso   1.000  O
  O5       1.0000 0.55900  0.24660  0.69090  Biso   1.000  O
  O6       1.0000 0.44100  0.74660  0.80910  Biso   1.000  O
  O7       1.0000 0.44100  0.75340  0.30910  Biso   1.000  O
  O8       1.0000 0.55900  0.25340  0.19090  Biso   1.000  O
  O9       1.0000 0.51040  0.29054  0.97410  Biso   1.000  O
  O10      1.0000 0.48960  0.79054  0.52590  Biso   1.000  O
  O11      1.0000 0.48960  0.70946  0.02590  Biso   1.000  O
  O12      1.0000 0.51040  0.20946  0.47410  Biso   1.000  O
  O13      1.0000 0.85850  0.33694  0.85100  Biso   1.000  O
  O14      1.0000 0.14150  0.83694  0.64900  Biso   1.000  O
  O15      1.0000 0.14150  0.66306  0.14900  Biso   1.000  O
  O16      1.0000 0.85850  0.16306  0.35100  Biso   1.000  O
  O17      1.0000 0.08530  0.26704  0.92080  Biso   1.000  O
  O18      1.0000 0.91470  0.76704  0.57920  Biso   1.000  O
  O19      1.0000 0.91470  0.73296  0.07920  Biso   1.000  O
  O20      1.0000 0.08530  0.23296  0.42080  Biso   1.000  O
  O21      1.0000 0.20160  0.35140  0.54760  Biso   1.000  O
  O22      1.0000 0.79840  0.85140  0.95240  Biso   1.000  O
  O23      1.0000 0.79840  0.64860  0.45240  Biso   1.000  O
  O24      1.0000 0.20160  0.14860  0.04760  Biso   1.000  O
  O25      1.0000 0.52080  0.06990  0.00680  Biso   1.000  O
  O26      1.0000 0.47920  0.56990  0.49320  Biso   1.000  O
  O27      1.0000 0.47920  0.93010  0.99320  Biso   1.000  O
  O28      1.0000 0.52080  0.43010  0.50680  Biso   1.000  O
  O29      1.0000 0.85520  0.39580  0.63390  Biso   1.000  O
  O30      1.0000 0.14480  0.89580  0.86610  Biso   1.000  O
  O31      1.0000 0.14480  0.60420  0.36610  Biso   1.000  O
  O32      1.0000 0.85520  0.10420  0.13390  Biso   1.000  O
  N1       1.0000 0.20230  0.38549  0.05540  Biso   1.000  N
  N2       1.0000 0.79770  0.88549  0.44460  Biso   1.000  N
  N3       1.0000 0.79770  0.61451  0.94460  Biso   1.000  N
  N4       1.0000 0.20230  0.11451  0.55540  Biso   1.000  N
  N5       1.0000 0.28800  0.44566  0.87330  Biso   1.000  N
  N6       1.0000 0.71200  0.94566  0.62670  Biso   1.000  N
  N7       1.0000 0.71200  0.55434  0.12670  Biso   1.000  N
  N8       1.0000 0.28800  0.05434  0.37330  Biso   1.000  N
  C1       1.0000 0.17020  0.34940  0.14770  Biso   1.000  C
  C2       1.0000 0.82980  0.84940  0.35230  Biso   1.000  C
  C3       1.0000 0.82980  0.65060  0.85230  Biso   1.000  C
  C4       1.0000 0.17020  0.15060  0.64770  Biso   1.000  C
  C5       1.0000 0.15020  0.37850  0.24960  Biso   1.000  C
  C6       1.0000 0.84980  0.87850  0.25040  Biso   1.000  C
  C7       1.0000 0.84980  0.62150  0.75040  Biso   1.000  C
  C8       1.0000 0.15020  0.12150  0.74960  Biso   1.000  C
  C9       1.0000 0.15770  0.44740  0.25800  Biso   1.000  C
  C10      1.0000 0.84230  0.94740  0.24200  Biso   1.000  C
  C11      1.0000 0.84230  0.55260  0.74200  Biso   1.000  C
  C12      1.0000 0.15770  0.05260  0.75800  Biso   1.000  C
  C13      1.0000 0.18900  0.48580  0.16450  Biso   1.000  C
  C14      1.0000 0.81100  0.98580  0.33550  Biso   1.000  C
  C15      1.0000 0.81100  0.51420  0.83550  Biso   1.000  C
  C16      1.0000 0.18900  0.01420  0.66450  Biso   1.000  C
  C17      1.0000 0.21470  0.45324  0.06420  Biso   1.000  C
  C18      1.0000 0.78530  0.95324  0.43580  Biso   1.000  C
  C19      1.0000 0.78530  0.54676  0.93580  Biso   1.000  C
  C20      1.0000 0.21470  0.04676  0.56420  Biso   1.000  C
  C21      1.0000 0.25960  0.48766  0.95980  Biso   1.000  C
  C22      1.0000 0.74040  0.98766  0.54020  Biso   1.000  C
  C23      1.0000 0.74040  0.51234  0.04020  Biso   1.000  C
  C24      1.0000 0.25960  0.01234  0.45980  Biso   1.000  C
  C25      1.0000 0.27400  0.55750  0.94860  Biso   1.000  C
  C26      1.0000 0.72600  0.05750  0.55140  Biso   1.000  C
  C27      1.0000 0.72600  0.44250  0.05140  Biso   1.000  C
  C28      1.0000 0.27400  0.94250  0.44860  Biso   1.000  C
  C29      1.0000 0.31790  0.58410  0.84570  Biso   1.000  C
  C30      1.0000 0.68210  0.08410  0.65430  Biso   1.000  C
  C31      1.0000 0.68210  0.41590  0.15430  Biso   1.000  C
  C32      1.0000 0.31790  0.91590  0.34570  Biso   1.000  C
  C33      1.0000 0.34160  0.54150  0.75800  Biso   1.000  C
  C34      1.0000 0.65840  0.04150  0.74200  Biso   1.000  C
  C35      1.0000 0.65840  0.45850  0.24200  Biso   1.000  C
  C36      1.0000 0.34160  0.95850  0.25800  Biso   1.000  C
  C37      1.0000 0.32810  0.47230  0.77430  Biso   1.000  C
  C38      1.0000 0.67190  0.97230  0.72570  Biso   1.000  C
  C39      1.0000 0.67190  0.52770  0.22570  Biso   1.000  C
  C40      1.0000 0.32810  0.02770  0.27430  Biso   1.000  C
  C41      1.0000 0.49160  0.27095  0.77390  Biso   1.000  C
  C42      1.0000 0.50840  0.77095  0.72610  Biso   1.000  C
  C43      1.0000 0.50840  0.72905  0.22610  Biso   1.000  C
  C44      1.0000 0.49160  0.22905  0.27390  Biso   1.000  C
  C45      1.0000 0.56010  0.24335  0.88960  Biso   1.000  C
  C46      1.0000 0.43990  0.74335  0.61040  Biso   1.000  C
  C47      1.0000 0.43990  0.75665  0.11040  Biso   1.000  C
  C48      1.0000 0.56010  0.25665  0.38960  Biso   1.000  C
  C49      1.0000 0.77030  0.22471  0.90310  Biso   1.000  C
  C50      1.0000 0.22970  0.72471  0.59690  Biso   1.000  C
  C51      1.0000 0.22970  0.77529  0.09690  Biso   1.000  C
  C52      1.0000 0.77030  0.27529  0.40310  Biso   1.000  C
  C53      1.0000 0.90980  0.28162  0.88850  Biso   1.000  C
  C54      1.0000 0.09020  0.78162  0.61150  Biso   1.000  C
  C55      1.0000 0.09020  0.71838  0.11150  Biso   1.000  C
  C56      1.0000 0.90980  0.21838  0.38850  Biso   1.000  C
  H5       1.0000 0.16700  0.30200  0.13200  Biso   1.000  H
  H6       1.0000 0.83300  0.80200  0.36800  Biso   1.000  H
  H7       1.0000 0.83300  0.69800  0.86800  Biso   1.000  H
  H8       1.0000 0.16700  0.19800  0.63200  Biso   1.000  H
  H9       1.0000 0.13800  0.35050  0.30900  Biso   1.000  H
  H10      1.0000 0.86200  0.85050  0.19100  Biso   1.000  H
  H11      1.0000 0.86200  0.64950  0.69100  Biso   1.000  H
  H12      1.0000 0.13800  0.14950  0.80900  Biso   1.000  H
  H13      1.0000 0.15500  0.46580  0.32400  Biso   1.000  H
  H14      1.0000 0.84500  0.96580  0.17600  Biso   1.000  H
  H15      1.0000 0.84500  0.53420  0.67600  Biso   1.000  H
  H16      1.0000 0.15500  0.03420  0.82400  Biso   1.000  H
  H17      1.0000 0.19400  0.53010  0.17100  Biso   1.000  H
  H18      1.0000 0.80600  0.03010  0.32900  Biso   1.000  H
  H19      1.0000 0.80600  0.46990  0.82900  Biso   1.000  H
  H20      1.0000 0.19400  0.96990  0.67100  Biso   1.000  H
  H21      1.0000 0.26300  0.58640  0.01000  Biso   1.000  H
  H22      1.0000 0.73700  0.08640  0.49000  Biso   1.000  H
  H23      1.0000 0.73700  0.41360  0.99000  Biso   1.000  H
  H24      1.0000 0.26300  0.91360  0.51000  Biso   1.000  H
  H25      1.0000 0.33600  0.63400  0.83900  Biso   1.000  H
  H26      1.0000 0.66400  0.13400  0.66100  Biso   1.000  H
  H27      1.0000 0.66400  0.36600  0.16100  Biso   1.000  H
  H28      1.0000 0.33600  0.86600  0.33900  Biso   1.000  H
  H29      1.0000 0.37100  0.55340  0.68800  Biso   1.000  H
  H30      1.0000 0.62900  0.05340  0.81200  Biso   1.000  H
  H31      1.0000 0.62900  0.44660  0.31200  Biso   1.000  H
  H32      1.0000 0.37100  0.94660  0.18800  Biso   1.000  H
  H33      1.0000 0.33600  0.43960  0.71400  Biso   1.000  H
  H34      1.0000 0.66400  0.93960  0.78600  Biso   1.000  H
  H35      1.0000 0.66400  0.56040  0.28600  Biso   1.000  H
  H36      1.0000 0.33600  0.06040  0.21400  Biso   1.000  H
  H37      1.0000 0.48600  0.20210  0.89400  Biso   1.000  H
  H38      1.0000 0.51400  0.70210  0.60600  Biso   1.000  H
  H39      1.0000 0.51400  0.79790  0.10600  Biso   1.000  H
  H40      1.0000 0.48600  0.29790  0.39400  Biso   1.000  H
  H41      1.0000 0.78600  0.20180  0.98100  Biso   1.000  H
  H42      1.0000 0.21400  0.70180  0.51900  Biso   1.000  H
  H43      1.0000 0.21400  0.79820  0.01900  Biso   1.000  H
  H44      1.0000 0.78600  0.29820  0.48100  Biso   1.000  H
  H45      1.0000 0.78900  0.18840  0.85200  Biso   1.000  H
  H46      1.0000 0.21100  0.68840  0.64800  Biso   1.000  H
  H47      1.0000 0.21100  0.81160  0.14800  Biso   1.000  H
  H48      1.0000 0.78900  0.31160  0.35200  Biso   1.000  H
  H49      1.0000 0.53000  0.27900  0.04200  Biso   1.000  H
  H50      1.0000 0.47000  0.77900  0.45800  Biso   1.000  H
  H51      1.0000 0.47000  0.72100  0.95800  Biso   1.000  H
  H52      1.0000 0.53000  0.22100  0.54200  Biso   1.000  H
  H53      1.0000 0.12100  0.38800  0.54000  Biso   1.000  H
  H54      1.0000 0.87900  0.88800  0.96000  Biso   1.000  H
  H55      1.0000 0.87900  0.61200  0.46000  Biso   1.000  H
  H56      1.0000 0.12100  0.11200  0.04000  Biso   1.000  H
  H57      1.0000 0.18200  0.31430  0.50800  Biso   1.000  H
  H58      1.0000 0.81800  0.81430  0.99200  Biso   1.000  H
  H59      1.0000 0.81800  0.68570  0.49200  Biso   1.000  H
  H60      1.0000 0.18200  0.18570  0.00800  Biso   1.000  H
  H61      1.0000 0.88900  0.42000  0.56900  Biso   1.000  H
  H62      1.0000 0.11100  0.92000  0.93100  Biso   1.000  H
  H63      1.0000 0.11100  0.58000  0.43100  Biso   1.000  H
  H64      1.0000 0.88900  0.08000  0.06900  Biso   1.000  H
  H65      1.0000 0.62600  0.08300  0.04900  Biso   1.000  H
  H66      1.0000 0.37400  0.58300  0.45100  Biso   1.000  H
  H67      1.0000 0.37400  0.91700  0.95100  Biso   1.000  H
  H68      1.0000 0.62600  0.41700  0.54900  Biso   1.000  H
  H69      1.0000 0.39500  0.07000  0.98600  Biso   1.000  H
  H70      1.0000 0.60500  0.57000  0.51400  Biso   1.000  H
  H71      1.0000 0.60500  0.93000  0.01400  Biso   1.000  H
  H72      1.0000 0.39500  0.43000  0.48600  Biso   1.000  H
