data_image0
_cell_length_a       7.0117
_cell_length_b       19.7344
_cell_length_c       11.9375
_cell_angle_alpha    90
_cell_angle_beta     94.636
_cell_angle_gamma    90

_symmetry_space_group_name_H-M    "P 1"
_symmetry_int_tables_number       1

loop_
  _symmetry_equiv_pos_as_xyz
  'x, y, z'

loop_
  _atom_site_label
  _atom_site_occupancy
  _atom_site_fract_x
  _atom_site_fract_y
  _atom_site_fract_z
  _atom_site_thermal_displace_type
  _atom_site_B_iso_or_equiv
  _atom_site_type_symbol
  C1       1.0000 0.82740  0.47157  0.77410  Biso   1.000  C
  C2       1.0000 0.17260  0.97157  0.72590  Biso   1.000  C
  C3       1.0000 0.17260  0.52843  0.22590  Biso   1.000  C
  C4       1.0000 0.82740  0.02843  0.27410  Biso   1.000  C
  H1       1.0000 0.84620  0.44230  0.71490  Biso   1.000  H
  H2       1.0000 0.15380  0.94230  0.78510  Biso   1.000  H
  H3       1.0000 0.15380  0.55770  0.28510  Biso   1.000  H
  H4       1.0000 0.84620  0.05770  0.21490  Biso   1.000  H
  C5       1.0000 0.84070  0.54080  0.75690  Biso   1.000  C
  C6       1.0000 0.15930  0.04080  0.74310  Biso   1.000  C
  C7       1.0000 0.15930  0.45920  0.24310  Biso   1.000  C
  C8       1.0000 0.84070  0.95920  0.25690  Biso   1.000  C
  H5       1.0000 0.86590  0.55790  0.68700  Biso   1.000  H
  H6       1.0000 0.13410  0.05790  0.81300  Biso   1.000  H
  H7       1.0000 0.13410  0.44210  0.31300  Biso   1.000  H
  H8       1.0000 0.86590  0.94210  0.18700  Biso   1.000  H
  C9       1.0000 0.81570  0.58388  0.84580  Biso   1.000  C
  C10      1.0000 0.18430  0.08388  0.65420  Biso   1.000  C
  C11      1.0000 0.18430  0.41612  0.15420  Biso   1.000  C
  C12      1.0000 0.81570  0.91612  0.34580  Biso   1.000  C
  H9       1.0000 0.82610  0.63050  0.83660  Biso   1.000  H
  H10      1.0000 0.17390  0.13050  0.66340  Biso   1.000  H
  H11      1.0000 0.17390  0.36950  0.16340  Biso   1.000  H
  H12      1.0000 0.82610  0.86950  0.33660  Biso   1.000  H
  C13      1.0000 0.77540  0.55756  0.94800  Biso   1.000  C
  C14      1.0000 0.22460  0.05756  0.55200  Biso   1.000  C
  C15      1.0000 0.22460  0.44244  0.05200  Biso   1.000  C
  C16      1.0000 0.77540  0.94244  0.44800  Biso   1.000  C
  H13      1.0000 0.75860  0.58610  0.00850  Biso   1.000  H
  H14      1.0000 0.24140  0.08610  0.49150  Biso   1.000  H
  H15      1.0000 0.24140  0.41390  0.99150  Biso   1.000  H
  H16      1.0000 0.75860  0.91390  0.50850  Biso   1.000  H
  C17      1.0000 0.76020  0.48795  0.95940  Biso   1.000  C
  C18      1.0000 0.23980  0.98795  0.54060  Biso   1.000  C
  C19      1.0000 0.23980  0.51205  0.04060  Biso   1.000  C
  C20      1.0000 0.76020  0.01205  0.45940  Biso   1.000  C
  C21      1.0000 0.71610  0.45369  0.06380  Biso   1.000  C
  C22      1.0000 0.28390  0.95369  0.43620  Biso   1.000  C
  C23      1.0000 0.28390  0.54631  0.93620  Biso   1.000  C
  C24      1.0000 0.71610  0.04631  0.56380  Biso   1.000  C
  C25      1.0000 0.69100  0.48630  0.16450  Biso   1.000  C
  C26      1.0000 0.30900  0.98630  0.33550  Biso   1.000  C
  C27      1.0000 0.30900  0.51370  0.83550  Biso   1.000  C
  C28      1.0000 0.69100  0.01370  0.66450  Biso   1.000  C
  H17      1.0000 0.69470  0.53340  0.16850  Biso   1.000  H
  H18      1.0000 0.30530  0.03340  0.33150  Biso   1.000  H
  H19      1.0000 0.30530  0.46660  0.83150  Biso   1.000  H
  H20      1.0000 0.69470  0.96660  0.66850  Biso   1.000  H
  C29      1.0000 0.66050  0.44850  0.25870  Biso   1.000  C
  C30      1.0000 0.33950  0.94850  0.24130  Biso   1.000  C
  C31      1.0000 0.33950  0.55150  0.74130  Biso   1.000  C
  C32      1.0000 0.66050  0.05150  0.75870  Biso   1.000  C
  H21      1.0000 0.64640  0.46970  0.32710  Biso   1.000  H
  H22      1.0000 0.35360  0.96970  0.17290  Biso   1.000  H
  H23      1.0000 0.35360  0.53030  0.67290  Biso   1.000  H
  H24      1.0000 0.64640  0.03030  0.82710  Biso   1.000  H
  C33      1.0000 0.65130  0.37890  0.25000  Biso   1.000  C
  C34      1.0000 0.34870  0.87890  0.25000  Biso   1.000  C
  C35      1.0000 0.34870  0.62110  0.75000  Biso   1.000  C
  C36      1.0000 0.65130  0.12110  0.75000  Biso   1.000  C
  H25      1.0000 0.63140  0.35250  0.31250  Biso   1.000  H
  H26      1.0000 0.36860  0.85250  0.18750  Biso   1.000  H
  H27      1.0000 0.36860  0.64750  0.68750  Biso   1.000  H
  H28      1.0000 0.63140  0.14750  0.81250  Biso   1.000  H
  C37      1.0000 0.67200  0.34933  0.14770  Biso   1.000  C
  C38      1.0000 0.32800  0.84933  0.35230  Biso   1.000  C
  C39      1.0000 0.32800  0.65067  0.85230  Biso   1.000  C
  C40      1.0000 0.67200  0.15067  0.64770  Biso   1.000  C
  H29      1.0000 0.66370  0.30240  0.14170  Biso   1.000  H
  H30      1.0000 0.33630  0.80240  0.35830  Biso   1.000  H
  H31      1.0000 0.33630  0.69760  0.85830  Biso   1.000  H
  H32      1.0000 0.66370  0.19760  0.64170  Biso   1.000  H
  C41      1.0000 0.41090  0.28108  0.89090  Biso   1.000  C
  C42      1.0000 0.58910  0.78108  0.60910  Biso   1.000  C
  C43      1.0000 0.58910  0.71892  0.10910  Biso   1.000  C
  C44      1.0000 0.41090  0.21892  0.39090  Biso   1.000  C
  C45      1.0000 0.27110  0.22406  0.90460  Biso   1.000  C
  C46      1.0000 0.72890  0.72406  0.59540  Biso   1.000  C
  C47      1.0000 0.72890  0.77594  0.09540  Biso   1.000  C
  C48      1.0000 0.27110  0.27594  0.40460  Biso   1.000  C
  H33      1.0000 0.29830  0.20450  0.97870  Biso   1.000  H
  H34      1.0000 0.70170  0.70450  0.52130  Biso   1.000  H
  H35      1.0000 0.70170  0.79550  0.02130  Biso   1.000  H
  H36      1.0000 0.29830  0.29550  0.47870  Biso   1.000  H
  H37      1.0000 0.29380  0.18910  0.85000  Biso   1.000  H
  H38      1.0000 0.70620  0.68910  0.65000  Biso   1.000  H
  H39      1.0000 0.70620  0.81090  0.15000  Biso   1.000  H
  H40      1.0000 0.29380  0.31090  0.35000  Biso   1.000  H
  C49      1.0000 0.06100  0.24306  0.89090  Biso   1.000  C
  C50      1.0000 0.93900  0.74306  0.60910  Biso   1.000  C
  C51      1.0000 0.93900  0.75694  0.10910  Biso   1.000  C
  C52      1.0000 0.06100  0.25694  0.39090  Biso   1.000  C
  H41      1.0000 0.98790  0.20160  0.90180  Biso   1.000  H
  H42      1.0000 0.01210  0.70160  0.59820  Biso   1.000  H
  H43      1.0000 0.01210  0.79840  0.09820  Biso   1.000  H
  H44      1.0000 0.98790  0.29840  0.40180  Biso   1.000  H
  C53      1.0000 0.99260  0.27112  0.77530  Biso   1.000  C
  C54      1.0000 0.00740  0.77112  0.72470  Biso   1.000  C
  C55      1.0000 0.00740  0.72888  0.22470  Biso   1.000  C
  C56      1.0000 0.99260  0.22888  0.27530  Biso   1.000  C
  N1       1.0000 0.78860  0.44546  0.87320  Biso   1.000  N
  N2       1.0000 0.21140  0.94546  0.62680  Biso   1.000  N
  N3       1.0000 0.21140  0.55454  0.12680  Biso   1.000  N
  N4       1.0000 0.78860  0.05454  0.37320  Biso   1.000  N
  N5       1.0000 0.70350  0.38549  0.05610  Biso   1.000  N
  N6       1.0000 0.29650  0.88549  0.44390  Biso   1.000  N
  N7       1.0000 0.29650  0.61451  0.94390  Biso   1.000  N
  N8       1.0000 0.70350  0.11451  0.55610  Biso   1.000  N
  Cu1      1.0000 0.75525  0.34699  0.90757  Biso   1.000  Cu
  Cu2      1.0000 0.24475  0.84699  0.59243  Biso   1.000  Cu
  Cu3      1.0000 0.24475  0.65301  0.09243  Biso   1.000  Cu
  Cu4      1.0000 0.75525  0.15301  0.40757  Biso   1.000  Cu
  O1       1.0000 0.58690  0.26668  0.92260  Biso   1.000  O
  O2       1.0000 0.41310  0.76668  0.57740  Biso   1.000  O
  O3       1.0000 0.41310  0.73332  0.07740  Biso   1.000  O
  O4       1.0000 0.58690  0.23332  0.42260  Biso   1.000  O
  O5       1.0000 0.35930  0.33686  0.85220  Biso   1.000  O
  O6       1.0000 0.64070  0.83686  0.64780  Biso   1.000  O
  O7       1.0000 0.64070  0.66314  0.14780  Biso   1.000  O
  O8       1.0000 0.35930  0.16314  0.35220  Biso   1.000  O
  O9       1.0000 0.85900  0.31545  0.77028  Biso   1.000  O
  O10      1.0000 0.14100  0.81545  0.72972  Biso   1.000  O
  O11      1.0000 0.14100  0.68455  0.22972  Biso   1.000  O
  O12      1.0000 0.85900  0.18455  0.27028  Biso   1.000  O
  O13      1.0000 0.06100  0.24651  0.69210  Biso   1.000  O
  O14      1.0000 0.93900  0.74651  0.80790  Biso   1.000  O
  O15      1.0000 0.93900  0.75349  0.30790  Biso   1.000  O
  O16      1.0000 0.06100  0.25349  0.19210  Biso   1.000  O
  O17      1.0000 0.01230  0.29005  0.97470  Biso   1.000  O
  O18      1.0000 0.98770  0.79005  0.52530  Biso   1.000  O
  O19      1.0000 0.98770  0.70995  0.02530  Biso   1.000  O
  O20      1.0000 0.01230  0.20995  0.47470  Biso   1.000  O
  H45      1.0000 0.01800  0.27500  0.03100  Biso   1.000  H
  H46      1.0000 0.98200  0.77500  0.46900  Biso   1.000  H
  H47      1.0000 0.98200  0.72500  0.96900  Biso   1.000  H
  H48      1.0000 0.01800  0.22500  0.53100  Biso   1.000  H
  O21      1.0000 0.70000  0.35106  0.54670  Biso   1.000  O
  O22      1.0000 0.30000  0.85106  0.95330  Biso   1.000  O
  O23      1.0000 0.30000  0.64894  0.45330  Biso   1.000  O
  O24      1.0000 0.70000  0.14894  0.04670  Biso   1.000  O
  O25      1.0000 0.02380  0.43015  0.50760  Biso   1.000  O
  O26      1.0000 0.97620  0.93015  0.99240  Biso   1.000  O
  O27      1.0000 0.97620  0.56985  0.49240  Biso   1.000  O
  O28      1.0000 0.02380  0.06985  0.00760  Biso   1.000  O
  O29      1.0000 0.35730  0.39583  0.63560  Biso   1.000  O
  O30      1.0000 0.64270  0.89583  0.86440  Biso   1.000  O
  O31      1.0000 0.64270  0.60417  0.36440  Biso   1.000  O
  O32      1.0000 0.35730  0.10417  0.13560  Biso   1.000  O
