data_image0
_cell_length_a       8.476
_cell_length_b       8.5456
_cell_length_c       14.6031
_cell_angle_alpha    77.664
_cell_angle_beta     82.524
_cell_angle_gamma    89.619

_symmetry_space_group_name_H-M    "P 1"
_symmetry_int_tables_number       1

loop_
  _symmetry_equiv_pos_as_xyz
  'x, y, z'

loop_
  _atom_site_label
  _atom_site_occupancy
  _atom_site_fract_x
  _atom_site_fract_y
  _atom_site_fract_z
  _atom_site_thermal_displace_type
  _atom_site_B_iso_or_equiv
  _atom_site_type_symbol
  Cu1      1.0000 0.86928  0.05299  0.71306  Biso   1.000  Cu
  Cu2      1.0000 0.13072  0.94701  0.28694  Biso   1.000  Cu
  N1       1.0000 0.32350  0.87020  0.72580  Biso   1.000  N
  N2       1.0000 0.67650  0.12980  0.27420  Biso   1.000  N
  N3       1.0000 0.08660  0.97670  0.74150  Biso   1.000  N
  N4       1.0000 0.91340  0.02330  0.25850  Biso   1.000  N
  N5       1.0000 0.44150  0.27740  0.67330  Biso   1.000  N
  N6       1.0000 0.55850  0.72260  0.32670  Biso   1.000  N
  N7       1.0000 0.67010  0.15510  0.67020  Biso   1.000  N
  N8       1.0000 0.32990  0.84490  0.32980  Biso   1.000  N
  N9       1.0000 0.83460  0.38830  0.88200  Biso   1.000  N
  N10      1.0000 0.16540  0.61170  0.11800  Biso   1.000  N
  N11      1.0000 0.88410  0.24000  0.77740  Biso   1.000  N
  N12      1.0000 0.11590  0.76000  0.22260  Biso   1.000  N
  N13      1.0000 0.86910  0.91150  0.62210  Biso   1.000  N
  N14      1.0000 0.13090  0.08850  0.37790  Biso   1.000  N
  N15      1.0000 0.73950  0.88980  0.84420  Biso   1.000  N
  N16      1.0000 0.26050  0.11020  0.15580  Biso   1.000  N
  S1       1.0000 0.91730  0.69920  0.50169  Biso   1.000  S
  S2       1.0000 0.08270  0.30080  0.49831  Biso   1.000  S
  S3       1.0000 0.59200  0.79000  0.03030  Biso   1.000  S
  S4       1.0000 0.40800  0.21000  0.96970  Biso   1.000  S
  C1       1.0000 0.19380  0.91680  0.68470  Biso   1.000  C
  C2       1.0000 0.80620  0.08320  0.31530  Biso   1.000  C
  H1       1.0000 0.18060  0.90810  0.62370  Biso   1.000  H
  H2       1.0000 0.81940  0.09190  0.37630  Biso   1.000  H
  C3       1.0000 0.15370  0.97090  0.82170  Biso   1.000  C
  C4       1.0000 0.84630  0.02910  0.17830  Biso   1.000  C
  H3       1.0000 0.10680  0.00750  0.87420  Biso   1.000  H
  H4       1.0000 0.89320  0.99250  0.12580  Biso   1.000  H
  C5       1.0000 0.29750  0.90440  0.81410  Biso   1.000  C
  C6       1.0000 0.70250  0.09560  0.18590  Biso   1.000  C
  H5       1.0000 0.36610  0.88520  0.85980  Biso   1.000  H
  H6       1.0000 0.63390  0.11480  0.14020  Biso   1.000  H
  C7       1.0000 0.55630  0.20910  0.72320  Biso   1.000  C
  C8       1.0000 0.44370  0.79090  0.27680  Biso   1.000  C
  H7       1.0000 0.55450  0.20150  0.78780  Biso   1.000  H
  H8       1.0000 0.44550  0.79850  0.21220  Biso   1.000  H
  C9       1.0000 0.62780  0.19220  0.58160  Biso   1.000  C
  C10      1.0000 0.37220  0.80780  0.41840  Biso   1.000  C
  H9       1.0000 0.68710  0.16870  0.52810  Biso   1.000  H
  H10      1.0000 0.31290  0.83130  0.47190  Biso   1.000  H
  C11      1.0000 0.48730  0.26790  0.58200  Biso   1.000  C
  C12      1.0000 0.51270  0.73210  0.41800  Biso   1.000  C
  H11      1.0000 0.43310  0.30570  0.53050  Biso   1.000  H
  H12      1.0000 0.56690  0.69430  0.46950  Biso   1.000  H
  C13      1.0000 0.46210  0.79280  0.68620  Biso   1.000  C
  C14      1.0000 0.53790  0.20720  0.31380  Biso   1.000  C
  H13      1.0000 0.55670  0.82930  0.70700  Biso   1.000  H
  H14      1.0000 0.44330  0.17070  0.29300  Biso   1.000  H
  H15      1.0000 0.47370  0.82470  0.61770  Biso   1.000  H
  H16      1.0000 0.52630  0.17530  0.38230  Biso   1.000  H
  C15      1.0000 0.44980  0.60990  0.71520  Biso   1.000  C
  C16      1.0000 0.55020  0.39010  0.28480  Biso   1.000  C
  H17      1.0000 0.54840  0.56590  0.69100  Biso   1.000  H
  H18      1.0000 0.45160  0.43410  0.30900  Biso   1.000  H
  H19      1.0000 0.43790  0.57860  0.78370  Biso   1.000  H
  H20      1.0000 0.56210  0.42140  0.21630  Biso   1.000  H
  C17      1.0000 0.31290  0.53760  0.68030  Biso   1.000  C
  C18      1.0000 0.68710  0.46240  0.31970  Biso   1.000  C
  H21      1.0000 0.21420  0.58250  0.70370  Biso   1.000  H
  H22      1.0000 0.78580  0.41750  0.29630  Biso   1.000  H
  H23      1.0000 0.32550  0.56710  0.61180  Biso   1.000  H
  H24      1.0000 0.67450  0.43290  0.38820  Biso   1.000  H
  C19      1.0000 0.30110  0.35710  0.71090  Biso   1.000  C
  C20      1.0000 0.69890  0.64290  0.28910  Biso   1.000  C
  H25      1.0000 0.28800  0.32750  0.77940  Biso   1.000  H
  H26      1.0000 0.71200  0.67250  0.22060  Biso   1.000  H
  H27      1.0000 0.20730  0.31920  0.68990  Biso   1.000  H
  H28      1.0000 0.79270  0.68080  0.31010  Biso   1.000  H
  C21      1.0000 0.85010  0.24030  0.86730  Biso   1.000  C
  C22      1.0000 0.14990  0.75970  0.13270  Biso   1.000  C
  H29      1.0000 0.83820  0.14820  0.91510  Biso   1.000  H
  H30      1.0000 0.16180  0.85180  0.08490  Biso   1.000  H
  C23      1.0000 0.89300  0.40110  0.73120  Biso   1.000  C
  C24      1.0000 0.10700  0.59890  0.26880  Biso   1.000  C
  H31      1.0000 0.91610  0.43930  0.66630  Biso   1.000  H
  H32      1.0000 0.08390  0.56070  0.33370  Biso   1.000  H
  C25      1.0000 0.86310  0.49130  0.79500  Biso   1.000  C
  C26      1.0000 0.13690  0.50870  0.20500  Biso   1.000  C
  H33      1.0000 0.86170  0.60270  0.78310  Biso   1.000  H
  H34      1.0000 0.13830  0.39730  0.21690  Biso   1.000  H
  C27      1.0000 0.79370  0.43470  0.97420  Biso   1.000  C
  C28      1.0000 0.20630  0.56530  0.02580  Biso   1.000  C
  H35      1.0000 0.71590  0.35850  0.01390  Biso   1.000  H
  H36      1.0000 0.28410  0.64150  0.98610  Biso   1.000  H
  H37      1.0000 0.74550  0.53930  0.96390  Biso   1.000  H
  H38      1.0000 0.25450  0.46070  0.03610  Biso   1.000  H
  C29      1.0000 0.93830  0.44050  0.02510  Biso   1.000  C
  C30      1.0000 0.06170  0.55950  0.97490  Biso   1.000  C
  H39      1.0000 0.90320  0.46380  0.08660  Biso   1.000  H
  H40      1.0000 0.09680  0.53620  0.91340  Biso   1.000  H
  H41      1.0000 0.98530  0.33540  0.03550  Biso   1.000  H
  H42      1.0000 0.01470  0.66460  0.96450  Biso   1.000  H
  C31      1.0000 0.88900  0.82390  0.57120  Biso   1.000  C
  C32      1.0000 0.11100  0.17610  0.42880  Biso   1.000  C
  C33      1.0000 0.68610  0.85210  0.92120  Biso   1.000  C
  C34      1.0000 0.31390  0.14790  0.07880  Biso   1.000  C
  S5       1.0000 0.67500  0.81900  0.02910  Biso   1.000  S
  S6       1.0000 0.32500  0.18100  0.97090  Biso   1.000  S
