data_image0
_cell_length_a       8.8606
_cell_length_b       14.8815
_cell_length_c       14.0615
_cell_angle_alpha    90
_cell_angle_beta     90
_cell_angle_gamma    90

_symmetry_space_group_name_H-M    "P 1"
_symmetry_int_tables_number       1

loop_
  _symmetry_equiv_pos_as_xyz
  'x, y, z'

loop_
  _atom_site_label
  _atom_site_occupancy
  _atom_site_fract_x
  _atom_site_fract_y
  _atom_site_fract_z
  _atom_site_thermal_displace_type
  _atom_site_B_iso_or_equiv
  _atom_site_type_symbol
  Cu1      1.0000 0.00000  0.00000  0.00000  Biso   1.000  Cu
  Cu2      1.0000 0.00000  0.50000  0.50000  Biso   1.000  Cu
  Cu3      1.0000 0.50000  0.50000  0.00000  Biso   1.000  Cu
  Cu4      1.0000 0.50000  0.00000  0.50000  Biso   1.000  Cu
  O1       1.0000 0.00000  0.90510  0.14940  Biso   1.000  O
  O2       1.0000 0.00000  0.59490  0.64940  Biso   1.000  O
  O3       1.0000 0.00000  0.09490  0.85060  Biso   1.000  O
  O4       1.0000 0.00000  0.40510  0.35060  Biso   1.000  O
  O5       1.0000 0.50000  0.40510  0.14940  Biso   1.000  O
  O6       1.0000 0.50000  0.09490  0.64940  Biso   1.000  O
  O7       1.0000 0.50000  0.59490  0.85060  Biso   1.000  O
  O8       1.0000 0.50000  0.90510  0.35060  Biso   1.000  O
  O9       1.0000 0.00000  0.82410  0.27390  Biso   1.000  O
  O10      1.0000 0.00000  0.67590  0.77390  Biso   1.000  O
  O11      1.0000 0.00000  0.17590  0.72610  Biso   1.000  O
  O12      1.0000 0.00000  0.32410  0.22610  Biso   1.000  O
  O13      1.0000 0.50000  0.32410  0.27390  Biso   1.000  O
  O14      1.0000 0.50000  0.17590  0.77390  Biso   1.000  O
  O15      1.0000 0.50000  0.67590  0.72610  Biso   1.000  O
  O16      1.0000 0.50000  0.82410  0.22610  Biso   1.000  O
  O17      1.0000 0.00000  0.96650  0.28800  Biso   1.000  O
  O18      1.0000 0.00000  0.53350  0.78800  Biso   1.000  O
  O19      1.0000 0.00000  0.03350  0.71200  Biso   1.000  O
  O20      1.0000 0.00000  0.46650  0.21200  Biso   1.000  O
  O21      1.0000 0.50000  0.46650  0.28800  Biso   1.000  O
  O22      1.0000 0.50000  0.03350  0.78800  Biso   1.000  O
  O23      1.0000 0.50000  0.53350  0.71200  Biso   1.000  O
  O24      1.0000 0.50000  0.96650  0.21200  Biso   1.000  O
  N1       1.0000 0.16530  0.08310  0.04410  Biso   1.000  N
  N2       1.0000 0.83470  0.41690  0.54410  Biso   1.000  N
  N3       1.0000 0.16530  0.91690  0.95590  Biso   1.000  N
  N4       1.0000 0.83470  0.58310  0.45590  Biso   1.000  N
  N5       1.0000 0.66530  0.58310  0.04410  Biso   1.000  N
  N6       1.0000 0.33470  0.91690  0.54410  Biso   1.000  N
  N7       1.0000 0.66530  0.41690  0.95590  Biso   1.000  N
  N8       1.0000 0.33470  0.08310  0.45590  Biso   1.000  N
  N9       1.0000 0.83470  0.91690  0.95590  Biso   1.000  N
  N10      1.0000 0.16530  0.58310  0.45590  Biso   1.000  N
  N11      1.0000 0.83470  0.08310  0.04410  Biso   1.000  N
  N12      1.0000 0.16530  0.41690  0.54410  Biso   1.000  N
  N13      1.0000 0.33470  0.41690  0.95590  Biso   1.000  N
  N14      1.0000 0.66530  0.08310  0.45590  Biso   1.000  N
  N15      1.0000 0.33470  0.58310  0.04410  Biso   1.000  N
  N16      1.0000 0.66530  0.91690  0.54410  Biso   1.000  N
  N17      1.0000 0.36490  0.16970  0.03740  Biso   1.000  N
  N18      1.0000 0.63510  0.33030  0.53740  Biso   1.000  N
  N19      1.0000 0.36490  0.83030  0.96260  Biso   1.000  N
  N20      1.0000 0.63510  0.66970  0.46260  Biso   1.000  N
  N21      1.0000 0.86490  0.66970  0.03740  Biso   1.000  N
  N22      1.0000 0.13510  0.83030  0.53740  Biso   1.000  N
  N23      1.0000 0.86490  0.33030  0.96260  Biso   1.000  N
  N24      1.0000 0.13510  0.16970  0.46260  Biso   1.000  N
  N25      1.0000 0.63510  0.83030  0.96260  Biso   1.000  N
  N26      1.0000 0.36490  0.66970  0.46260  Biso   1.000  N
  N27      1.0000 0.63510  0.16970  0.03740  Biso   1.000  N
  N28      1.0000 0.36490  0.33030  0.53740  Biso   1.000  N
  N29      1.0000 0.13510  0.33030  0.96260  Biso   1.000  N
  N30      1.0000 0.86490  0.16970  0.46260  Biso   1.000  N
  N31      1.0000 0.13510  0.66970  0.03740  Biso   1.000  N
  N32      1.0000 0.86490  0.83030  0.53740  Biso   1.000  N
  N33      1.0000 0.00000  0.89990  0.23630  Biso   1.000  N
  N34      1.0000 0.00000  0.60010  0.73630  Biso   1.000  N
  N35      1.0000 0.00000  0.10010  0.76370  Biso   1.000  N
  N36      1.0000 0.00000  0.39990  0.26370  Biso   1.000  N
  N37      1.0000 0.50000  0.39990  0.23630  Biso   1.000  N
  N38      1.0000 0.50000  0.10010  0.73630  Biso   1.000  N
  N39      1.0000 0.50000  0.60010  0.76370  Biso   1.000  N
  N40      1.0000 0.50000  0.89990  0.26370  Biso   1.000  N
  C1       1.0000 0.27580  0.11230  0.98900  Biso   1.000  C
  C2       1.0000 0.72420  0.38770  0.48900  Biso   1.000  C
  C3       1.0000 0.27580  0.88770  0.01100  Biso   1.000  C
  C4       1.0000 0.72420  0.61230  0.51100  Biso   1.000  C
  C5       1.0000 0.77580  0.61230  0.98900  Biso   1.000  C
  C6       1.0000 0.22420  0.88770  0.48900  Biso   1.000  C
  C7       1.0000 0.77580  0.38770  0.01100  Biso   1.000  C
  C8       1.0000 0.22420  0.11230  0.51100  Biso   1.000  C
  C9       1.0000 0.72420  0.88770  0.01100  Biso   1.000  C
  C10      1.0000 0.27580  0.61230  0.51100  Biso   1.000  C
  C11      1.0000 0.72420  0.11230  0.98900  Biso   1.000  C
  C12      1.0000 0.27580  0.38770  0.48900  Biso   1.000  C
  C13      1.0000 0.22420  0.38770  0.01100  Biso   1.000  C
  C14      1.0000 0.77580  0.11230  0.51100  Biso   1.000  C
  C15      1.0000 0.22420  0.61230  0.98900  Biso   1.000  C
  C16      1.0000 0.77580  0.88770  0.48900  Biso   1.000  C
  H1       1.0000 0.29000  0.09560  0.92590  Biso   1.000  H
  H2       1.0000 0.71000  0.40440  0.42590  Biso   1.000  H
  H3       1.0000 0.29000  0.90440  0.07410  Biso   1.000  H
  H4       1.0000 0.71000  0.59560  0.57410  Biso   1.000  H
  H5       1.0000 0.79000  0.59560  0.92590  Biso   1.000  H
  H6       1.0000 0.21000  0.90440  0.42590  Biso   1.000  H
  H7       1.0000 0.79000  0.40440  0.07410  Biso   1.000  H
  H8       1.0000 0.21000  0.09560  0.57410  Biso   1.000  H
  H9       1.0000 0.71000  0.90440  0.07410  Biso   1.000  H
  H10      1.0000 0.29000  0.59560  0.57410  Biso   1.000  H
  H11      1.0000 0.71000  0.09560  0.92590  Biso   1.000  H
  H12      1.0000 0.29000  0.40440  0.42590  Biso   1.000  H
  H13      1.0000 0.21000  0.40440  0.07410  Biso   1.000  H
  H14      1.0000 0.79000  0.09560  0.57410  Biso   1.000  H
  H15      1.0000 0.21000  0.59560  0.92590  Biso   1.000  H
  H16      1.0000 0.79000  0.90440  0.42590  Biso   1.000  H
  C17      1.0000 0.30890  0.17630  0.12830  Biso   1.000  C
  C18      1.0000 0.69110  0.32370  0.62830  Biso   1.000  C
  C19      1.0000 0.30890  0.82370  0.87170  Biso   1.000  C
  C20      1.0000 0.69110  0.67630  0.37170  Biso   1.000  C
  C21      1.0000 0.80890  0.67630  0.12830  Biso   1.000  C
  C22      1.0000 0.19110  0.82370  0.62830  Biso   1.000  C
  C23      1.0000 0.80890  0.32370  0.87170  Biso   1.000  C
  C24      1.0000 0.19110  0.17630  0.37170  Biso   1.000  C
  C25      1.0000 0.69110  0.82370  0.87170  Biso   1.000  C
  C26      1.0000 0.30890  0.67630  0.37170  Biso   1.000  C
  C27      1.0000 0.69110  0.17630  0.12830  Biso   1.000  C
  C28      1.0000 0.30890  0.32370  0.62830  Biso   1.000  C
  C29      1.0000 0.19110  0.32370  0.87170  Biso   1.000  C
  C30      1.0000 0.80890  0.17630  0.37170  Biso   1.000  C
  C31      1.0000 0.19110  0.67630  0.12830  Biso   1.000  C
  C32      1.0000 0.80890  0.82370  0.62830  Biso   1.000  C
  H17      1.0000 0.34680  0.21130  0.17760  Biso   1.000  H
  H18      1.0000 0.65320  0.28870  0.67760  Biso   1.000  H
  H19      1.0000 0.34680  0.78870  0.82240  Biso   1.000  H
  H20      1.0000 0.65320  0.71130  0.32240  Biso   1.000  H
  H21      1.0000 0.84680  0.71130  0.17760  Biso   1.000  H
  H22      1.0000 0.15320  0.78870  0.67760  Biso   1.000  H
  H23      1.0000 0.84680  0.28870  0.82240  Biso   1.000  H
  H24      1.0000 0.15320  0.21130  0.32240  Biso   1.000  H
  H25      1.0000 0.65320  0.78870  0.82240  Biso   1.000  H
  H26      1.0000 0.34680  0.71130  0.32240  Biso   1.000  H
  H27      1.0000 0.65320  0.21130  0.17760  Biso   1.000  H
  H28      1.0000 0.34680  0.28870  0.67760  Biso   1.000  H
  H29      1.0000 0.15320  0.28870  0.82240  Biso   1.000  H
  H30      1.0000 0.84680  0.21130  0.32240  Biso   1.000  H
  H31      1.0000 0.15320  0.71130  0.17760  Biso   1.000  H
  H32      1.0000 0.84680  0.78870  0.67760  Biso   1.000  H
  C33      1.0000 0.18730  0.12150  0.13110  Biso   1.000  C
  C34      1.0000 0.81270  0.37850  0.63110  Biso   1.000  C
  C35      1.0000 0.18730  0.87850  0.86890  Biso   1.000  C
  C36      1.0000 0.81270  0.62150  0.36890  Biso   1.000  C
  C37      1.0000 0.68730  0.62150  0.13110  Biso   1.000  C
  C38      1.0000 0.31270  0.87850  0.63110  Biso   1.000  C
  C39      1.0000 0.68730  0.37850  0.86890  Biso   1.000  C
  C40      1.0000 0.31270  0.12150  0.36890  Biso   1.000  C
  C41      1.0000 0.81270  0.87850  0.86890  Biso   1.000  C
  C42      1.0000 0.18730  0.62150  0.36890  Biso   1.000  C
  C43      1.0000 0.81270  0.12150  0.13110  Biso   1.000  C
  C44      1.0000 0.18730  0.37850  0.63110  Biso   1.000  C
  C45      1.0000 0.31270  0.37850  0.86890  Biso   1.000  C
  C46      1.0000 0.68730  0.12150  0.36890  Biso   1.000  C
  C47      1.0000 0.31270  0.62150  0.13110  Biso   1.000  C
  C48      1.0000 0.68730  0.87850  0.63110  Biso   1.000  C
  H33      1.0000 0.12750  0.11140  0.18440  Biso   1.000  H
  H34      1.0000 0.87250  0.38860  0.68440  Biso   1.000  H
  H35      1.0000 0.12750  0.88860  0.81560  Biso   1.000  H
  H36      1.0000 0.87250  0.61140  0.31560  Biso   1.000  H
  H37      1.0000 0.62750  0.61140  0.18440  Biso   1.000  H
  H38      1.0000 0.37250  0.88860  0.68440  Biso   1.000  H
  H39      1.0000 0.62750  0.38860  0.81560  Biso   1.000  H
  H40      1.0000 0.37250  0.11140  0.31560  Biso   1.000  H
  H41      1.0000 0.87250  0.88860  0.81560  Biso   1.000  H
  H42      1.0000 0.12750  0.61140  0.31560  Biso   1.000  H
  H43      1.0000 0.87250  0.11140  0.18440  Biso   1.000  H
  H44      1.0000 0.12750  0.38860  0.68440  Biso   1.000  H
  H45      1.0000 0.37250  0.38860  0.81560  Biso   1.000  H
  H46      1.0000 0.62750  0.11140  0.31560  Biso   1.000  H
  H47      1.0000 0.37250  0.61140  0.18440  Biso   1.000  H
  H48      1.0000 0.62750  0.88860  0.68440  Biso   1.000  H
  C49      1.0000 0.50000  0.21340  0.00190  Biso   1.000  C
  C50      1.0000 0.50000  0.28660  0.50190  Biso   1.000  C
  C51      1.0000 0.50000  0.78660  0.99810  Biso   1.000  C
  C52      1.0000 0.50000  0.71340  0.49810  Biso   1.000  C
  C53      1.0000 0.00000  0.71340  0.00190  Biso   1.000  C
  C54      1.0000 0.00000  0.78660  0.50190  Biso   1.000  C
  C55      1.0000 0.00000  0.28660  0.99810  Biso   1.000  C
  C56      1.0000 0.00000  0.21340  0.49810  Biso   1.000  C
  H49      1.0000 0.50000  0.27590  0.02150  Biso   1.000  H
  H50      1.0000 0.50000  0.22410  0.52150  Biso   1.000  H
  H51      1.0000 0.50000  0.72410  0.97850  Biso   1.000  H
  H52      1.0000 0.50000  0.77590  0.47850  Biso   1.000  H
  H53      1.0000 0.00000  0.77590  0.02150  Biso   1.000  H
  H54      1.0000 0.00000  0.72410  0.52150  Biso   1.000  H
  H55      1.0000 0.00000  0.22410  0.97850  Biso   1.000  H
  H56      1.0000 0.00000  0.27590  0.47850  Biso   1.000  H
  H57      1.0000 0.50000  0.21170  0.93300  Biso   1.000  H
  H58      1.0000 0.50000  0.28830  0.43300  Biso   1.000  H
  H59      1.0000 0.50000  0.78830  0.06700  Biso   1.000  H
  H60      1.0000 0.50000  0.71170  0.56700  Biso   1.000  H
  H61      1.0000 0.00000  0.71170  0.93300  Biso   1.000  H
  H62      1.0000 0.00000  0.78830  0.43300  Biso   1.000  H
  H63      1.0000 0.00000  0.28830  0.06700  Biso   1.000  H
  H64      1.0000 0.00000  0.21170  0.56700  Biso   1.000  H
