data_image0
_cell_length_a       12.9206
_cell_length_b       11.4901
_cell_length_c       15.5799
_cell_angle_alpha    90
_cell_angle_beta     101.827
_cell_angle_gamma    90

_symmetry_space_group_name_H-M    "P 1"
_symmetry_int_tables_number       1

loop_
  _symmetry_equiv_pos_as_xyz
  'x, y, z'

loop_
  _atom_site_label
  _atom_site_occupancy
  _atom_site_fract_x
  _atom_site_fract_y
  _atom_site_fract_z
  _atom_site_thermal_displace_type
  _atom_site_B_iso_or_equiv
  _atom_site_type_symbol
  Cu1      1.0000 0.74270  0.77170  0.01845  Biso   1.000  Cu
  Cu2      1.0000 0.25730  0.27170  0.48155  Biso   1.000  Cu
  Cu3      1.0000 0.25730  0.22830  0.98155  Biso   1.000  Cu
  Cu4      1.0000 0.74270  0.72830  0.51845  Biso   1.000  Cu
  Cl1      1.0000 0.91070  0.61890  0.09190  Biso   1.000  Cl
  Cl2      1.0000 0.08930  0.11890  0.40810  Biso   1.000  Cl
  Cl3      1.0000 0.08930  0.38110  0.90810  Biso   1.000  Cl
  Cl4      1.0000 0.91070  0.88110  0.59190  Biso   1.000  Cl
  N1       1.0000 0.56710  0.54520  0.83860  Biso   1.000  N
  N2       1.0000 0.43290  0.04520  0.66140  Biso   1.000  N
  N3       1.0000 0.43290  0.45480  0.16140  Biso   1.000  N
  N4       1.0000 0.56710  0.95480  0.33860  Biso   1.000  N
  N5       1.0000 0.67890  0.64990  0.93160  Biso   1.000  N
  N6       1.0000 0.32110  0.14990  0.56840  Biso   1.000  N
  N7       1.0000 0.32110  0.35010  0.06840  Biso   1.000  N
  N8       1.0000 0.67890  0.85010  0.43160  Biso   1.000  N
  N9       1.0000 0.43440  0.39640  0.82580  Biso   1.000  N
  N10      1.0000 0.56560  0.89640  0.67420  Biso   1.000  N
  N11      1.0000 0.56560  0.60360  0.17420  Biso   1.000  N
  N12      1.0000 0.43440  0.10360  0.32580  Biso   1.000  N
  N13      1.0000 0.34900  0.28260  0.89970  Biso   1.000  N
  N14      1.0000 0.65100  0.78260  0.60030  Biso   1.000  N
  N15      1.0000 0.65100  0.71740  0.10030  Biso   1.000  N
  N16      1.0000 0.34900  0.21740  0.39970  Biso   1.000  N
  N17      1.0000 0.94630  0.85490  0.85400  Biso   1.000  N
  N18      1.0000 0.05370  0.35490  0.64600  Biso   1.000  N
  N19      1.0000 0.05370  0.14510  0.14600  Biso   1.000  N
  N20      1.0000 0.94630  0.64510  0.35400  Biso   1.000  N
  N21      1.0000 0.82390  0.83030  0.93060  Biso   1.000  N
  N22      1.0000 0.17610  0.33030  0.56940  Biso   1.000  N
  N23      1.0000 0.17610  0.16970  0.06940  Biso   1.000  N
  N24      1.0000 0.82390  0.66970  0.43060  Biso   1.000  N
  N25      1.0000 0.10050  0.95920  0.83460  Biso   1.000  N
  N26      1.0000 0.89950  0.45920  0.66540  Biso   1.000  N
  N27      1.0000 0.89950  0.04080  0.16540  Biso   1.000  N
  N28      1.0000 0.10050  0.54080  0.33460  Biso   1.000  N
  N29      1.0000 0.18710  0.11200  0.89480  Biso   1.000  N
  N30      1.0000 0.81290  0.61200  0.60520  Biso   1.000  N
  N31      1.0000 0.81290  0.88800  0.10520  Biso   1.000  N
  N32      1.0000 0.18710  0.38800  0.39480  Biso   1.000  N
  O1       1.0000 0.58980  0.93550  0.95190  Biso   1.000  O
  O2       1.0000 0.41020  0.43550  0.54810  Biso   1.000  O
  O3       1.0000 0.41020  0.06450  0.04810  Biso   1.000  O
  O4       1.0000 0.58980  0.56450  0.45190  Biso   1.000  O
  H1       1.0000 0.53350  0.90250  0.93260  Biso   1.000  H
  H2       1.0000 0.46650  0.40250  0.56740  Biso   1.000  H
  H3       1.0000 0.46650  0.09750  0.06740  Biso   1.000  H
  H4       1.0000 0.53350  0.59750  0.43260  Biso   1.000  H
  O5       1.0000 0.39000  0.87690  0.88010  Biso   1.000  O
  O6       1.0000 0.61000  0.37690  0.61990  Biso   1.000  O
  O7       1.0000 0.61000  0.12310  0.11990  Biso   1.000  O
  O8       1.0000 0.39000  0.62310  0.38010  Biso   1.000  O
  H5       1.0000 0.35700  0.84420  0.83350  Biso   1.000  H
  H6       1.0000 0.64300  0.34420  0.66650  Biso   1.000  H
  H7       1.0000 0.64300  0.15580  0.16650  Biso   1.000  H
  H8       1.0000 0.35700  0.65580  0.33350  Biso   1.000  H
  H9       1.0000 0.38960  0.83050  0.92250  Biso   1.000  H
  H10      1.0000 0.61040  0.33050  0.57750  Biso   1.000  H
  H11      1.0000 0.61040  0.16950  0.07750  Biso   1.000  H
  H12      1.0000 0.38960  0.66950  0.42250  Biso   1.000  H
  O9       1.0000 0.28130  0.71580  0.77250  Biso   1.000  O
  O10      1.0000 0.71870  0.21580  0.72750  Biso   1.000  O
  O11      1.0000 0.71870  0.28420  0.22750  Biso   1.000  O
  O12      1.0000 0.28130  0.78420  0.27250  Biso   1.000  O
  H13      1.0000 0.22080  0.72580  0.73960  Biso   1.000  H
  H14      1.0000 0.77920  0.22580  0.76040  Biso   1.000  H
  H15      1.0000 0.77920  0.27420  0.26040  Biso   1.000  H
  H16      1.0000 0.22080  0.77420  0.23960  Biso   1.000  H
  H17      1.0000 0.27360  0.70300  0.82460  Biso   1.000  H
  H18      1.0000 0.72640  0.20300  0.67540  Biso   1.000  H
  H19      1.0000 0.72640  0.29700  0.17540  Biso   1.000  H
  H20      1.0000 0.27360  0.79700  0.32460  Biso   1.000  H
  O13      1.0000 0.11700  0.75600  0.61200  Biso   1.000  O
  O14      1.0000 0.88300  0.25600  0.88800  Biso   1.000  O
  O15      1.0000 0.88300  0.24400  0.38800  Biso   1.000  O
  O16      1.0000 0.11700  0.74400  0.11200  Biso   1.000  O
  H21      1.0000 0.14650  0.81570  0.59580  Biso   1.000  H
  H22      1.0000 0.85350  0.31570  0.90420  Biso   1.000  H
  H23      1.0000 0.85350  0.18430  0.40420  Biso   1.000  H
  H24      1.0000 0.14650  0.68430  0.09580  Biso   1.000  H
  H25      1.0000 0.08450  0.72170  0.56590  Biso   1.000  H
  H26      1.0000 0.91550  0.22170  0.93410  Biso   1.000  H
  H27      1.0000 0.91550  0.27830  0.43410  Biso   1.000  H
  H28      1.0000 0.08450  0.77830  0.06590  Biso   1.000  H
  O17      1.0000 0.85700  0.12200  0.55300  Biso   1.000  O
  O18      1.0000 0.14300  0.62200  0.94700  Biso   1.000  O
  O19      1.0000 0.14300  0.87800  0.44700  Biso   1.000  O
  O20      1.0000 0.85700  0.37800  0.05300  Biso   1.000  O
  H29      1.0000 0.81290  0.15090  0.51020  Biso   1.000  H
  H30      1.0000 0.18710  0.65090  0.98980  Biso   1.000  H
  H31      1.0000 0.18710  0.84910  0.48980  Biso   1.000  H
  H32      1.0000 0.81290  0.34910  0.01020  Biso   1.000  H
  H33      1.0000 0.85600  0.04820  0.54810  Biso   1.000  H
  H34      1.0000 0.14400  0.54820  0.95190  Biso   1.000  H
  H35      1.0000 0.14400  0.95180  0.45190  Biso   1.000  H
  H36      1.0000 0.85600  0.45180  0.04810  Biso   1.000  H
  O21      1.0000 0.72300  0.31500  0.42500  Biso   1.000  O
  O22      1.0000 0.27700  0.81500  0.07500  Biso   1.000  O
  O23      1.0000 0.27700  0.68500  0.57500  Biso   1.000  O
  O24      1.0000 0.72300  0.18500  0.92500  Biso   1.000  O
  H37      1.0000 0.70030  0.31610  0.36980  Biso   1.000  H
  H38      1.0000 0.29970  0.81610  0.13020  Biso   1.000  H
  H39      1.0000 0.29970  0.68390  0.63020  Biso   1.000  H
  H40      1.0000 0.70030  0.18390  0.86980  Biso   1.000  H
  H41      1.0000 0.78530  0.28770  0.43480  Biso   1.000  H
  H42      1.0000 0.21470  0.78770  0.06520  Biso   1.000  H
  H43      1.0000 0.21470  0.71230  0.56520  Biso   1.000  H
  H44      1.0000 0.78530  0.21230  0.93480  Biso   1.000  H
  O25      1.0000 0.65400  0.16000  0.52200  Biso   1.000  O
  O26      1.0000 0.34600  0.66000  0.97800  Biso   1.000  O
  O27      1.0000 0.34600  0.84000  0.47800  Biso   1.000  O
  O28      1.0000 0.65400  0.34000  0.02200  Biso   1.000  O
  H45      1.0000 0.71560  0.13230  0.53990  Biso   1.000  H
  H46      1.0000 0.28440  0.63230  0.96010  Biso   1.000  H
  H47      1.0000 0.28440  0.86770  0.46010  Biso   1.000  H
  H48      1.0000 0.71560  0.36770  0.03990  Biso   1.000  H
  H49      1.0000 0.65850  0.21550  0.48700  Biso   1.000  H
  H50      1.0000 0.34150  0.71550  0.01300  Biso   1.000  H
  H51      1.0000 0.34150  0.78450  0.51300  Biso   1.000  H
  H52      1.0000 0.65850  0.28450  0.98700  Biso   1.000  H
  C1       1.0000 0.57760  0.63100  0.89820  Biso   1.000  C
  C2       1.0000 0.42240  0.13100  0.60180  Biso   1.000  C
  C3       1.0000 0.42240  0.36900  0.10180  Biso   1.000  C
  C4       1.0000 0.57760  0.86900  0.39820  Biso   1.000  C
  H53      1.0000 0.52180  0.67140  0.91370  Biso   1.000  H
  H54      1.0000 0.47820  0.17140  0.58630  Biso   1.000  H
  H55      1.0000 0.47820  0.32860  0.08630  Biso   1.000  H
  H56      1.0000 0.52180  0.82860  0.41370  Biso   1.000  H
  C5       1.0000 0.73390  0.57350  0.89050  Biso   1.000  C
  C6       1.0000 0.26610  0.07350  0.60950  Biso   1.000  C
  C7       1.0000 0.26610  0.42650  0.10950  Biso   1.000  C
  C8       1.0000 0.73390  0.92650  0.39050  Biso   1.000  C
  H57      1.0000 0.80720  0.56850  0.90020  Biso   1.000  H
  H58      1.0000 0.19280  0.06850  0.59980  Biso   1.000  H
  H59      1.0000 0.19280  0.43150  0.09980  Biso   1.000  H
  H60      1.0000 0.80720  0.93150  0.40020  Biso   1.000  H
  C9       1.0000 0.66710  0.50740  0.83450  Biso   1.000  C
  C10      1.0000 0.33290  0.00740  0.66550  Biso   1.000  C
  C11      1.0000 0.33290  0.49260  0.16550  Biso   1.000  C
  C12      1.0000 0.66710  0.99260  0.33450  Biso   1.000  C
  H61      1.0000 0.68440  0.44770  0.79970  Biso   1.000  H
  H62      1.0000 0.31560  0.94770  0.70030  Biso   1.000  H
  H63      1.0000 0.31560  0.55230  0.20030  Biso   1.000  H
  H64      1.0000 0.68440  0.05230  0.29970  Biso   1.000  H
  C13      1.0000 0.36380  0.39150  0.87740  Biso   1.000  C
  C14      1.0000 0.63620  0.89150  0.62260  Biso   1.000  C
  C15      1.0000 0.63620  0.60850  0.12260  Biso   1.000  C
  C16      1.0000 0.36380  0.10850  0.37740  Biso   1.000  C
  H65      1.0000 0.32970  0.45570  0.89510  Biso   1.000  H
  H66      1.0000 0.67030  0.95570  0.60490  Biso   1.000  H
  H67      1.0000 0.67030  0.54430  0.10490  Biso   1.000  H
  H68      1.0000 0.32970  0.04430  0.39510  Biso   1.000  H
  C17      1.0000 0.41340  0.21580  0.86080  Biso   1.000  C
  C18      1.0000 0.58660  0.71580  0.63920  Biso   1.000  C
  C19      1.0000 0.58660  0.78420  0.13920  Biso   1.000  C
  C20      1.0000 0.41340  0.28420  0.36080  Biso   1.000  C
  H69      1.0000 0.42000  0.13530  0.86530  Biso   1.000  H
  H70      1.0000 0.58000  0.63530  0.63470  Biso   1.000  H
  H71      1.0000 0.58000  0.86470  0.13470  Biso   1.000  H
  H72      1.0000 0.42000  0.36470  0.36530  Biso   1.000  H
  C21      1.0000 0.46650  0.28570  0.81440  Biso   1.000  C
  C22      1.0000 0.53350  0.78570  0.68560  Biso   1.000  C
  C23      1.0000 0.53350  0.71430  0.18560  Biso   1.000  C
  C24      1.0000 0.46650  0.21430  0.31440  Biso   1.000  C
  H73      1.0000 0.51520  0.26250  0.78140  Biso   1.000  H
  H74      1.0000 0.48480  0.76250  0.71860  Biso   1.000  H
  H75      1.0000 0.48480  0.73750  0.21860  Biso   1.000  H
  H76      1.0000 0.51520  0.23750  0.28140  Biso   1.000  H
  C25      1.0000 0.46860  0.49940  0.78860  Biso   1.000  C
  C26      1.0000 0.53140  0.99940  0.71140  Biso   1.000  C
  C27      1.0000 0.53140  0.50060  0.21140  Biso   1.000  C
  C28      1.0000 0.46860  0.00060  0.28860  Biso   1.000  C
  H77      1.0000 0.41420  0.55850  0.78470  Biso   1.000  H
  H78      1.0000 0.58580  0.05850  0.71530  Biso   1.000  H
  H79      1.0000 0.58580  0.44150  0.21530  Biso   1.000  H
  H80      1.0000 0.41420  0.94150  0.28470  Biso   1.000  H
  H81      1.0000 0.47720  0.48250  0.72950  Biso   1.000  H
  H82      1.0000 0.52280  0.98250  0.77050  Biso   1.000  H
  H83      1.0000 0.52280  0.51750  0.27050  Biso   1.000  H
  H84      1.0000 0.47720  0.01750  0.22950  Biso   1.000  H
  C29      1.0000 0.92090  0.80700  0.92510  Biso   1.000  C
  C30      1.0000 0.07910  0.30700  0.57490  Biso   1.000  C
  C31      1.0000 0.07910  0.19300  0.07490  Biso   1.000  C
  C32      1.0000 0.92090  0.69300  0.42510  Biso   1.000  C
  H85      1.0000 0.96700  0.76230  0.96570  Biso   1.000  H
  H86      1.0000 0.03300  0.26230  0.53430  Biso   1.000  H
  H87      1.0000 0.03300  0.23770  0.03430  Biso   1.000  H
  H88      1.0000 0.96700  0.73770  0.46570  Biso   1.000  H
  C33      1.0000 0.78570  0.89400  0.85860  Biso   1.000  C
  C34      1.0000 0.21430  0.39400  0.64140  Biso   1.000  C
  C35      1.0000 0.21430  0.10600  0.14140  Biso   1.000  C
  C36      1.0000 0.78570  0.60600  0.35860  Biso   1.000  C
  H89      1.0000 0.71670  0.92210  0.84350  Biso   1.000  H
  H90      1.0000 0.28330  0.42210  0.65650  Biso   1.000  H
  H91      1.0000 0.28330  0.07790  0.15650  Biso   1.000  H
  H92      1.0000 0.71670  0.57790  0.34350  Biso   1.000  H
  C37      1.0000 0.86090  0.91300  0.81100  Biso   1.000  C
  C38      1.0000 0.13910  0.41300  0.68900  Biso   1.000  C
  C39      1.0000 0.13910  0.08700  0.18900  Biso   1.000  C
  C40      1.0000 0.86090  0.58700  0.31100  Biso   1.000  C
  H93      1.0000 0.85480  0.95620  0.75980  Biso   1.000  H
  H94      1.0000 0.14520  0.45620  0.74020  Biso   1.000  H
  H95      1.0000 0.14520  0.04380  0.24020  Biso   1.000  H
  H96      1.0000 0.85480  0.54380  0.25980  Biso   1.000  H
  C41      1.0000 0.15330  0.00900  0.91010  Biso   1.000  C
  C42      1.0000 0.84670  0.50900  0.58990  Biso   1.000  C
  C43      1.0000 0.84670  0.99100  0.08990  Biso   1.000  C
  C44      1.0000 0.15330  0.49100  0.41010  Biso   1.000  C
  H97      1.0000 0.16380  0.97440  0.96510  Biso   1.000  H
  H98      1.0000 0.83620  0.47440  0.53490  Biso   1.000  H
  H99      1.0000 0.83620  0.02560  0.03490  Biso   1.000  H
  H100     1.0000 0.16380  0.52560  0.46510  Biso   1.000  H
  C45      1.0000 0.15530  0.12900  0.80640  Biso   1.000  C
  C46      1.0000 0.84470  0.62900  0.69360  Biso   1.000  C
  C47      1.0000 0.84470  0.87100  0.19360  Biso   1.000  C
  C48      1.0000 0.15530  0.37100  0.30640  Biso   1.000  C
  H101     1.0000 0.16920  0.19510  0.77650  Biso   1.000  H
  H102     1.0000 0.83080  0.69510  0.72350  Biso   1.000  H
  H103     1.0000 0.83080  0.80490  0.22350  Biso   1.000  H
  H104     1.0000 0.16920  0.30490  0.27650  Biso   1.000  H
  C49      1.0000 0.10160  0.03600  0.76900  Biso   1.000  C
  C50      1.0000 0.89840  0.53600  0.73100  Biso   1.000  C
  C51      1.0000 0.89840  0.96400  0.23100  Biso   1.000  C
  C52      1.0000 0.10160  0.46400  0.26900  Biso   1.000  C
  H105     1.0000 0.07110  0.02710  0.71000  Biso   1.000  H
  H106     1.0000 0.92890  0.52710  0.79000  Biso   1.000  H
  H107     1.0000 0.92890  0.97290  0.29000  Biso   1.000  H
  H108     1.0000 0.07110  0.47290  0.21000  Biso   1.000  H
  C53      1.0000 0.04840  0.84750  0.82900  Biso   1.000  C
  C54      1.0000 0.95160  0.34750  0.67100  Biso   1.000  C
  C55      1.0000 0.95160  0.15250  0.17100  Biso   1.000  C
  C56      1.0000 0.04840  0.65250  0.32900  Biso   1.000  C
  H109     1.0000 0.09280  0.79270  0.86710  Biso   1.000  H
  H110     1.0000 0.90720  0.29270  0.63290  Biso   1.000  H
  H111     1.0000 0.90720  0.20730  0.13290  Biso   1.000  H
  H112     1.0000 0.09280  0.70730  0.36710  Biso   1.000  H
  H113     1.0000 0.03860  0.81860  0.76940  Biso   1.000  H
  H114     1.0000 0.96140  0.31860  0.73060  Biso   1.000  H
  H115     1.0000 0.96140  0.18140  0.23060  Biso   1.000  H
  H116     1.0000 0.03860  0.68140  0.26940  Biso   1.000  H
