data_image0
_cell_length_a       8.905
_cell_length_b       11.137
_cell_length_c       17.484
_cell_angle_alpha    82.342
_cell_angle_beta     81.312
_cell_angle_gamma    82.361

_symmetry_space_group_name_H-M    "P 1"
_symmetry_int_tables_number       1

loop_
  _symmetry_equiv_pos_as_xyz
  'x, y, z'

loop_
  _atom_site_label
  _atom_site_occupancy
  _atom_site_fract_x
  _atom_site_fract_y
  _atom_site_fract_z
  _atom_site_thermal_displace_type
  _atom_site_B_iso_or_equiv
  _atom_site_type_symbol
  Cu1      1.0000 0.24338  0.30514  0.76741  Biso   1.000  Cu
  Cu2      1.0000 0.75662  0.69486  0.23259  Biso   1.000  Cu
  Cu3      1.0000 0.78803  0.71283  0.77021  Biso   1.000  Cu
  Cu4      1.0000 0.21197  0.28717  0.22979  Biso   1.000  Cu
  O1       1.0000 0.08498  0.66659  0.65212  Biso   1.000  O
  O2       1.0000 0.91502  0.33341  0.34788  Biso   1.000  O
  O3       1.0000 0.85567  0.59962  0.69056  Biso   1.000  O
  O4       1.0000 0.14433  0.40038  0.30944  Biso   1.000  O
  O5       1.0000 0.12899  0.22573  0.62276  Biso   1.000  O
  O6       1.0000 0.87101  0.77427  0.37724  Biso   1.000  O
  O7       1.0000 0.10484  0.38304  0.69341  Biso   1.000  O
  O8       1.0000 0.89516  0.61696  0.30659  Biso   1.000  O
  O9       1.0000 0.46221  0.04527  0.79090  Biso   1.000  O
  O10      1.0000 0.53779  0.95473  0.20910  Biso   1.000  O
  O11      1.0000 0.37951  0.22119  0.84155  Biso   1.000  O
  O12      1.0000 0.62049  0.77881  0.15845  Biso   1.000  O
  O13      1.0000 0.46839  0.78513  0.86423  Biso   1.000  O
  O14      1.0000 0.53161  0.21487  0.13577  Biso   1.000  O
  O15      1.0000 0.70942  0.83299  0.84390  Biso   1.000  O
  O16      1.0000 0.29058  0.16701  0.15610  Biso   1.000  O
  O17      1.0000 0.03005  0.70677  0.80147  Biso   1.000  O
  O18      1.0000 0.96995  0.29323  0.19853  Biso   1.000  O
  O19      1.0000 0.22708  0.47883  0.82491  Biso   1.000  O
  O20      1.0000 0.77292  0.52117  0.17509  Biso   1.000  O
  N1       1.0000 0.41959  0.35557  0.68827  Biso   1.000  N
  N2       1.0000 0.58041  0.64443  0.31173  Biso   1.000  N
  N3       1.0000 0.07053  0.23109  0.83763  Biso   1.000  N
  N4       1.0000 0.92947  0.76891  0.16237  Biso   1.000  N
  N5       1.0000 0.75092  0.57353  0.85191  Biso   1.000  N
  N6       1.0000 0.24908  0.42647  0.14809  Biso   1.000  N
  N7       1.0000 0.78385  0.84790  0.68210  Biso   1.000  N
  N8       1.0000 0.21615  0.15210  0.31790  Biso   1.000  N
  C1       1.0000 0.77960  0.57774  0.92448  Biso   1.000  C
  C2       1.0000 0.22040  0.42226  0.07552  Biso   1.000  C
  H1       1.0000 0.82830  0.64190  0.93420  Biso   1.000  H
  H2       1.0000 0.17170  0.35810  0.06580  Biso   1.000  H
  C3       1.0000 0.73950  0.49036  0.98561  Biso   1.000  C
  C4       1.0000 0.26050  0.50964  0.01439  Biso   1.000  C
  H3       1.0000 0.76120  0.49560  0.03540  Biso   1.000  H
  H4       1.0000 0.23880  0.50440  0.96460  Biso   1.000  H
  C5       1.0000 0.66660  0.39504  0.97130  Biso   1.000  C
  C6       1.0000 0.33340  0.60496  0.02870  Biso   1.000  C
  H5       1.0000 0.63710  0.33570  0.01140  Biso   1.000  H
  H6       1.0000 0.36290  0.66430  0.98860  Biso   1.000  H
  C7       1.0000 0.63820  0.38943  0.89607  Biso   1.000  C
  C8       1.0000 0.36180  0.61057  0.10393  Biso   1.000  C
  H7       1.0000 0.58960  0.32610  0.88500  Biso   1.000  H
  H8       1.0000 0.41040  0.67390  0.11500  Biso   1.000  H
  C9       1.0000 0.68310  0.47932  0.83774  Biso   1.000  C
  C10      1.0000 0.31690  0.52068  0.16226  Biso   1.000  C
  H9       1.0000 0.66590  0.47450  0.78710  Biso   1.000  H
  H10      1.0000 0.33410  0.52550  0.21290  Biso   1.000  H
  C11      1.0000 0.87870  0.93436  0.67224  Biso   1.000  C
  C12      1.0000 0.12130  0.06564  0.32776  Biso   1.000  C
  H11      1.0000 0.94140  0.93560  0.71010  Biso   1.000  H
  H12      1.0000 0.05860  0.06440  0.28990  Biso   1.000  H
  C13      1.0000 0.88710  0.02155  0.60821  Biso   1.000  C
  C14      1.0000 0.11290  0.97845  0.39179  Biso   1.000  C
  H13      1.0000 0.95560  0.07930  0.60240  Biso   1.000  H
  H14      1.0000 0.04440  0.92070  0.39760  Biso   1.000  H
  C15      1.0000 0.79150  0.02120  0.55296  Biso   1.000  C
  C16      1.0000 0.20850  0.97880  0.44704  Biso   1.000  C
  H15      1.0000 0.79390  0.07960  0.50970  Biso   1.000  H
  H16      1.0000 0.20610  0.92040  0.49030  Biso   1.000  H
  C17      1.0000 0.69260  0.93330  0.56264  Biso   1.000  C
  C18      1.0000 0.30740  0.06670  0.43736  Biso   1.000  C
  H17      1.0000 0.62760  0.93140  0.52600  Biso   1.000  H
  H18      1.0000 0.37240  0.06860  0.47400  Biso   1.000  H
  C19      1.0000 0.69180  0.84772  0.62799  Biso   1.000  C
  C20      1.0000 0.30820  0.15228  0.37201  Biso   1.000  C
  H19      1.0000 0.62530  0.78830  0.63450  Biso   1.000  H
  H20      1.0000 0.37470  0.21170  0.36550  Biso   1.000  H
  C21      1.0000 0.55370  0.28491  0.67509  Biso   1.000  C
  C22      1.0000 0.44630  0.71509  0.32491  Biso   1.000  C
  H21      1.0000 0.56690  0.20850  0.70370  Biso   1.000  H
  H22      1.0000 0.43310  0.79150  0.29630  Biso   1.000  H
  C23      1.0000 0.67230  0.32249  0.62041  Biso   1.000  C
  C24      1.0000 0.32770  0.67751  0.37959  Biso   1.000  C
  H23      1.0000 0.76360  0.27180  0.61230  Biso   1.000  H
  H24      1.0000 0.23640  0.72820  0.38770  Biso   1.000  H
  C25      1.0000 0.65380  0.43629  0.57779  Biso   1.000  C
  C26      1.0000 0.34620  0.56371  0.42221  Biso   1.000  C
  H25      1.0000 0.73170  0.46260  0.54010  Biso   1.000  H
  H26      1.0000 0.26830  0.53740  0.45990  Biso   1.000  H
  C27      1.0000 0.51750  0.50992  0.59231  Biso   1.000  C
  C28      1.0000 0.48250  0.49008  0.40769  Biso   1.000  C
  H27      1.0000 0.50300  0.58750  0.56550  Biso   1.000  H
  H28      1.0000 0.49700  0.41250  0.43450  Biso   1.000  H
  C29      1.0000 0.40330  0.46660  0.64717  Biso   1.000  C
  C30      1.0000 0.59670  0.53340  0.35283  Biso   1.000  C
  H29      1.0000 0.31130  0.51610  0.65620  Biso   1.000  H
  H30      1.0000 0.68870  0.48390  0.34380  Biso   1.000  H
  C31      1.0000 0.97140  0.17124  0.81061  Biso   1.000  C
  C32      1.0000 0.02860  0.82876  0.18939  Biso   1.000  C
  H31      1.0000 0.97330  0.17460  0.75700  Biso   1.000  H
  H32      1.0000 0.02670  0.82540  0.24300  Biso   1.000  H
  C33      1.0000 0.86680  0.10497  0.85929  Biso   1.000  C
  C34      1.0000 0.13320  0.89503  0.14071  Biso   1.000  C
  H33      1.0000 0.80100  0.06360  0.83880  Biso   1.000  H
  H34      1.0000 0.19900  0.93640  0.16120  Biso   1.000  H
  C35      1.0000 0.86190  0.10131  0.93910  Biso   1.000  C
  C36      1.0000 0.13810  0.89869  0.06090  Biso   1.000  C
  H35      1.0000 0.79350  0.05660  0.97310  Biso   1.000  H
  H36      1.0000 0.20650  0.94340  0.02690  Biso   1.000  H
  C37      1.0000 0.96050  0.16534  0.96756  Biso   1.000  C
  C38      1.0000 0.03950  0.83466  0.03244  Biso   1.000  C
  H37      1.0000 0.95780  0.16580  0.02090  Biso   1.000  H
  H38      1.0000 0.04220  0.83420  0.97910  Biso   1.000  H
  C39      1.0000 0.06290  0.22856  0.91520  Biso   1.000  C
  C40      1.0000 0.93710  0.77144  0.08480  Biso   1.000  C
  H39      1.0000 0.12930  0.27110  0.93450  Biso   1.000  H
  H40      1.0000 0.87070  0.72890  0.06550  Biso   1.000  H
  C41      1.0000 0.57080  0.84484  0.87492  Biso   1.000  C
  C42      1.0000 0.42920  0.15516  0.12508  Biso   1.000  C
  C43      1.0000 0.53397  0.92984  0.93739  Biso   1.000  C
  C44      1.0000 0.46603  0.07016  0.06261  Biso   1.000  C
  C45      1.0000 0.47132  0.05171  0.92498  Biso   1.000  C
  C46      1.0000 0.52868  0.94829  0.07502  Biso   1.000  C
  C47      1.0000 0.43580  0.10913  0.84529  Biso   1.000  C
  C48      1.0000 0.56420  0.89087  0.15471  Biso   1.000  C
  C49      1.0000 0.09553  0.33539  0.63224  Biso   1.000  C
  C50      1.0000 0.90447  0.66461  0.36776  Biso   1.000  C
  C51      1.0000 0.04221  0.42236  0.56554  Biso   1.000  C
  C52      1.0000 0.95779  0.57764  0.43446  Biso   1.000  C
  C53      1.0000 0.99420  0.54643  0.57131  Biso   1.000  C
  C54      1.0000 0.00580  0.45357  0.42869  Biso   1.000  C
  C55      1.0000 0.98005  0.60671  0.64519  Biso   1.000  C
  C56      1.0000 0.01995  0.39329  0.35481  Biso   1.000  C
  C57      1.0000 0.43784  0.11992  0.98806  Biso   1.000  C
  C58      1.0000 0.56216  0.88008  0.01194  Biso   1.000  C
  H41      1.0000 0.39550  0.20080  0.98010  Biso   1.000  H
  H42      1.0000 0.60450  0.79920  0.01990  Biso   1.000  H
  C59      1.0000 0.95335  0.62181  0.50598  Biso   1.000  C
  C60      1.0000 0.04665  0.37819  0.49402  Biso   1.000  C
  H43      1.0000 0.92210  0.70410  0.51000  Biso   1.000  H
  H44      1.0000 0.07790  0.29590  0.49000  Biso   1.000  H
  H45      1.0000 0.06200  0.75700  0.81760  Biso   1.000  H
  H46      1.0000 0.93800  0.24300  0.18240  Biso   1.000  H
  H47      1.0000 0.06100  0.70000  0.76100  Biso   1.000  H
  H48      1.0000 0.93900  0.30000  0.23900  Biso   1.000  H
  H49      1.0000 0.15800  0.52600  0.82190  Biso   1.000  H
  H50      1.0000 0.84200  0.47400  0.17810  Biso   1.000  H
  H51      1.0000 0.29500  0.51900  0.80740  Biso   1.000  H
  H52      1.0000 0.70500  0.48100  0.19260  Biso   1.000  H
  O21      1.0000 0.82836  0.11445  0.15539  Biso   1.000  O
  O22      1.0000 0.17164  0.88555  0.84461  Biso   1.000  O
  H53      1.0000 0.74200  0.14400  0.14500  Biso   1.000  H
  H54      1.0000 0.25800  0.85600  0.85500  Biso   1.000  H
  H55      1.0000 0.81400  0.07600  0.18940  Biso   1.000  H
  H56      1.0000 0.18600  0.92400  0.81060  Biso   1.000  H
  O23      1.0000 0.73342  0.98671  0.30870  Biso   1.000  O
  O24      1.0000 0.26658  0.01329  0.69130  Biso   1.000  O
  H57      1.0000 0.77600  0.92000  0.33100  Biso   1.000  H
  H58      1.0000 0.22400  0.08000  0.66900  Biso   1.000  H
  H59      1.0000 0.66700  0.97400  0.28840  Biso   1.000  H
  H60      1.0000 0.33300  0.02600  0.71160  Biso   1.000  H
  O25      1.0000 0.56258  0.35746  0.24495  Biso   1.000  O
  O26      1.0000 0.43742  0.64254  0.75505  Biso   1.000  O
  H61      1.0000 0.55300  0.31300  0.21200  Biso   1.000  H
  H62      1.0000 0.44700  0.68700  0.78800  Biso   1.000  H
  H63      1.0000 0.58800  0.31500  0.28000  Biso   1.000  H
  H64      1.0000 0.41200  0.68500  0.72000  Biso   1.000  H
  O27      1.0000 0.66181  0.20253  0.37870  Biso   1.000  O
  O28      1.0000 0.33819  0.79747  0.62130  Biso   1.000  O
  H65      1.0000 0.69000  0.13900  0.35860  Biso   1.000  H
  H66      1.0000 0.31000  0.86100  0.64140  Biso   1.000  H
  H67      1.0000 0.73000  0.23100  0.37870  Biso   1.000  H
  H68      1.0000 0.27000  0.76900  0.62130  Biso   1.000  H
