data_image0
_cell_length_a       8.8856
_cell_length_b       11.112
_cell_length_c       17.453
_cell_angle_alpha    82.39
_cell_angle_beta     81.32
_cell_angle_gamma    82.32

_symmetry_space_group_name_H-M    "P 1"
_symmetry_int_tables_number       1

loop_
  _symmetry_equiv_pos_as_xyz
  'x, y, z'

loop_
  _atom_site_label
  _atom_site_occupancy
  _atom_site_fract_x
  _atom_site_fract_y
  _atom_site_fract_z
  _atom_site_thermal_displace_type
  _atom_site_B_iso_or_equiv
  _atom_site_type_symbol
  Cu1      1.0000 0.24329  0.80491  0.26736  Biso   1.000  Cu
  Cu2      1.0000 0.75671  0.19509  0.73264  Biso   1.000  Cu
  Cu3      1.0000 0.21213  0.78729  0.72972  Biso   1.000  Cu
  Cu4      1.0000 0.78787  0.21271  0.27028  Biso   1.000  Cu
  O1       1.0000 0.37958  0.72086  0.34144  Biso   1.000  O
  O2       1.0000 0.62042  0.27914  0.65856  Biso   1.000  O
  O3       1.0000 0.46236  0.54518  0.29083  Biso   1.000  O
  O4       1.0000 0.53764  0.45482  0.70917  Biso   1.000  O
  O5       1.0000 0.10458  0.88268  0.19338  Biso   1.000  O
  O6       1.0000 0.89542  0.11732  0.80662  Biso   1.000  O
  O7       1.0000 0.12862  0.72568  0.12278  Biso   1.000  O
  O8       1.0000 0.87138  0.27432  0.87722  Biso   1.000  O
  O9       1.0000 0.22680  0.97869  0.32491  Biso   1.000  O
  O10      1.0000 0.77320  0.02131  0.67509  Biso   1.000  O
  H1       1.0000 0.15900  0.02100  0.32270  Biso   1.000  H
  H2       1.0000 0.84100  0.97900  0.67730  Biso   1.000  H
  H3       1.0000 0.29700  0.02400  0.30590  Biso   1.000  H
  H4       1.0000 0.70300  0.97600  0.69410  Biso   1.000  H
  O11      1.0000 0.29048  0.66714  0.65606  Biso   1.000  O
  O12      1.0000 0.70952  0.33286  0.34394  Biso   1.000  O
  O13      1.0000 0.53131  0.71500  0.63575  Biso   1.000  O
  O14      1.0000 0.46869  0.28500  0.36425  Biso   1.000  O
  O15      1.0000 0.14429  0.90093  0.80938  Biso   1.000  O
  O16      1.0000 0.85571  0.09907  0.19062  Biso   1.000  O
  O17      1.0000 0.91547  0.83368  0.84739  Biso   1.000  O
  O18      1.0000 0.08453  0.16632  0.15261  Biso   1.000  O
  O19      1.0000 0.96972  0.79301  0.69813  Biso   1.000  O
  O20      1.0000 0.03028  0.20699  0.30187  Biso   1.000  O
  H5       1.0000 0.92600  0.73400  0.68290  Biso   1.000  H
  H6       1.0000 0.07400  0.26600  0.31710  Biso   1.000  H
  H7       1.0000 0.94200  0.79900  0.74040  Biso   1.000  H
  H8       1.0000 0.05800  0.20100  0.25960  Biso   1.000  H
  N1       1.0000 0.41950  0.85537  0.18823  Biso   1.000  N
  N2       1.0000 0.58050  0.14463  0.81177  Biso   1.000  N
  N3       1.0000 0.07020  0.73063  0.33778  Biso   1.000  N
  N4       1.0000 0.92980  0.26937  0.66222  Biso   1.000  N
  N5       1.0000 0.21700  0.65198  0.81767  Biso   1.000  N
  N6       1.0000 0.78300  0.34802  0.18233  Biso   1.000  N
  N7       1.0000 0.24910  0.92694  0.64797  Biso   1.000  N
  N8       1.0000 0.75090  0.07306  0.35203  Biso   1.000  N
  C1       1.0000 0.40370  0.96610  0.14728  Biso   1.000  C
  C2       1.0000 0.59630  0.03390  0.85272  Biso   1.000  C
  H9       1.0000 0.30950  0.01690  0.15650  Biso   1.000  H
  H10      1.0000 0.69050  0.98310  0.84350  Biso   1.000  H
  C3       1.0000 0.51780  0.00960  0.09251  Biso   1.000  C
  C4       1.0000 0.48220  0.99040  0.90749  Biso   1.000  C
  H11      1.0000 0.50310  0.08920  0.06520  Biso   1.000  H
  H12      1.0000 0.49690  0.91080  0.93480  Biso   1.000  H
  C5       1.0000 0.65360  0.93550  0.07796  Biso   1.000  C
  C6       1.0000 0.34640  0.06450  0.92204  Biso   1.000  C
  H13      1.0000 0.73360  0.96230  0.03960  Biso   1.000  H
  H14      1.0000 0.26640  0.03770  0.96040  Biso   1.000  H
  C7       1.0000 0.67120  0.82220  0.12011  Biso   1.000  C
  C8       1.0000 0.32880  0.17780  0.87989  Biso   1.000  C
  H15      1.0000 0.76450  0.77000  0.11160  Biso   1.000  H
  H16      1.0000 0.23550  0.23000  0.88840  Biso   1.000  H
  C9       1.0000 0.55320  0.78460  0.17458  Biso   1.000  C
  C10      1.0000 0.44680  0.21540  0.82542  Biso   1.000  C
  H17      1.0000 0.56670  0.70610  0.20340  Biso   1.000  H
  H18      1.0000 0.43330  0.29390  0.79660  Biso   1.000  H
  C11      1.0000 0.06290  0.72860  0.41499  Biso   1.000  C
  C12      1.0000 0.93710  0.27140  0.58501  Biso   1.000  C
  H19      1.0000 0.13060  0.77240  0.43460  Biso   1.000  H
  H20      1.0000 0.86940  0.22760  0.56540  Biso   1.000  H
  C13      1.0000 0.96070  0.66550  0.46711  Biso   1.000  C
  C14      1.0000 0.03930  0.33450  0.53289  Biso   1.000  C
  H21      1.0000 0.95790  0.66600  0.52170  Biso   1.000  H
  H22      1.0000 0.04210  0.33400  0.47830  Biso   1.000  H
  C15      1.0000 0.86270  0.60140  0.43876  Biso   1.000  C
  C16      1.0000 0.13730  0.39860  0.56124  Biso   1.000  C
  H23      1.0000 0.79300  0.55540  0.47360  Biso   1.000  H
  H24      1.0000 0.20700  0.44460  0.52640  Biso   1.000  H
  C17      1.0000 0.86700  0.60480  0.35919  Biso   1.000  C
  C18      1.0000 0.13300  0.39520  0.64081  Biso   1.000  C
  H25      1.0000 0.79930  0.56260  0.33830  Biso   1.000  H
  H26      1.0000 0.20070  0.43740  0.66170  Biso   1.000  H
  C19      1.0000 0.97150  0.67080  0.31073  Biso   1.000  C
  C20      1.0000 0.02850  0.32920  0.68927  Biso   1.000  C
  H27      1.0000 0.97370  0.67410  0.25590  Biso   1.000  H
  H28      1.0000 0.02630  0.32590  0.74410  Biso   1.000  H
  C21      1.0000 0.09550  0.83509  0.13207  Biso   1.000  C
  C22      1.0000 0.90450  0.16491  0.86793  Biso   1.000  C
  C23      1.0000 0.04200  0.92227  0.06548  Biso   1.000  C
  C24      1.0000 0.95800  0.07773  0.93452  Biso   1.000  C
  C25      1.0000 0.04670  0.87877  0.99397  Biso   1.000  C
  C26      1.0000 0.95330  0.12123  0.00603  Biso   1.000  C
  H29      1.0000 0.07900  0.79460  0.98980  Biso   1.000  H
  H30      1.0000 0.92100  0.20540  0.01020  Biso   1.000  H
  C27      1.0000 0.00610  0.95375  0.92863  Biso   1.000  C
  C28      1.0000 0.99390  0.04625  0.07137  Biso   1.000  C
  C29      1.0000 0.43520  0.60942  0.34549  Biso   1.000  C
  C30      1.0000 0.56480  0.39058  0.65451  Biso   1.000  C
  C31      1.0000 0.47080  0.55183  0.42494  Biso   1.000  C
  C32      1.0000 0.52920  0.44817  0.57506  Biso   1.000  C
  C33      1.0000 0.43840  0.61942  0.48803  Biso   1.000  C
  C34      1.0000 0.56160  0.38058  0.51197  Biso   1.000  C
  H31      1.0000 0.39550  0.70240  0.47990  Biso   1.000  H
  H32      1.0000 0.60450  0.29760  0.52010  Biso   1.000  H
  C35      1.0000 0.46620  0.57024  0.56272  Biso   1.000  C
  C36      1.0000 0.53380  0.42976  0.43728  Biso   1.000  C
  C37      1.0000 0.42900  0.65531  0.62505  Biso   1.000  C
  C38      1.0000 0.57100  0.34469  0.37495  Biso   1.000  C
  C39      1.0000 0.12190  0.56600  0.82785  Biso   1.000  C
  C40      1.0000 0.87810  0.43400  0.17215  Biso   1.000  C
  H33      1.0000 0.05730  0.56470  0.78940  Biso   1.000  H
  H34      1.0000 0.94270  0.43530  0.21060  Biso   1.000  H
  C41      1.0000 0.11400  0.47900  0.89190  Biso   1.000  C
  C42      1.0000 0.88600  0.52100  0.10810  Biso   1.000  C
  H35      1.0000 0.04410  0.41970  0.89780  Biso   1.000  H
  H36      1.0000 0.95590  0.58030  0.10220  Biso   1.000  H
  C43      1.0000 0.20890  0.47960  0.94716  Biso   1.000  C
  C44      1.0000 0.79110  0.52040  0.05284  Biso   1.000  C
  H37      1.0000 0.20600  0.42030  0.99170  Biso   1.000  H
  H38      1.0000 0.79400  0.57970  0.00830  Biso   1.000  H
  C45      1.0000 0.30800  0.56690  0.93720  Biso   1.000  C
  C46      1.0000 0.69200  0.43310  0.06280  Biso   1.000  C
  H39      1.0000 0.37510  0.56860  0.97450  Biso   1.000  H
  H40      1.0000 0.62490  0.43140  0.02550  Biso   1.000  H
  C47      1.0000 0.30840  0.65190  0.87216  Biso   1.000  C
  C48      1.0000 0.69160  0.34810  0.12784  Biso   1.000  C
  H41      1.0000 0.37610  0.71290  0.86570  Biso   1.000  H
  H42      1.0000 0.62390  0.28710  0.13430  Biso   1.000  H
  C49      1.0000 0.31710  0.02090  0.66195  Biso   1.000  C
  C50      1.0000 0.68290  0.97910  0.33805  Biso   1.000  C
  H43      1.0000 0.33520  0.02590  0.71370  Biso   1.000  H
  H44      1.0000 0.66480  0.97410  0.28630  Biso   1.000  H
  C51      1.0000 0.36160  0.11050  0.60381  Biso   1.000  C
  C52      1.0000 0.63840  0.88950  0.39619  Biso   1.000  C
  H45      1.0000 0.41080  0.17560  0.61510  Biso   1.000  H
  H46      1.0000 0.58920  0.82440  0.38490  Biso   1.000  H
  C53      1.0000 0.33360  0.10440  0.52888  Biso   1.000  C
  C54      1.0000 0.66640  0.89560  0.47112  Biso   1.000  C
  H47      1.0000 0.36460  0.16470  0.48770  Biso   1.000  H
  H48      1.0000 0.63540  0.83530  0.51230  Biso   1.000  H
  C55      1.0000 0.26010  0.00950  0.51455  Biso   1.000  C
  C56      1.0000 0.73990  0.99050  0.48545  Biso   1.000  C
  H49      1.0000 0.23760  0.00440  0.46360  Biso   1.000  H
  H50      1.0000 0.76240  0.99560  0.53640  Biso   1.000  H
  C57      1.0000 0.21990  0.92270  0.57515  Biso   1.000  C
  C58      1.0000 0.78010  0.07730  0.42485  Biso   1.000  C
  H51      1.0000 0.16970  0.85720  0.56520  Biso   1.000  H
  H52      1.0000 0.83030  0.14280  0.43480  Biso   1.000  H
  C59      1.0000 0.02010  0.89348  0.85460  Biso   1.000  C
  C60      1.0000 0.97990  0.10652  0.14540  Biso   1.000  C
  O21      1.0000 0.33830  0.29665  0.12096  Biso   1.000  O
  O22      1.0000 0.66170  0.70335  0.87904  Biso   1.000  O
  H53      1.0000 0.26800  0.27200  0.12150  Biso   1.000  H
  H54      1.0000 0.73200  0.72800  0.87850  Biso   1.000  H
  H55      1.0000 0.31400  0.35600  0.13670  Biso   1.000  H
  H56      1.0000 0.68600  0.64400  0.86330  Biso   1.000  H
  O23      1.0000 0.26610  0.51294  0.19095  Biso   1.000  O
  O24      1.0000 0.73390  0.48706  0.80905  Biso   1.000  O
  H57      1.0000 0.22900  0.57700  0.16990  Biso   1.000  H
  H58      1.0000 0.77100  0.42300  0.83010  Biso   1.000  H
  H59      1.0000 0.33300  0.52500  0.20750  Biso   1.000  H
  H60      1.0000 0.66700  0.47500  0.79250  Biso   1.000  H
  O25      1.0000 0.56280  0.85755  0.74481  Biso   1.000  O
  O26      1.0000 0.43720  0.14245  0.25519  Biso   1.000  O
  H61      1.0000 0.55100  0.80900  0.71090  Biso   1.000  H
  H62      1.0000 0.44900  0.19100  0.28910  Biso   1.000  H
  H63      1.0000 0.59200  0.81200  0.77850  Biso   1.000  H
  H64      1.0000 0.40800  0.18800  0.22150  Biso   1.000  H
  O27      1.0000 0.82850  0.61431  0.65540  Biso   1.000  O
  O28      1.0000 0.17150  0.38569  0.34460  Biso   1.000  O
  H65      1.0000 0.74400  0.64100  0.64660  Biso   1.000  H
  H66      1.0000 0.25600  0.35900  0.35340  Biso   1.000  H
  H67      1.0000 0.81900  0.56900  0.69130  Biso   1.000  H
  H68      1.0000 0.18100  0.43100  0.30870  Biso   1.000  H
