data_image0
_cell_length_a       13.237
_cell_length_b       7.715
_cell_length_c       7.161
_cell_angle_alpha    90
_cell_angle_beta     94.02
_cell_angle_gamma    90

_symmetry_space_group_name_H-M    "P 1"
_symmetry_int_tables_number       1

loop_
  _symmetry_equiv_pos_as_xyz
  'x, y, z'

loop_
  _atom_site_label
  _atom_site_occupancy
  _atom_site_fract_x
  _atom_site_fract_y
  _atom_site_fract_z
  _atom_site_thermal_displace_type
  _atom_site_B_iso_or_equiv
  _atom_site_type_symbol
  Cu1      1.0000 0.92028  0.02922  0.65608  Biso   1.000  Cu
  Cu2      1.0000 0.57972  0.52922  0.84392  Biso   1.000  Cu
  Cu3      1.0000 0.07972  0.97078  0.34392  Biso   1.000  Cu
  Cu4      1.0000 0.42028  0.47078  0.15608  Biso   1.000  Cu
  O1       1.0000 0.99770  0.85370  0.81090  Biso   1.000  O
  O2       1.0000 0.50230  0.35370  0.68910  Biso   1.000  O
  O3       1.0000 0.00230  0.14630  0.18910  Biso   1.000  O
  O4       1.0000 0.49770  0.64630  0.31090  Biso   1.000  O
  O5       1.0000 0.84420  0.66860  0.21910  Biso   1.000  O
  O6       1.0000 0.65580  0.16860  0.28090  Biso   1.000  O
  O7       1.0000 0.15580  0.33140  0.78090  Biso   1.000  O
  O8       1.0000 0.34420  0.83140  0.71910  Biso   1.000  O
  N1       1.0000 0.92420  0.16120  0.88970  Biso   1.000  N
  N2       1.0000 0.57580  0.66120  0.61030  Biso   1.000  N
  N3       1.0000 0.07580  0.83880  0.11030  Biso   1.000  N
  N4       1.0000 0.42420  0.33880  0.38970  Biso   1.000  N
  N5       1.0000 0.85350  0.21590  0.49930  Biso   1.000  N
  N6       1.0000 0.64650  0.71590  0.00070  Biso   1.000  N
  N7       1.0000 0.14650  0.78410  0.50070  Biso   1.000  N
  N8       1.0000 0.35350  0.28410  0.99930  Biso   1.000  N
  N9       1.0000 0.90470  0.86470  0.45030  Biso   1.000  N
  N10      1.0000 0.59530  0.36470  0.04970  Biso   1.000  N
  N11      1.0000 0.09530  0.13530  0.54970  Biso   1.000  N
  N12      1.0000 0.40470  0.63530  0.95030  Biso   1.000  N
  C1       1.0000 0.02020  0.91240  0.97650  Biso   1.000  C
  C2       1.0000 0.47980  0.41240  0.52350  Biso   1.000  C
  C3       1.0000 0.97980  0.08760  0.02350  Biso   1.000  C
  C4       1.0000 0.52020  0.58760  0.47650  Biso   1.000  C
  C5       1.0000 0.88310  0.33390  0.92360  Biso   1.000  C
  C6       1.0000 0.61690  0.83390  0.57640  Biso   1.000  C
  C7       1.0000 0.11690  0.66610  0.07640  Biso   1.000  C
  C8       1.0000 0.38310  0.16610  0.42360  Biso   1.000  C
  C9       1.0000 0.85870  0.43000  0.74800  Biso   1.000  C
  C10      1.0000 0.64130  0.93000  0.75200  Biso   1.000  C
  C11      1.0000 0.14130  0.57000  0.25200  Biso   1.000  C
  C12      1.0000 0.35870  0.07000  0.24800  Biso   1.000  C
  C13      1.0000 0.81630  0.37100  0.58900  Biso   1.000  C
  C14      1.0000 0.68370  0.87100  0.91100  Biso   1.000  C
  C15      1.0000 0.18370  0.62900  0.41100  Biso   1.000  C
  C16      1.0000 0.31630  0.12900  0.08900  Biso   1.000  C
  C17      1.0000 0.87350  0.76950  0.33810  Biso   1.000  C
  C18      1.0000 0.62650  0.26950  0.16190  Biso   1.000  C
  C19      1.0000 0.12650  0.23050  0.66190  Biso   1.000  C
  C20      1.0000 0.37350  0.73050  0.83810  Biso   1.000  C
