data_image0
_cell_length_a       8.174
_cell_length_b       10.302
_cell_length_c       17.006
_cell_angle_alpha    90
_cell_angle_beta     90
_cell_angle_gamma    90

_symmetry_space_group_name_H-M    "P 1"
_symmetry_int_tables_number       1

loop_
  _symmetry_equiv_pos_as_xyz
  'x, y, z'

loop_
  _atom_site_label
  _atom_site_occupancy
  _atom_site_fract_x
  _atom_site_fract_y
  _atom_site_fract_z
  _atom_site_thermal_displace_type
  _atom_site_B_iso_or_equiv
  _atom_site_type_symbol
  Cu1      1.0000 0.21450  0.87652  0.03121  Biso   1.000  Cu
  Cu2      1.0000 0.71450  0.62348  0.96879  Biso   1.000  Cu
  Cu3      1.0000 0.78550  0.37652  0.46879  Biso   1.000  Cu
  Cu4      1.0000 0.28550  0.12348  0.53121  Biso   1.000  Cu
  O1       1.0000 0.59190  0.24280  0.03890  Biso   1.000  O
  O2       1.0000 0.09190  0.25720  0.96110  Biso   1.000  O
  O3       1.0000 0.40810  0.74280  0.46110  Biso   1.000  O
  O4       1.0000 0.90810  0.75720  0.53890  Biso   1.000  O
  O5       1.0000 0.01850  0.96950  0.00650  Biso   1.000  O
  O6       1.0000 0.51850  0.53050  0.99350  Biso   1.000  O
  O7       1.0000 0.98150  0.46950  0.49350  Biso   1.000  O
  O8       1.0000 0.48150  0.03050  0.50650  Biso   1.000  O
  O9       1.0000 0.99950  0.26510  0.21960  Biso   1.000  O
  O10      1.0000 0.49950  0.23490  0.78040  Biso   1.000  O
  O11      1.0000 0.00050  0.76510  0.28040  Biso   1.000  O
  O12      1.0000 0.50050  0.73490  0.71960  Biso   1.000  O
  O13      1.0000 0.42840  0.80460  0.02520  Biso   1.000  O
  O14      1.0000 0.92840  0.69540  0.97480  Biso   1.000  O
  O15      1.0000 0.57160  0.30460  0.47480  Biso   1.000  O
  O16      1.0000 0.07160  0.19540  0.52520  Biso   1.000  O
  O17      1.0000 0.67060  0.73830  0.06090  Biso   1.000  O
  O18      1.0000 0.17060  0.76170  0.93910  Biso   1.000  O
  O19      1.0000 0.32940  0.23830  0.43910  Biso   1.000  O
  O20      1.0000 0.82940  0.26170  0.56090  Biso   1.000  O
  O21      1.0000 0.08340  0.73610  0.12080  Biso   1.000  O
  O22      1.0000 0.58340  0.76390  0.87920  Biso   1.000  O
  O23      1.0000 0.91660  0.23610  0.37920  Biso   1.000  O
  O24      1.0000 0.41660  0.26390  0.62080  Biso   1.000  O
  N1       1.0000 0.80220  0.26020  0.12620  Biso   1.000  N
  N2       1.0000 0.30220  0.23980  0.87380  Biso   1.000  N
  N3       1.0000 0.19780  0.76020  0.37380  Biso   1.000  N
  N4       1.0000 0.69780  0.73980  0.62620  Biso   1.000  N
  N5       1.0000 0.80590  0.10410  0.02450  Biso   1.000  N
  N6       1.0000 0.30590  0.39590  0.97550  Biso   1.000  N
  N7       1.0000 0.19410  0.60410  0.47550  Biso   1.000  N
  N8       1.0000 0.69410  0.89590  0.52450  Biso   1.000  N
  N9       1.0000 0.17750  0.08460  0.14430  Biso   1.000  N
  N10      1.0000 0.67750  0.41540  0.85570  Biso   1.000  N
  N11      1.0000 0.82250  0.58460  0.35570  Biso   1.000  N
  N12      1.0000 0.32250  0.91540  0.64430  Biso   1.000  N
  N13      1.0000 0.27440  0.99840  0.11410  Biso   1.000  N
  N14      1.0000 0.77440  0.50160  0.88590  Biso   1.000  N
  N15      1.0000 0.72560  0.49840  0.38590  Biso   1.000  N
  N16      1.0000 0.22560  0.00160  0.61410  Biso   1.000  N
  C1       1.0000 0.71870  0.37090  0.16390  Biso   1.000  C
  C2       1.0000 0.21870  0.12910  0.83610  Biso   1.000  C
  C3       1.0000 0.28130  0.87090  0.33610  Biso   1.000  C
  C4       1.0000 0.78130  0.62910  0.66390  Biso   1.000  C
  C5       1.0000 0.72440  0.20610  0.06230  Biso   1.000  C
  C6       1.0000 0.22440  0.29390  0.93770  Biso   1.000  C
  C7       1.0000 0.27560  0.70610  0.43770  Biso   1.000  C
  C8       1.0000 0.77560  0.79390  0.56230  Biso   1.000  C
  C9       1.0000 0.72960  0.05260  0.95230  Biso   1.000  C
  C10      1.0000 0.22960  0.44740  0.04770  Biso   1.000  C
  C11      1.0000 0.27040  0.55260  0.54770  Biso   1.000  C
  C12      1.0000 0.77040  0.94740  0.45230  Biso   1.000  C
  C13      1.0000 0.95510  0.05790  0.04760  Biso   1.000  C
  C14      1.0000 0.45510  0.44210  0.95240  Biso   1.000  C
  C15      1.0000 0.04490  0.55790  0.45240  Biso   1.000  C
  C16      1.0000 0.54490  0.94210  0.54760  Biso   1.000  C
  C17      1.0000 0.02750  0.11170  0.11600  Biso   1.000  C
  C18      1.0000 0.52750  0.38830  0.88400  Biso   1.000  C
  C19      1.0000 0.97250  0.61170  0.38400  Biso   1.000  C
  C20      1.0000 0.47250  0.88830  0.61600  Biso   1.000  C
  C21      1.0000 0.94840  0.21510  0.15890  Biso   1.000  C
  C22      1.0000 0.44840  0.28490  0.84110  Biso   1.000  C
  C23      1.0000 0.05160  0.71510  0.34110  Biso   1.000  C
  C24      1.0000 0.55160  0.78490  0.65890  Biso   1.000  C
  C25      1.0000 0.42820  0.99360  0.15610  Biso   1.000  C
  C26      1.0000 0.92820  0.50640  0.84390  Biso   1.000  C
  C27      1.0000 0.57180  0.49360  0.34390  Biso   1.000  C
  C28      1.0000 0.07180  0.00640  0.65610  Biso   1.000  C
  C29      1.0000 0.55010  0.90120  0.13860  Biso   1.000  C
  C30      1.0000 0.05010  0.59880  0.86140  Biso   1.000  C
  C31      1.0000 0.44990  0.40120  0.36140  Biso   1.000  C
  C32      1.0000 0.94990  0.09880  0.63860  Biso   1.000  C
  C33      1.0000 0.69240  0.89810  0.18540  Biso   1.000  C
  C34      1.0000 0.19240  0.60190  0.81460  Biso   1.000  C
  C35      1.0000 0.30760  0.39810  0.31460  Biso   1.000  C
  C36      1.0000 0.80760  0.10190  0.68540  Biso   1.000  C
  C37      1.0000 0.71660  0.98600  0.24620  Biso   1.000  C
  C38      1.0000 0.21660  0.51400  0.75380  Biso   1.000  C
  C39      1.0000 0.28340  0.48600  0.25380  Biso   1.000  C
  C40      1.0000 0.78340  0.01400  0.74620  Biso   1.000  C
  C41      1.0000 0.59920  0.07830  0.26110  Biso   1.000  C
  C42      1.0000 0.09920  0.42170  0.73890  Biso   1.000  C
  C43      1.0000 0.40080  0.57830  0.23890  Biso   1.000  C
  C44      1.0000 0.90080  0.92170  0.76110  Biso   1.000  C
  C45      1.0000 0.45630  0.08360  0.21700  Biso   1.000  C
  C46      1.0000 0.95630  0.41640  0.78300  Biso   1.000  C
  C47      1.0000 0.54370  0.58360  0.28300  Biso   1.000  C
  C48      1.0000 0.04370  0.91640  0.71700  Biso   1.000  C
  C49      1.0000 0.54680  0.80770  0.07200  Biso   1.000  C
  C50      1.0000 0.04680  0.69230  0.92800  Biso   1.000  C
  C51      1.0000 0.45320  0.30770  0.42800  Biso   1.000  C
  C52      1.0000 0.95320  0.19230  0.57200  Biso   1.000  C
  H1       1.0000 0.78910  0.39100  0.20540  Biso   1.000  H
  H2       1.0000 0.28910  0.10900  0.79460  Biso   1.000  H
  H3       1.0000 0.21090  0.89100  0.29460  Biso   1.000  H
  H4       1.0000 0.71090  0.60900  0.70540  Biso   1.000  H
  H5       1.0000 0.70820  0.44180  0.12860  Biso   1.000  H
  H6       1.0000 0.20820  0.05820  0.87140  Biso   1.000  H
  H7       1.0000 0.29180  0.94180  0.37140  Biso   1.000  H
  H8       1.0000 0.79180  0.55820  0.62860  Biso   1.000  H
  H9       1.0000 0.61360  0.34660  0.18270  Biso   1.000  H
  H10      1.0000 0.11360  0.15340  0.81730  Biso   1.000  H
  H11      1.0000 0.38640  0.84660  0.31730  Biso   1.000  H
  H12      1.0000 0.88640  0.65340  0.68270  Biso   1.000  H
  H13      1.0000 0.71800  0.95810  0.95960  Biso   1.000  H
  H14      1.0000 0.21800  0.54190  0.04040  Biso   1.000  H
  H15      1.0000 0.28200  0.45810  0.54040  Biso   1.000  H
  H16      1.0000 0.78200  0.04190  0.45960  Biso   1.000  H
  H17      1.0000 0.62520  0.09120  0.94460  Biso   1.000  H
  H18      1.0000 0.12520  0.40880  0.05540  Biso   1.000  H
  H19      1.0000 0.37480  0.59120  0.55540  Biso   1.000  H
  H20      1.0000 0.87480  0.90880  0.44460  Biso   1.000  H
  H21      1.0000 0.79710  0.07020  0.90810  Biso   1.000  H
  H22      1.0000 0.29710  0.42980  0.09190  Biso   1.000  H
  H23      1.0000 0.20290  0.57020  0.59190  Biso   1.000  H
  H24      1.0000 0.70290  0.92980  0.40810  Biso   1.000  H
  H25      1.0000 0.77360  0.83430  0.17510  Biso   1.000  H
  H26      1.0000 0.27360  0.66570  0.82490  Biso   1.000  H
  H27      1.0000 0.22640  0.33430  0.32490  Biso   1.000  H
  H28      1.0000 0.72640  0.16570  0.67510  Biso   1.000  H
  H29      1.0000 0.81320  0.98240  0.27720  Biso   1.000  H
  H30      1.0000 0.31320  0.51760  0.72280  Biso   1.000  H
  H31      1.0000 0.18680  0.48240  0.22280  Biso   1.000  H
  H32      1.0000 0.68680  0.01760  0.77720  Biso   1.000  H
  H33      1.0000 0.61600  0.13940  0.30220  Biso   1.000  H
  H34      1.0000 0.11600  0.36060  0.69780  Biso   1.000  H
  H35      1.0000 0.38400  0.63940  0.19780  Biso   1.000  H
  H36      1.0000 0.88400  0.86060  0.80220  Biso   1.000  H
  H37      1.0000 0.37690  0.14840  0.22800  Biso   1.000  H
  H38      1.0000 0.87690  0.35160  0.77200  Biso   1.000  H
  H39      1.0000 0.62310  0.64840  0.27200  Biso   1.000  H
  H40      1.0000 0.12310  0.85160  0.72800  Biso   1.000  H
