data_image0
_cell_length_a       12.722
_cell_length_b       14.935
_cell_length_c       5.7789
_cell_angle_alpha    90
_cell_angle_beta     93.39
_cell_angle_gamma    90

_symmetry_space_group_name_H-M    "P 1"
_symmetry_int_tables_number       1

loop_
  _symmetry_equiv_pos_as_xyz
  'x, y, z'

loop_
  _atom_site_label
  _atom_site_occupancy
  _atom_site_fract_x
  _atom_site_fract_y
  _atom_site_fract_z
  _atom_site_thermal_displace_type
  _atom_site_B_iso_or_equiv
  _atom_site_type_symbol
  Cu1      1.0000 0.77047  0.29571  0.23250  Biso   1.000  Cu
  Cu2      1.0000 0.22953  0.79571  0.26750  Biso   1.000  Cu
  Cu3      1.0000 0.22953  0.70429  0.76750  Biso   1.000  Cu
  Cu4      1.0000 0.77047  0.20429  0.73250  Biso   1.000  Cu
  N1       1.0000 0.73310  0.42450  0.15350  Biso   1.000  N
  N2       1.0000 0.26690  0.92450  0.34650  Biso   1.000  N
  N3       1.0000 0.26690  0.57550  0.84650  Biso   1.000  N
  N4       1.0000 0.73310  0.07550  0.65350  Biso   1.000  N
  N5       1.0000 0.67350  0.21300  0.98570  Biso   1.000  N
  N6       1.0000 0.32650  0.71300  0.51430  Biso   1.000  N
  N7       1.0000 0.32650  0.78700  0.01430  Biso   1.000  N
  N8       1.0000 0.67350  0.28700  0.48570  Biso   1.000  N
  N9       1.0000 0.58930  0.18510  0.97680  Biso   1.000  N
  N10      1.0000 0.41070  0.68510  0.52320  Biso   1.000  N
  N11      1.0000 0.41070  0.81490  0.02320  Biso   1.000  N
  N12      1.0000 0.58930  0.31490  0.47680  Biso   1.000  N
  N13      1.0000 0.50580  0.15760  0.97760  Biso   1.000  N
  N14      1.0000 0.49420  0.65760  0.52240  Biso   1.000  N
  N15      1.0000 0.49420  0.84240  0.02240  Biso   1.000  N
  N16      1.0000 0.50580  0.34240  0.47760  Biso   1.000  N
  N17      1.0000 0.86270  0.27900  0.97030  Biso   1.000  N
  N18      1.0000 0.13730  0.77900  0.52970  Biso   1.000  N
  N19      1.0000 0.13730  0.72100  0.02970  Biso   1.000  N
  N20      1.0000 0.86270  0.22100  0.47030  Biso   1.000  N
  N21      1.0000 0.93870  0.31920  0.93720  Biso   1.000  N
  N22      1.0000 0.06130  0.81920  0.56280  Biso   1.000  N
  N23      1.0000 0.06130  0.68080  0.06280  Biso   1.000  N
  N24      1.0000 0.93870  0.18080  0.43720  Biso   1.000  N
  N25      1.0000 0.01390  0.35970  0.90070  Biso   1.000  N
  N26      1.0000 0.98610  0.85970  0.59930  Biso   1.000  N
  N27      1.0000 0.98610  0.64030  0.09930  Biso   1.000  N
  N28      1.0000 0.01390  0.14030  0.40070  Biso   1.000  N
  C1       1.0000 0.66610  0.44330  0.97650  Biso   1.000  C
  C2       1.0000 0.33390  0.94330  0.52350  Biso   1.000  C
  C3       1.0000 0.33390  0.55670  0.02350  Biso   1.000  C
  C4       1.0000 0.66610  0.05670  0.47650  Biso   1.000  C
  H1       1.0000 0.64380  0.39550  0.88270  Biso   1.000  H
  H2       1.0000 0.35620  0.89550  0.61730  Biso   1.000  H
  H3       1.0000 0.35620  0.60450  0.11730  Biso   1.000  H
  H4       1.0000 0.64380  0.10450  0.38270  Biso   1.000  H
  C5       1.0000 0.62620  0.52580  0.91700  Biso   1.000  C
  C6       1.0000 0.37380  0.02580  0.58300  Biso   1.000  C
  C7       1.0000 0.37380  0.47420  0.08300  Biso   1.000  C
  C8       1.0000 0.62620  0.97420  0.41700  Biso   1.000  C
  H5       1.0000 0.58110  0.53300  0.78580  Biso   1.000  H
  H6       1.0000 0.41890  0.03300  0.71420  Biso   1.000  H
  H7       1.0000 0.41890  0.46700  0.21420  Biso   1.000  H
  H8       1.0000 0.58110  0.96700  0.28580  Biso   1.000  H
  C9       1.0000 0.65450  0.59780  0.05600  Biso   1.000  C
  C10      1.0000 0.34550  0.09780  0.44400  Biso   1.000  C
  C11      1.0000 0.34550  0.40220  0.94400  Biso   1.000  C
  C12      1.0000 0.65450  0.90220  0.55600  Biso   1.000  C
  H9       1.0000 0.62750  0.65470  0.02510  Biso   1.000  H
  H10      1.0000 0.37250  0.15470  0.47490  Biso   1.000  H
  H11      1.0000 0.37250  0.34530  0.97490  Biso   1.000  H
  H12      1.0000 0.62750  0.84530  0.52510  Biso   1.000  H
  C13      1.0000 0.73070  0.58030  0.25850  Biso   1.000  C
  C14      1.0000 0.26930  0.08030  0.24150  Biso   1.000  C
  C15      1.0000 0.26930  0.41970  0.74150  Biso   1.000  C
  C16      1.0000 0.73070  0.91970  0.75850  Biso   1.000  C
  C17      1.0000 0.76280  0.64950  0.40400  Biso   1.000  C
  C18      1.0000 0.23720  0.14950  0.09600  Biso   1.000  C
  C19      1.0000 0.23720  0.35050  0.59600  Biso   1.000  C
  C20      1.0000 0.76280  0.85050  0.90400  Biso   1.000  C
  H13      1.0000 0.73680  0.70740  0.38440  Biso   1.000  H
  H14      1.0000 0.26320  0.20740  0.11560  Biso   1.000  H
  H15      1.0000 0.26320  0.29260  0.61560  Biso   1.000  H
  H16      1.0000 0.73680  0.79260  0.88440  Biso   1.000  H
  C21      1.0000 0.83470  0.62820  0.57800  Biso   1.000  C
  C22      1.0000 0.16530  0.12820  0.92200  Biso   1.000  C
  C23      1.0000 0.16530  0.37180  0.42200  Biso   1.000  C
  C24      1.0000 0.83470  0.87180  0.07800  Biso   1.000  C
  H17      1.0000 0.86010  0.67350  0.67630  Biso   1.000  H
  H18      1.0000 0.13990  0.17350  0.82370  Biso   1.000  H
  H19      1.0000 0.13990  0.32650  0.32370  Biso   1.000  H
  H20      1.0000 0.86010  0.82650  0.17630  Biso   1.000  H
  C25      1.0000 0.87130  0.54340  0.61520  Biso   1.000  C
  C26      1.0000 0.12870  0.04340  0.88480  Biso   1.000  C
  C27      1.0000 0.12870  0.45660  0.38480  Biso   1.000  C
  C28      1.0000 0.87130  0.95660  0.11520  Biso   1.000  C
  H21      1.0000 0.92000  0.53310  0.73880  Biso   1.000  H
  H22      1.0000 0.08000  0.03310  0.76120  Biso   1.000  H
  H23      1.0000 0.08000  0.46690  0.26120  Biso   1.000  H
  H24      1.0000 0.92000  0.96690  0.23880  Biso   1.000  H
  C29      1.0000 0.83980  0.47400  0.48010  Biso   1.000  C
  C30      1.0000 0.16020  0.97400  0.01990  Biso   1.000  C
  C31      1.0000 0.16020  0.52600  0.51990  Biso   1.000  C
  C32      1.0000 0.83980  0.02600  0.98010  Biso   1.000  C
  H25      1.0000 0.86540  0.41640  0.50850  Biso   1.000  H
  H26      1.0000 0.13460  0.91640  0.99150  Biso   1.000  H
  H27      1.0000 0.13460  0.58360  0.49150  Biso   1.000  H
  H28      1.0000 0.86540  0.08360  0.00850  Biso   1.000  H
  C33      1.0000 0.76400  0.49270  0.28720  Biso   1.000  C
  C34      1.0000 0.23600  0.99270  0.21280  Biso   1.000  C
  C35      1.0000 0.23600  0.50730  0.71280  Biso   1.000  C
  C36      1.0000 0.76400  0.00730  0.78720  Biso   1.000  C
