data_image0
_cell_length_a       9.32
_cell_length_b       10.468
_cell_length_c       12.244
_cell_angle_alpha    104.31
_cell_angle_beta     90.01
_cell_angle_gamma    110.9

_symmetry_space_group_name_H-M    "P 1"
_symmetry_int_tables_number       1

loop_
  _symmetry_equiv_pos_as_xyz
  'x, y, z'

loop_
  _atom_site_label
  _atom_site_occupancy
  _atom_site_fract_x
  _atom_site_fract_y
  _atom_site_fract_z
  _atom_site_thermal_displace_type
  _atom_site_B_iso_or_equiv
  _atom_site_type_symbol
  Sb1      1.0000 0.12017  0.37772  0.07725  Biso   1.000  Sb
  Sb2      1.0000 0.87983  0.62228  0.92275  Biso   1.000  Sb
  Cu1      1.0000 0.87810  0.08210  0.80020  Biso   1.000  Cu
  Cu2      1.0000 0.12190  0.91790  0.19980  Biso   1.000  Cu
  C1       1.0000 0.74300  0.08610  0.01140  Biso   1.000  C
  C2       1.0000 0.25700  0.91390  0.98860  Biso   1.000  C
  O1       1.0000 0.86770  0.12480  0.96920  Biso   1.000  O
  O2       1.0000 0.13230  0.87520  0.03080  Biso   1.000  O
  O3       1.0000 0.61960  0.01850  0.95290  Biso   1.000  O
  O4       1.0000 0.38040  0.98150  0.04710  Biso   1.000  O
  C3       1.0000 0.74540  0.11990  0.13740  Biso   1.000  C
  C4       1.0000 0.25460  0.88010  0.86260  Biso   1.000  C
  C5       1.0000 0.90530  0.21370  0.20540  Biso   1.000  C
  C6       1.0000 0.09470  0.78630  0.79460  Biso   1.000  C
  O5       1.0000 0.96040  0.34860  0.18120  Biso   1.000  O
  O6       1.0000 0.03960  0.65140  0.81880  Biso   1.000  O
  C7       1.0000 0.02180  0.14190  0.17400  Biso   1.000  C
  C8       1.0000 0.97820  0.85810  0.82600  Biso   1.000  C
  O7       1.0000 0.13840  0.20060  0.12440  Biso   1.000  O
  O8       1.0000 0.86160  0.79940  0.87560  Biso   1.000  O
  O9       1.0000 0.99480  0.02780  0.19800  Biso   1.000  O
  O10      1.0000 0.00520  0.97220  0.80200  Biso   1.000  O
  C9       1.0000 0.88440  0.23480  0.32980  Biso   1.000  C
  C10      1.0000 0.11560  0.76520  0.67020  Biso   1.000  C
  C11      1.0000 0.03130  0.30160  0.40970  Biso   1.000  C
  C12      1.0000 0.96870  0.69840  0.59030  Biso   1.000  C
  O11      1.0000 0.00030  0.35350  0.51020  Biso   1.000  O
  O12      1.0000 0.99970  0.64650  0.48980  Biso   1.000  O
  O13      1.0000 0.15360  0.30270  0.38450  Biso   1.000  O
  O14      1.0000 0.84640  0.69730  0.61550  Biso   1.000  O
  C13      1.0000 0.40810  0.59490  0.42360  Biso   1.000  C
  C14      1.0000 0.59190  0.40510  0.57640  Biso   1.000  C
  O15      1.0000 0.50430  0.54800  0.38410  Biso   1.000  O
  O16      1.0000 0.49570  0.45200  0.61590  Biso   1.000  O
  O17      1.0000 0.37220  0.60130  0.52810  Biso   1.000  O
  O18      1.0000 0.62780  0.39870  0.47190  Biso   1.000  O
  C15      1.0000 0.31080  0.64560  0.36030  Biso   1.000  C
  C16      1.0000 0.68920  0.35440  0.63970  Biso   1.000  C
  C17      1.0000 0.33540  0.63110  0.23570  Biso   1.000  C
  C18      1.0000 0.66460  0.36890  0.76430  Biso   1.000  C
  O19      1.0000 0.30240  0.48740  0.18170  Biso   1.000  O
  O20      1.0000 0.69760  0.51260  0.81830  Biso   1.000  O
  C19      1.0000 0.21820  0.68070  0.18930  Biso   1.000  C
  C20      1.0000 0.78180  0.31930  0.81070  Biso   1.000  C
  O21      1.0000 0.24330  0.81160  0.22630  Biso   1.000  O
  O22      1.0000 0.75670  0.18840  0.77370  Biso   1.000  O
  O23      1.0000 0.10440  0.59160  0.12310  Biso   1.000  O
  O24      1.0000 0.89560  0.40840  0.87690  Biso   1.000  O
  C21      1.0000 0.49900  0.71970  0.21690  Biso   1.000  C
  C22      1.0000 0.50100  0.28030  0.78310  Biso   1.000  C
  C23      1.0000 0.53820  0.70700  0.09860  Biso   1.000  C
  C24      1.0000 0.46180  0.29300  0.90140  Biso   1.000  C
  O25      1.0000 0.42700  0.67690  0.02830  Biso   1.000  O
  O26      1.0000 0.57300  0.32310  0.97170  Biso   1.000  O
  O27      1.0000 0.66780  0.72980  0.07640  Biso   1.000  O
  O28      1.0000 0.33220  0.27020  0.92360  Biso   1.000  O
  O29      1.0000 0.18490  0.46930  0.71820  Biso   1.000  O
  O30      1.0000 0.81510  0.53070  0.28180  Biso   1.000  O
  O31      1.0000 0.50800  0.67780  0.81810  Biso   1.000  O
  O32      1.0000 0.49200  0.32220  0.18190  Biso   1.000  O
  O33      1.0000 0.70560  0.90320  0.69590  Biso   1.000  O
  O34      1.0000 0.29440  0.09680  0.30410  Biso   1.000  O
  O35      1.0000 0.08090  0.21120  0.75040  Biso   1.000  O
  O36      1.0000 0.91910  0.78880  0.24960  Biso   1.000  O
  O37      1.0000 0.50000  0.00000  0.50000  Biso   1.000  O
  H1       1.0000 0.67600  0.16100  0.15600  Biso   1.000  H
  H2       1.0000 0.32400  0.83900  0.84400  Biso   1.000  H
  H3       1.0000 0.59400  0.97000  0.17800  Biso   1.000  H
  H4       1.0000 0.40600  0.03000  0.82200  Biso   1.000  H
  H5       1.0000 0.82200  0.28600  0.25900  Biso   1.000  H
  H6       1.0000 0.17800  0.71400  0.74100  Biso   1.000  H
  H7       1.0000 0.85800  0.18300  0.33700  Biso   1.000  H
  H8       1.0000 0.14200  0.81700  0.66300  Biso   1.000  H
  H9       1.0000 0.02300  0.36400  0.53500  Biso   1.000  H
  H10      1.0000 0.97700  0.63600  0.46500  Biso   1.000  H
  H11      1.0000 0.36500  0.56000  0.55000  Biso   1.000  H
  H12      1.0000 0.63500  0.44000  0.45000  Biso   1.000  H
  H13      1.0000 0.18500  0.59300  0.34800  Biso   1.000  H
  H14      1.0000 0.81500  0.40700  0.65200  Biso   1.000  H
  H15      1.0000 0.30400  0.71500  0.37900  Biso   1.000  H
  H16      1.0000 0.69600  0.28500  0.62100  Biso   1.000  H
  H17      1.0000 0.52500  0.85600  0.27300  Biso   1.000  H
  H18      1.0000 0.47500  0.14400  0.72700  Biso   1.000  H
  H19      1.0000 0.59000  0.68500  0.26000  Biso   1.000  H
  H20      1.0000 0.41000  0.31500  0.74000  Biso   1.000  H
  H21      1.0000 0.59400  0.74400  0.01100  Biso   1.000  H
  H22      1.0000 0.40600  0.25600  0.98900  Biso   1.000  H
  H23      1.0000 0.14700  0.50800  0.74800  Biso   1.000  H
  H24      1.0000 0.85300  0.49200  0.25200  Biso   1.000  H
  H25      1.0000 0.35000  0.56500  0.75100  Biso   1.000  H
  H26      1.0000 0.65000  0.43500  0.24900  Biso   1.000  H
  H27      1.0000 0.57100  0.76500  0.79800  Biso   1.000  H
  H28      1.0000 0.42900  0.23500  0.20200  Biso   1.000  H
  H29      1.0000 0.54300  0.63200  0.80700  Biso   1.000  H
  H30      1.0000 0.45700  0.36800  0.19300  Biso   1.000  H
  H31      1.0000 0.77000  0.94600  0.65700  Biso   1.000  H
  H32      1.0000 0.23000  0.05400  0.34300  Biso   1.000  H
  H33      1.0000 0.50300  0.73300  0.64300  Biso   1.000  H
  H34      1.0000 0.49700  0.26700  0.35700  Biso   1.000  H
  H35      1.0000 0.99700  0.16700  0.66900  Biso   1.000  H
  H36      1.0000 0.00300  0.83300  0.33100  Biso   1.000  H
  H37      1.0000 0.19800  0.16700  0.75900  Biso   1.000  H
  H38      1.0000 0.80200  0.83300  0.24100  Biso   1.000  H
  H39      1.0000 0.47100  0.96300  0.59400  Biso   1.000  H
  H40      1.0000 0.52900  0.03700  0.40600  Biso   1.000  H
  H41      1.0000 0.38800  0.02600  0.51400  Biso   1.000  H
  H42      1.0000 0.61200  0.97400  0.48600  Biso   1.000  H
