data_image0
_cell_length_a       15.335
_cell_length_b       15.535
_cell_length_c       15.106
_cell_angle_alpha    90
_cell_angle_beta     101.162
_cell_angle_gamma    90

_symmetry_space_group_name_H-M    "P 1"
_symmetry_int_tables_number       1

loop_
  _symmetry_equiv_pos_as_xyz
  'x, y, z'

loop_
  _atom_site_label
  _atom_site_occupancy
  _atom_site_fract_x
  _atom_site_fract_y
  _atom_site_fract_z
  _atom_site_thermal_displace_type
  _atom_site_B_iso_or_equiv
  _atom_site_type_symbol
  Mo1      1.0000 0.00926  0.11236  0.50327  Biso   1.000  Mo
  Mo2      1.0000 0.50926  0.61236  0.50327  Biso   1.000  Mo
  Mo3      1.0000 0.00926  0.88764  0.00327  Biso   1.000  Mo
  Mo4      1.0000 0.50926  0.38764  0.00327  Biso   1.000  Mo
  Mo5      1.0000 0.99074  0.88764  0.49673  Biso   1.000  Mo
  Mo6      1.0000 0.49074  0.38764  0.49673  Biso   1.000  Mo
  Mo7      1.0000 0.99074  0.11236  0.99673  Biso   1.000  Mo
  Mo8      1.0000 0.49074  0.61236  0.99673  Biso   1.000  Mo
  Mo9      1.0000 0.00000  0.11848  0.75000  Biso   1.000  Mo
  Mo10     1.0000 0.50000  0.61848  0.75000  Biso   1.000  Mo
  Mo11     1.0000 0.00000  0.88152  0.25000  Biso   1.000  Mo
  Mo12     1.0000 0.50000  0.38152  0.25000  Biso   1.000  Mo
  Mo13     1.0000 0.00000  0.89037  0.75000  Biso   1.000  Mo
  Mo14     1.0000 0.50000  0.39037  0.75000  Biso   1.000  Mo
  Mo15     1.0000 0.00000  0.10963  0.25000  Biso   1.000  Mo
  Mo16     1.0000 0.50000  0.60963  0.25000  Biso   1.000  Mo
  Mo17     1.0000 0.86386  0.00534  0.59866  Biso   1.000  Mo
  Mo18     1.0000 0.36386  0.50534  0.59866  Biso   1.000  Mo
  Mo19     1.0000 0.86386  0.99466  0.09866  Biso   1.000  Mo
  Mo20     1.0000 0.36386  0.49466  0.09866  Biso   1.000  Mo
  Mo21     1.0000 0.13614  0.99466  0.40134  Biso   1.000  Mo
  Mo22     1.0000 0.63614  0.49466  0.40134  Biso   1.000  Mo
  Mo23     1.0000 0.13614  0.00534  0.90134  Biso   1.000  Mo
  Mo24     1.0000 0.63614  0.50534  0.90134  Biso   1.000  Mo
  Cu1      1.0000 0.84754  0.25119  0.36285  Biso   1.000  Cu
  Cu2      1.0000 0.34754  0.75119  0.36285  Biso   1.000  Cu
  Cu3      1.0000 0.84754  0.74881  0.86285  Biso   1.000  Cu
  Cu4      1.0000 0.34754  0.24881  0.86285  Biso   1.000  Cu
  Cu5      1.0000 0.15246  0.74881  0.63715  Biso   1.000  Cu
  Cu6      1.0000 0.65246  0.24881  0.63715  Biso   1.000  Cu
  Cu7      1.0000 0.15246  0.25119  0.13715  Biso   1.000  Cu
  Cu8      1.0000 0.65246  0.75119  0.13715  Biso   1.000  Cu
  O1       1.0000 0.92469  0.18519  0.45982  Biso   1.000  O
  O2       1.0000 0.42469  0.68519  0.45982  Biso   1.000  O
  O3       1.0000 0.92469  0.81481  0.95982  Biso   1.000  O
  O4       1.0000 0.42469  0.31481  0.95982  Biso   1.000  O
  O5       1.0000 0.07531  0.81481  0.54018  Biso   1.000  O
  O6       1.0000 0.57531  0.31481  0.54018  Biso   1.000  O
  O7       1.0000 0.07531  0.18519  0.04018  Biso   1.000  O
  O8       1.0000 0.57531  0.68519  0.04018  Biso   1.000  O
  O9       1.0000 0.98471  0.09353  0.62060  Biso   1.000  O
  O10      1.0000 0.48471  0.59353  0.62060  Biso   1.000  O
  O11      1.0000 0.98471  0.90647  0.12060  Biso   1.000  O
  O12      1.0000 0.48471  0.40647  0.12060  Biso   1.000  O
  O13      1.0000 0.01529  0.90647  0.37940  Biso   1.000  O
  O14      1.0000 0.51529  0.40647  0.37940  Biso   1.000  O
  O15      1.0000 0.01529  0.09353  0.87940  Biso   1.000  O
  O16      1.0000 0.51529  0.59353  0.87940  Biso   1.000  O
  O17      1.0000 0.02416  0.08775  0.37894  Biso   1.000  O
  O18      1.0000 0.52416  0.58775  0.37894  Biso   1.000  O
  O19      1.0000 0.02416  0.91225  0.87894  Biso   1.000  O
  O20      1.0000 0.52416  0.41225  0.87894  Biso   1.000  O
  O21      1.0000 0.97584  0.91225  0.62106  Biso   1.000  O
  O22      1.0000 0.47584  0.41225  0.62106  Biso   1.000  O
  O23      1.0000 0.97584  0.08775  0.12106  Biso   1.000  O
  O24      1.0000 0.47584  0.58775  0.12106  Biso   1.000  O
  O25      1.0000 0.08749  0.99906  0.51142  Biso   1.000  O
  O26      1.0000 0.58749  0.49906  0.51142  Biso   1.000  O
  O27      1.0000 0.08749  0.00094  0.01142  Biso   1.000  O
  O28      1.0000 0.58749  0.50094  0.01142  Biso   1.000  O
  O29      1.0000 0.91251  0.00094  0.48858  Biso   1.000  O
  O30      1.0000 0.41251  0.50094  0.48858  Biso   1.000  O
  O31      1.0000 0.91251  0.99906  0.98858  Biso   1.000  O
  O32      1.0000 0.41251  0.49906  0.98858  Biso   1.000  O
  O33      1.0000 0.09833  0.17707  0.53537  Biso   1.000  O
  O34      1.0000 0.59833  0.67707  0.53537  Biso   1.000  O
  O35      1.0000 0.09833  0.82293  0.03537  Biso   1.000  O
  O36      1.0000 0.59833  0.32293  0.03537  Biso   1.000  O
  O37      1.0000 0.90167  0.82293  0.46463  Biso   1.000  O
  O38      1.0000 0.40167  0.32293  0.46463  Biso   1.000  O
  O39      1.0000 0.90167  0.17707  0.96463  Biso   1.000  O
  O40      1.0000 0.40167  0.67707  0.96463  Biso   1.000  O
  O41      1.0000 0.08799  0.00431  0.77340  Biso   1.000  O
  O42      1.0000 0.58799  0.50431  0.77340  Biso   1.000  O
  O43      1.0000 0.08799  0.99569  0.27340  Biso   1.000  O
  O44      1.0000 0.58799  0.49569  0.27340  Biso   1.000  O
  O45      1.0000 0.91201  0.99569  0.22660  Biso   1.000  O
  O46      1.0000 0.41201  0.49569  0.22660  Biso   1.000  O
  O47      1.0000 0.91201  0.00431  0.72660  Biso   1.000  O
  O48      1.0000 0.41201  0.50431  0.72660  Biso   1.000  O
  O49      1.0000 0.08794  0.18528  0.75255  Biso   1.000  O
  O50      1.0000 0.58794  0.68528  0.75255  Biso   1.000  O
  O51      1.0000 0.08794  0.81472  0.25255  Biso   1.000  O
  O52      1.0000 0.58794  0.31472  0.25255  Biso   1.000  O
  O53      1.0000 0.91206  0.81472  0.24745  Biso   1.000  O
  O54      1.0000 0.41206  0.31472  0.24745  Biso   1.000  O
  O55      1.0000 0.91206  0.18528  0.74745  Biso   1.000  O
  O56      1.0000 0.41206  0.68528  0.74745  Biso   1.000  O
  O57      1.0000 0.91388  0.82229  0.75929  Biso   1.000  O
  O58      1.0000 0.41388  0.32229  0.75929  Biso   1.000  O
  O59      1.0000 0.91388  0.17771  0.25929  Biso   1.000  O
  O60      1.0000 0.41388  0.67771  0.25929  Biso   1.000  O
  O61      1.0000 0.08612  0.17771  0.24071  Biso   1.000  O
  O62      1.0000 0.58612  0.67771  0.24071  Biso   1.000  O
  O63      1.0000 0.08612  0.82229  0.74071  Biso   1.000  O
  O64      1.0000 0.58612  0.32229  0.74071  Biso   1.000  O
  O65      1.0000 0.80024  0.09646  0.58491  Biso   1.000  O
  O66      1.0000 0.30024  0.59646  0.58491  Biso   1.000  O
  O67      1.0000 0.80024  0.90354  0.08491  Biso   1.000  O
  O68      1.0000 0.30024  0.40354  0.08491  Biso   1.000  O
  O69      1.0000 0.19976  0.90354  0.41509  Biso   1.000  O
  O70      1.0000 0.69976  0.40354  0.41509  Biso   1.000  O
  O71      1.0000 0.19976  0.09646  0.91509  Biso   1.000  O
  O72      1.0000 0.69976  0.59646  0.91509  Biso   1.000  O
  O73      1.0000 0.78787  0.92369  0.58541  Biso   1.000  O
  O74      1.0000 0.28787  0.42369  0.58541  Biso   1.000  O
  O75      1.0000 0.78787  0.07631  0.08541  Biso   1.000  O
  O76      1.0000 0.28787  0.57631  0.08541  Biso   1.000  O
  O77      1.0000 0.21213  0.07631  0.41459  Biso   1.000  O
  O78      1.0000 0.71213  0.57631  0.41459  Biso   1.000  O
  O79      1.0000 0.21213  0.92369  0.91459  Biso   1.000  O
  O80      1.0000 0.71213  0.42369  0.91459  Biso   1.000  O
  O81      1.0000 0.77144  0.31628  0.26480  Biso   1.000  O
  O82      1.0000 0.27144  0.81628  0.26480  Biso   1.000  O
  O83      1.0000 0.77144  0.68372  0.76480  Biso   1.000  O
  O84      1.0000 0.27144  0.18372  0.76480  Biso   1.000  O
  O85      1.0000 0.22856  0.68372  0.73520  Biso   1.000  O
  O86      1.0000 0.72856  0.18372  0.73520  Biso   1.000  O
  O87      1.0000 0.22856  0.31628  0.23520  Biso   1.000  O
  O88      1.0000 0.72856  0.81628  0.23520  Biso   1.000  O
  H1       1.0000 0.71860  0.32200  0.27200  Biso   1.000  H
  H2       1.0000 0.21860  0.82200  0.27200  Biso   1.000  H
  H3       1.0000 0.71860  0.67800  0.77200  Biso   1.000  H
  H4       1.0000 0.21860  0.17800  0.77200  Biso   1.000  H
  H5       1.0000 0.28140  0.67800  0.72800  Biso   1.000  H
  H6       1.0000 0.78140  0.17800  0.72800  Biso   1.000  H
  H7       1.0000 0.28140  0.32200  0.22800  Biso   1.000  H
  H8       1.0000 0.78140  0.82200  0.22800  Biso   1.000  H
  H9       1.0000 0.75900  0.28600  0.21810  Biso   1.000  H
  H10      1.0000 0.25900  0.78600  0.21810  Biso   1.000  H
  H11      1.0000 0.75900  0.71400  0.71810  Biso   1.000  H
  H12      1.0000 0.25900  0.21400  0.71810  Biso   1.000  H
  H13      1.0000 0.24100  0.71400  0.78190  Biso   1.000  H
  H14      1.0000 0.74100  0.21400  0.78190  Biso   1.000  H
  H15      1.0000 0.24100  0.28600  0.28190  Biso   1.000  H
  H16      1.0000 0.74100  0.78600  0.28190  Biso   1.000  H
  N1       1.0000 0.75288  0.16881  0.36830  Biso   1.000  N
  N2       1.0000 0.25288  0.66881  0.36830  Biso   1.000  N
  N3       1.0000 0.75288  0.83119  0.86830  Biso   1.000  N
  N4       1.0000 0.25288  0.33119  0.86830  Biso   1.000  N
  N5       1.0000 0.24712  0.83119  0.63170  Biso   1.000  N
  N6       1.0000 0.74712  0.33119  0.63170  Biso   1.000  N
  N7       1.0000 0.24712  0.16881  0.13170  Biso   1.000  N
  N8       1.0000 0.74712  0.66881  0.13170  Biso   1.000  N
  N9       1.0000 0.43310  0.84747  0.37800  Biso   1.000  N
  N10      1.0000 0.93310  0.34747  0.37800  Biso   1.000  N
  N11      1.0000 0.43310  0.15253  0.87800  Biso   1.000  N
  N12      1.0000 0.93310  0.65253  0.87800  Biso   1.000  N
  N13      1.0000 0.56690  0.15253  0.62200  Biso   1.000  N
  N14      1.0000 0.06690  0.65253  0.62200  Biso   1.000  N
  N15      1.0000 0.56690  0.84747  0.12200  Biso   1.000  N
  N16      1.0000 0.06690  0.34747  0.12200  Biso   1.000  N
  C1       1.0000 0.67870  0.18970  0.39750  Biso   1.000  C
  C2       1.0000 0.17870  0.68970  0.39750  Biso   1.000  C
  C3       1.0000 0.67870  0.81030  0.89750  Biso   1.000  C
  C4       1.0000 0.17870  0.31030  0.89750  Biso   1.000  C
  C5       1.0000 0.32130  0.81030  0.60250  Biso   1.000  C
  C6       1.0000 0.82130  0.31030  0.60250  Biso   1.000  C
  C7       1.0000 0.32130  0.18970  0.10250  Biso   1.000  C
  C8       1.0000 0.82130  0.68970  0.10250  Biso   1.000  C
  H17      1.0000 0.67400  0.25000  0.41200  Biso   1.000  H
  H18      1.0000 0.17400  0.75000  0.41200  Biso   1.000  H
  H19      1.0000 0.67400  0.75000  0.91200  Biso   1.000  H
  H20      1.0000 0.17400  0.25000  0.91200  Biso   1.000  H
  H21      1.0000 0.32600  0.75000  0.58800  Biso   1.000  H
  H22      1.0000 0.82600  0.25000  0.58800  Biso   1.000  H
  H23      1.0000 0.32600  0.25000  0.08800  Biso   1.000  H
  H24      1.0000 0.82600  0.75000  0.08800  Biso   1.000  H
  C9       1.0000 0.61330  0.13060  0.40210  Biso   1.000  C
  C10      1.0000 0.11330  0.63060  0.40210  Biso   1.000  C
  C11      1.0000 0.61330  0.86940  0.90210  Biso   1.000  C
  C12      1.0000 0.11330  0.36940  0.90210  Biso   1.000  C
  C13      1.0000 0.38670  0.86940  0.59790  Biso   1.000  C
  C14      1.0000 0.88670  0.36940  0.59790  Biso   1.000  C
  C15      1.0000 0.38670  0.13060  0.09790  Biso   1.000  C
  C16      1.0000 0.88670  0.63060  0.09790  Biso   1.000  C
  H25      1.0000 0.56600  0.14790  0.41900  Biso   1.000  H
  H26      1.0000 0.06600  0.64790  0.41900  Biso   1.000  H
  H27      1.0000 0.56600  0.85210  0.91900  Biso   1.000  H
  H28      1.0000 0.06600  0.35210  0.91900  Biso   1.000  H
  H29      1.0000 0.43400  0.85210  0.58100  Biso   1.000  H
  H30      1.0000 0.93400  0.35210  0.58100  Biso   1.000  H
  H31      1.0000 0.43400  0.14790  0.08100  Biso   1.000  H
  H32      1.0000 0.93400  0.64790  0.08100  Biso   1.000  H
  C17      1.0000 0.62400  0.04640  0.37830  Biso   1.000  C
  C18      1.0000 0.12400  0.54640  0.37830  Biso   1.000  C
  C19      1.0000 0.62400  0.95360  0.87830  Biso   1.000  C
  C20      1.0000 0.12400  0.45360  0.87830  Biso   1.000  C
  C21      1.0000 0.37600  0.95360  0.62170  Biso   1.000  C
  C22      1.0000 0.87600  0.45360  0.62170  Biso   1.000  C
  C23      1.0000 0.37600  0.04640  0.12170  Biso   1.000  C
  C24      1.0000 0.87600  0.54640  0.12170  Biso   1.000  C
  C25      1.0000 0.70030  0.02590  0.34820  Biso   1.000  C
  C26      1.0000 0.20030  0.52590  0.34820  Biso   1.000  C
  C27      1.0000 0.70030  0.97410  0.84820  Biso   1.000  C
  C28      1.0000 0.20030  0.47410  0.84820  Biso   1.000  C
  C29      1.0000 0.29970  0.97410  0.65180  Biso   1.000  C
  C30      1.0000 0.79970  0.47410  0.65180  Biso   1.000  C
  C31      1.0000 0.29970  0.02590  0.15180  Biso   1.000  C
  C32      1.0000 0.79970  0.52590  0.15180  Biso   1.000  C
  H33      1.0000 0.70900  0.97600  0.33500  Biso   1.000  H
  H34      1.0000 0.20900  0.47600  0.33500  Biso   1.000  H
  H35      1.0000 0.70900  0.02400  0.83500  Biso   1.000  H
  H36      1.0000 0.20900  0.52400  0.83500  Biso   1.000  H
  H37      1.0000 0.29100  0.02400  0.66500  Biso   1.000  H
  H38      1.0000 0.79100  0.52400  0.66500  Biso   1.000  H
  H39      1.0000 0.29100  0.97600  0.16500  Biso   1.000  H
  H40      1.0000 0.79100  0.47600  0.16500  Biso   1.000  H
  C33      1.0000 0.76300  0.08740  0.34400  Biso   1.000  C
  C34      1.0000 0.26300  0.58740  0.34400  Biso   1.000  C
  C35      1.0000 0.76300  0.91260  0.84400  Biso   1.000  C
  C36      1.0000 0.26300  0.41260  0.84400  Biso   1.000  C
  C37      1.0000 0.23700  0.91260  0.65600  Biso   1.000  C
  C38      1.0000 0.73700  0.41260  0.65600  Biso   1.000  C
  C39      1.0000 0.23700  0.08740  0.15600  Biso   1.000  C
  C40      1.0000 0.73700  0.58740  0.15600  Biso   1.000  C
  H41      1.0000 0.81300  0.07500  0.32800  Biso   1.000  H
  H42      1.0000 0.31300  0.57500  0.32800  Biso   1.000  H
  H43      1.0000 0.81300  0.92500  0.82800  Biso   1.000  H
  H44      1.0000 0.31300  0.42500  0.82800  Biso   1.000  H
  H45      1.0000 0.18700  0.92500  0.67200  Biso   1.000  H
  H46      1.0000 0.68700  0.42500  0.67200  Biso   1.000  H
  H47      1.0000 0.18700  0.07500  0.17200  Biso   1.000  H
  H48      1.0000 0.68700  0.57500  0.17200  Biso   1.000  H
  C41      1.0000 0.55570  0.97920  0.38160  Biso   1.000  C
  C42      1.0000 0.05570  0.47920  0.38160  Biso   1.000  C
  C43      1.0000 0.55570  0.02080  0.88160  Biso   1.000  C
  C44      1.0000 0.05570  0.52080  0.88160  Biso   1.000  C
  C45      1.0000 0.44430  0.02080  0.61840  Biso   1.000  C
  C46      1.0000 0.94430  0.52080  0.61840  Biso   1.000  C
  C47      1.0000 0.44430  0.97920  0.11840  Biso   1.000  C
  C48      1.0000 0.94430  0.47920  0.11840  Biso   1.000  C
  C49      1.0000 0.58240  0.89420  0.39270  Biso   1.000  C
  C50      1.0000 0.08240  0.39420  0.39270  Biso   1.000  C
  C51      1.0000 0.58240  0.10580  0.89270  Biso   1.000  C
  C52      1.0000 0.08240  0.60580  0.89270  Biso   1.000  C
  C53      1.0000 0.41760  0.10580  0.60730  Biso   1.000  C
  C54      1.0000 0.91760  0.60580  0.60730  Biso   1.000  C
  C55      1.0000 0.41760  0.89420  0.10730  Biso   1.000  C
  C56      1.0000 0.91760  0.39420  0.10730  Biso   1.000  C
  H49      1.0000 0.64700  0.88200  0.40100  Biso   1.000  H
  H50      1.0000 0.14700  0.38200  0.40100  Biso   1.000  H
  H51      1.0000 0.64700  0.11800  0.90100  Biso   1.000  H
  H52      1.0000 0.14700  0.61800  0.90100  Biso   1.000  H
  H53      1.0000 0.35300  0.11800  0.59900  Biso   1.000  H
  H54      1.0000 0.85300  0.61800  0.59900  Biso   1.000  H
  H55      1.0000 0.35300  0.88200  0.09900  Biso   1.000  H
  H56      1.0000 0.85300  0.38200  0.09900  Biso   1.000  H
  C57      1.0000 0.51930  0.83130  0.38890  Biso   1.000  C
  C58      1.0000 0.01930  0.33130  0.38890  Biso   1.000  C
  C59      1.0000 0.51930  0.16870  0.88890  Biso   1.000  C
  C60      1.0000 0.01930  0.66870  0.88890  Biso   1.000  C
  C61      1.0000 0.48070  0.16870  0.61110  Biso   1.000  C
  C62      1.0000 0.98070  0.66870  0.61110  Biso   1.000  C
  C63      1.0000 0.48070  0.83130  0.11110  Biso   1.000  C
  C64      1.0000 0.98070  0.33130  0.11110  Biso   1.000  C
  H57      1.0000 0.53500  0.77600  0.39800  Biso   1.000  H
  H58      1.0000 0.03500  0.27600  0.39800  Biso   1.000  H
  H59      1.0000 0.53500  0.22400  0.89800  Biso   1.000  H
  H60      1.0000 0.03500  0.72400  0.89800  Biso   1.000  H
  H61      1.0000 0.46500  0.22400  0.60200  Biso   1.000  H
  H62      1.0000 0.96500  0.72400  0.60200  Biso   1.000  H
  H63      1.0000 0.46500  0.77600  0.10200  Biso   1.000  H
  H64      1.0000 0.96500  0.27600  0.10200  Biso   1.000  H
  C65      1.0000 0.40740  0.93010  0.37080  Biso   1.000  C
  C66      1.0000 0.90740  0.43010  0.37080  Biso   1.000  C
  C67      1.0000 0.40740  0.06990  0.87080  Biso   1.000  C
  C68      1.0000 0.90740  0.56990  0.87080  Biso   1.000  C
  C69      1.0000 0.59260  0.06990  0.62920  Biso   1.000  C
  C70      1.0000 0.09260  0.56990  0.62920  Biso   1.000  C
  C71      1.0000 0.59260  0.93010  0.12920  Biso   1.000  C
  C72      1.0000 0.09260  0.43010  0.12920  Biso   1.000  C
  H65      1.0000 0.34600  0.94000  0.36500  Biso   1.000  H
  H66      1.0000 0.84600  0.44000  0.36500  Biso   1.000  H
  H67      1.0000 0.34600  0.06000  0.86500  Biso   1.000  H
  H68      1.0000 0.84600  0.56000  0.86500  Biso   1.000  H
  H69      1.0000 0.65400  0.06000  0.63500  Biso   1.000  H
  H70      1.0000 0.15400  0.56000  0.63500  Biso   1.000  H
  H71      1.0000 0.65400  0.94000  0.13500  Biso   1.000  H
  H72      1.0000 0.15400  0.44000  0.13500  Biso   1.000  H
  C73      1.0000 0.46680  0.99630  0.37260  Biso   1.000  C
  C74      1.0000 0.96680  0.49630  0.37260  Biso   1.000  C
  C75      1.0000 0.46680  0.00370  0.87260  Biso   1.000  C
  C76      1.0000 0.96680  0.50370  0.87260  Biso   1.000  C
  C77      1.0000 0.53320  0.00370  0.62740  Biso   1.000  C
  C78      1.0000 0.03320  0.50370  0.62740  Biso   1.000  C
  C79      1.0000 0.53320  0.99630  0.12740  Biso   1.000  C
  C80      1.0000 0.03320  0.49630  0.12740  Biso   1.000  C
  H73      1.0000 0.44700  0.05000  0.36700  Biso   1.000  H
  H74      1.0000 0.94700  0.55000  0.36700  Biso   1.000  H
  H75      1.0000 0.44700  0.95000  0.86700  Biso   1.000  H
  H76      1.0000 0.94700  0.45000  0.86700  Biso   1.000  H
  H77      1.0000 0.55300  0.95000  0.63300  Biso   1.000  H
  H78      1.0000 0.05300  0.45000  0.63300  Biso   1.000  H
  H79      1.0000 0.55300  0.05000  0.13300  Biso   1.000  H
  H80      1.0000 0.05300  0.55000  0.13300  Biso   1.000  H
  O89      1.0000 0.23560  0.25040  0.39520  Biso   1.000  O
  O90      1.0000 0.73560  0.75040  0.39520  Biso   1.000  O
  O91      1.0000 0.23560  0.74960  0.89520  Biso   1.000  O
  O92      1.0000 0.73560  0.24960  0.89520  Biso   1.000  O
  O93      1.0000 0.76440  0.74960  0.60480  Biso   1.000  O
  O94      1.0000 0.26440  0.24960  0.60480  Biso   1.000  O
  O95      1.0000 0.76440  0.25040  0.10480  Biso   1.000  O
  O96      1.0000 0.26440  0.75040  0.10480  Biso   1.000  O
  H81      1.0000 0.22600  0.19650  0.39800  Biso   1.000  H
  H82      1.0000 0.72600  0.69650  0.39800  Biso   1.000  H
  H83      1.0000 0.22600  0.80350  0.89800  Biso   1.000  H
  H84      1.0000 0.72600  0.30350  0.89800  Biso   1.000  H
  H85      1.0000 0.77400  0.80350  0.60200  Biso   1.000  H
  H86      1.0000 0.27400  0.30350  0.60200  Biso   1.000  H
  H87      1.0000 0.77400  0.19650  0.10200  Biso   1.000  H
  H88      1.0000 0.27400  0.69650  0.10200  Biso   1.000  H
  H89      1.0000 0.28860  0.24000  0.38800  Biso   1.000  H
  H90      1.0000 0.78860  0.74000  0.38800  Biso   1.000  H
  H91      1.0000 0.28860  0.76000  0.88800  Biso   1.000  H
  H92      1.0000 0.78860  0.26000  0.88800  Biso   1.000  H
  H93      1.0000 0.71140  0.76000  0.61200  Biso   1.000  H
  H94      1.0000 0.21140  0.26000  0.61200  Biso   1.000  H
  H95      1.0000 0.71140  0.24000  0.11200  Biso   1.000  H
  H96      1.0000 0.21140  0.74000  0.11200  Biso   1.000  H
