data_image0
_cell_length_a       9.8343
_cell_length_b       10.4632
_cell_length_c       14.321
_cell_angle_alpha    72.07
_cell_angle_beta     89.9
_cell_angle_gamma    80.651

_symmetry_space_group_name_H-M    "P 1"
_symmetry_int_tables_number       1

loop_
  _symmetry_equiv_pos_as_xyz
  'x, y, z'

loop_
  _atom_site_label
  _atom_site_occupancy
  _atom_site_fract_x
  _atom_site_fract_y
  _atom_site_fract_z
  _atom_site_thermal_displace_type
  _atom_site_B_iso_or_equiv
  _atom_site_type_symbol
  Cu1      1.0000 0.23190  0.01432  0.06983  Biso   1.000  Cu
  Cu2      1.0000 0.76810  0.98568  0.93017  Biso   1.000  Cu
  Cu3      1.0000 0.23268  0.01758  0.56558  Biso   1.000  Cu
  Cu4      1.0000 0.76732  0.98242  0.43442  Biso   1.000  Cu
  V1       1.0000 0.03175  0.87931  0.77313  Biso   1.000  V
  V2       1.0000 0.96825  0.12069  0.22687  Biso   1.000  V
  P1       1.0000 0.06250  0.81180  0.00838  Biso   1.000  P
  P2       1.0000 0.93750  0.18820  0.99162  Biso   1.000  P
  P3       1.0000 0.03430  0.80890  0.56571  Biso   1.000  P
  P4       1.0000 0.96570  0.19110  0.43429  Biso   1.000  P
  P5       1.0000 0.09030  0.63710  0.33084  Biso   1.000  P
  P6       1.0000 0.90970  0.36290  0.66916  Biso   1.000  P
  O1       1.0000 0.11220  0.85530  0.90560  Biso   1.000  O
  O2       1.0000 0.88780  0.14470  0.09440  Biso   1.000  O
  O3       1.0000 0.14790  0.85810  0.07670  Biso   1.000  O
  O4       1.0000 0.85210  0.14190  0.92330  Biso   1.000  O
  O5       1.0000 0.10060  0.65170  0.04870  Biso   1.000  O
  O6       1.0000 0.89940  0.34830  0.95130  Biso   1.000  O
  H1       1.0000 0.03100  0.62110  0.07400  Biso   1.000  H
  H2       1.0000 0.96900  0.37890  0.92600  Biso   1.000  H
  O7       1.0000 0.90900  0.85230  0.01390  Biso   1.000  O
  O8       1.0000 0.09100  0.14770  0.98610  Biso   1.000  O
  O9       1.0000 0.97950  0.82480  0.66090  Biso   1.000  O
  O10      1.0000 0.02050  0.17520  0.33910  Biso   1.000  O
  O11      1.0000 0.15220  0.88280  0.52960  Biso   1.000  O
  O12      1.0000 0.84780  0.11720  0.47040  Biso   1.000  O
  O13      1.0000 0.09380  0.64870  0.59100  Biso   1.000  O
  O14      1.0000 0.90620  0.35130  0.40900  Biso   1.000  O
  H3       1.0000 0.11300  0.63600  0.53860  Biso   1.000  H
  H4       1.0000 0.88700  0.36400  0.46140  Biso   1.000  H
  O15      1.0000 0.91890  0.83630  0.48760  Biso   1.000  O
  O16      1.0000 0.08110  0.16370  0.51240  Biso   1.000  O
  O17      1.0000 0.95450  0.73970  0.31210  Biso   1.000  O
  O18      1.0000 0.04550  0.26030  0.68790  Biso   1.000  O
  H5       1.0000 0.96600  0.81600  0.31000  Biso   1.000  H
  H6       1.0000 0.03400  0.18400  0.69000  Biso   1.000  H
  O19      1.0000 0.15020  0.58880  0.43240  Biso   1.000  O
  O20      1.0000 0.84980  0.41120  0.56760  Biso   1.000  O
  O21      1.0000 0.05260  0.52330  0.29480  Biso   1.000  O
  O22      1.0000 0.94740  0.47670  0.70520  Biso   1.000  O
  H7       1.0000 0.00100  0.47900  0.33200  Biso   1.000  H
  H8       1.0000 0.99900  0.52100  0.66800  Biso   1.000  H
  O23      1.0000 0.19830  0.69780  0.25990  Biso   1.000  O
  O24      1.0000 0.80170  0.30220  0.74010  Biso   1.000  O
  H9       1.0000 0.16400  0.76400  0.21500  Biso   1.000  H
  H10      1.0000 0.83600  0.23600  0.78500  Biso   1.000  H
  O25      1.0000 0.98640  0.67270  0.84720  Biso   1.000  O
  O26      1.0000 0.01360  0.32730  0.15280  Biso   1.000  O
  O27      1.0000 0.19370  0.67220  0.80120  Biso   1.000  O
  O28      1.0000 0.80630  0.32780  0.19880  Biso   1.000  O
  O29      1.0000 0.12780  0.47870  0.87850  Biso   1.000  O
  O30      1.0000 0.87220  0.52130  0.12150  Biso   1.000  O
  O31      1.0000 0.88620  0.97080  0.78350  Biso   1.000  O
  O32      1.0000 0.11380  0.02920  0.21650  Biso   1.000  O
  O33      1.0000 0.13420  0.98470  0.71570  Biso   1.000  O
  O34      1.0000 0.86580  0.01530  0.28430  Biso   1.000  O
  N1       1.0000 0.41700  0.89490  0.11530  Biso   1.000  N
  N2       1.0000 0.58300  0.10510  0.88470  Biso   1.000  N
  N3       1.0000 0.34090  0.15130  0.08040  Biso   1.000  N
  N4       1.0000 0.65910  0.84870  0.91960  Biso   1.000  N
  N5       1.0000 0.41090  0.88810  0.61530  Biso   1.000  N
  N6       1.0000 0.58910  0.11190  0.38470  Biso   1.000  N
  N7       1.0000 0.35170  0.15350  0.57940  Biso   1.000  N
  N8       1.0000 0.64830  0.84650  0.42060  Biso   1.000  N
  N9       1.0000 0.10380  0.60400  0.84300  Biso   1.000  N
  N10      1.0000 0.89620  0.39600  0.15700  Biso   1.000  N
  C1       1.0000 0.44930  0.76230  0.12960  Biso   1.000  C
  C2       1.0000 0.55070  0.23770  0.87040  Biso   1.000  C
  H11      1.0000 0.38110  0.71600  0.11840  Biso   1.000  H
  H12      1.0000 0.61890  0.28400  0.88160  Biso   1.000  H
  C3       1.0000 0.57900  0.69050  0.16030  Biso   1.000  C
  C4       1.0000 0.42100  0.30950  0.83970  Biso   1.000  C
  H13      1.0000 0.59760  0.59710  0.17030  Biso   1.000  H
  H14      1.0000 0.40240  0.40290  0.82970  Biso   1.000  H
  C5       1.0000 0.68080  0.75710  0.17620  Biso   1.000  C
  C6       1.0000 0.31920  0.24290  0.82380  Biso   1.000  C
  H15      1.0000 0.76940  0.70980  0.19750  Biso   1.000  H
  H16      1.0000 0.23060  0.29020  0.80250  Biso   1.000  H
  C7       1.0000 0.65060  0.89230  0.16050  Biso   1.000  C
  C8       1.0000 0.34940  0.10770  0.83950  Biso   1.000  C
  H17      1.0000 0.71860  0.94000  0.17000  Biso   1.000  H
  H18      1.0000 0.28140  0.06000  0.83000  Biso   1.000  H
  C9       1.0000 0.51810  0.95970  0.13020  Biso   1.000  C
  C10      1.0000 0.48190  0.04030  0.86980  Biso   1.000  C
  C11      1.0000 0.47300  0.10610  0.11140  Biso   1.000  C
  C12      1.0000 0.52700  0.89390  0.88860  Biso   1.000  C
  C13      1.0000 0.55690  0.19340  0.12130  Biso   1.000  C
  C14      1.0000 0.44310  0.80660  0.87870  Biso   1.000  C
  H19      1.0000 0.64940  0.16060  0.14100  Biso   1.000  H
  H20      1.0000 0.35060  0.83940  0.85900  Biso   1.000  H
  C15      1.0000 0.50530  0.33000  0.10250  Biso   1.000  C
  C16      1.0000 0.49470  0.67000  0.89750  Biso   1.000  C
  H21      1.0000 0.56260  0.38930  0.10960  Biso   1.000  H
  H22      1.0000 0.43740  0.61070  0.89040  Biso   1.000  H
  C17      1.0000 0.36980  0.37740  0.07340  Biso   1.000  C
  C18      1.0000 0.63020  0.62260  0.92660  Biso   1.000  C
  H23      1.0000 0.33140  0.46860  0.06170  Biso   1.000  H
  H24      1.0000 0.66860  0.53140  0.93830  Biso   1.000  H
  C19      1.0000 0.29120  0.28320  0.06200  Biso   1.000  C
  C20      1.0000 0.70880  0.71680  0.93800  Biso   1.000  C
  H25      1.0000 0.19910  0.31420  0.04030  Biso   1.000  H
  H26      1.0000 0.80090  0.68580  0.95970  Biso   1.000  H
  C21      1.0000 0.42980  0.75140  0.63160  Biso   1.000  C
  C22      1.0000 0.57020  0.24860  0.36840  Biso   1.000  C
  H27      1.0000 0.35540  0.71250  0.62010  Biso   1.000  H
  H28      1.0000 0.64460  0.28750  0.37990  Biso   1.000  H
  C23      1.0000 0.55660  0.66680  0.66490  Biso   1.000  C
  C24      1.0000 0.44340  0.33320  0.33510  Biso   1.000  C
  H29      1.0000 0.56780  0.57320  0.67660  Biso   1.000  H
  H30      1.0000 0.43220  0.42680  0.32340  Biso   1.000  H
  C25      1.0000 0.66420  0.72890  0.67970  Biso   1.000  C
  C26      1.0000 0.33580  0.27110  0.32030  Biso   1.000  C
  H31      1.0000 0.75090  0.67650  0.70050  Biso   1.000  H
  H32      1.0000 0.24910  0.32350  0.29950  Biso   1.000  H
  C27      1.0000 0.64510  0.87070  0.66380  Biso   1.000  C
  C28      1.0000 0.35490  0.12930  0.33620  Biso   1.000  C
  H33      1.0000 0.71840  0.91110  0.67510  Biso   1.000  H
  H34      1.0000 0.28160  0.08890  0.32490  Biso   1.000  H
  C29      1.0000 0.51730  0.94910  0.63130  Biso   1.000  C
  C30      1.0000 0.48270  0.05090  0.36870  Biso   1.000  C
  C31      1.0000 0.48410  0.09950  0.61350  Biso   1.000  C
  C32      1.0000 0.51590  0.90050  0.38650  Biso   1.000  C
  C33      1.0000 0.57350  0.18120  0.62690  Biso   1.000  C
  C34      1.0000 0.42650  0.81880  0.37310  Biso   1.000  C
  H35      1.0000 0.66360  0.14270  0.65070  Biso   1.000  H
  H36      1.0000 0.33640  0.85730  0.34930  Biso   1.000  H
  C35      1.0000 0.53150  0.31680  0.60600  Biso   1.000  C
  C36      1.0000 0.46850  0.68320  0.39400  Biso   1.000  C
  H37      1.0000 0.59200  0.37270  0.61410  Biso   1.000  H
  H38      1.0000 0.40800  0.62730  0.38590  Biso   1.000  H
  C37      1.0000 0.40110  0.36880  0.57340  Biso   1.000  C
  C38      1.0000 0.59890  0.63120  0.42660  Biso   1.000  C
  H39      1.0000 0.36980  0.46180  0.55970  Biso   1.000  H
  H40      1.0000 0.63020  0.53820  0.44030  Biso   1.000  H
  C39      1.0000 0.31400  0.28810  0.56020  Biso   1.000  C
  C40      1.0000 0.68600  0.71190  0.43980  Biso   1.000  C
  H41      1.0000 0.22390  0.32760  0.53670  Biso   1.000  H
  H42      1.0000 0.77610  0.67240  0.46330  Biso   1.000  H
