data_image0
_cell_length_a       10.5927
_cell_length_b       12.0359
_cell_length_c       12.1655
_cell_angle_alpha    107.09
_cell_angle_beta     110.399
_cell_angle_gamma    93.876

_symmetry_space_group_name_H-M    "P 1"
_symmetry_int_tables_number       1

loop_
  _symmetry_equiv_pos_as_xyz
  'x, y, z'

loop_
  _atom_site_label
  _atom_site_occupancy
  _atom_site_fract_x
  _atom_site_fract_y
  _atom_site_fract_z
  _atom_site_thermal_displace_type
  _atom_site_B_iso_or_equiv
  _atom_site_type_symbol
  Cu1      1.0000 0.50332  0.53992  0.80732  Biso   1.000  Cu
  Cu2      1.0000 0.49668  0.46008  0.19268  Biso   1.000  Cu
  Cu3      1.0000 0.53761  0.04566  0.32433  Biso   1.000  Cu
  Cu4      1.0000 0.46239  0.95434  0.67567  Biso   1.000  Cu
  V1       1.0000 0.38098  0.73936  0.20562  Biso   1.000  V
  V2       1.0000 0.61902  0.26064  0.79438  Biso   1.000  V
  P1       1.0000 0.31099  0.51393  0.95723  Biso   1.000  P
  P2       1.0000 0.68901  0.48607  0.04277  Biso   1.000  P
  P3       1.0000 0.30809  0.94874  0.39950  Biso   1.000  P
  P4       1.0000 0.69191  0.05126  0.60050  Biso   1.000  P
  O1       1.0000 0.35090  0.64590  0.03390  Biso   1.000  O
  O2       1.0000 0.64910  0.35410  0.96610  Biso   1.000  O
  O3       1.0000 0.36150  0.48630  0.85300  Biso   1.000  O
  O4       1.0000 0.63850  0.51370  0.14700  Biso   1.000  O
  O5       1.0000 0.14810  0.48250  0.88410  Biso   1.000  O
  O6       1.0000 0.85190  0.51750  0.11590  Biso   1.000  O
  H1       1.0000 0.11500  0.46000  0.92700  Biso   1.000  H
  H2       1.0000 0.88500  0.54000  0.07300  Biso   1.000  H
  O7       1.0000 0.34630  0.43900  0.03880  Biso   1.000  O
  O8       1.0000 0.65370  0.56100  0.96120  Biso   1.000  O
  O9       1.0000 0.33030  0.82460  0.34260  Biso   1.000  O
  O10      1.0000 0.66970  0.17540  0.65740  Biso   1.000  O
  O11      1.0000 0.39510  0.04390  0.38610  Biso   1.000  O
  O12      1.0000 0.60490  0.95610  0.61390  Biso   1.000  O
  O13      1.0000 0.15560  0.95670  0.32530  Biso   1.000  O
  O14      1.0000 0.84440  0.04330  0.67470  Biso   1.000  O
  H3       1.0000 0.09800  0.90300  0.31500  Biso   1.000  H
  H4       1.0000 0.90200  0.09700  0.68500  Biso   1.000  H
  O15      1.0000 0.32190  0.97040  0.53270  Biso   1.000  O
  O16      1.0000 0.67810  0.02960  0.46730  Biso   1.000  O
  O17      1.0000 0.16520  0.63670  0.14500  Biso   1.000  O
  O18      1.0000 0.83480  0.36330  0.85500  Biso   1.000  O
  O19      1.0000 0.17780  0.78900  0.08990  Biso   1.000  O
  O20      1.0000 0.82220  0.21100  0.91010  Biso   1.000  O
  O21      1.0000 0.97930  0.68130  0.03780  Biso   1.000  O
  O22      1.0000 0.02070  0.31870  0.96220  Biso   1.000  O
  N1       1.0000 0.36680  0.58270  0.66950  Biso   1.000  N
  N2       1.0000 0.63320  0.41730  0.33050  Biso   1.000  N
  N3       1.0000 0.62780  0.58960  0.73200  Biso   1.000  N
  N4       1.0000 0.37220  0.41040  0.26800  Biso   1.000  N
  N5       1.0000 0.41980  0.09190  0.18250  Biso   1.000  N
  N6       1.0000 0.58020  0.90810  0.81750  Biso   1.000  N
  N7       1.0000 0.67960  0.08490  0.26060  Biso   1.000  N
  N8       1.0000 0.32040  0.91510  0.73940  Biso   1.000  N
  N9       1.0000 0.10420  0.70190  0.08920  Biso   1.000  N
  N10      1.0000 0.89580  0.29810  0.91080  Biso   1.000  N
  C1       1.0000 0.23390  0.57800  0.64510  Biso   1.000  C
  C2       1.0000 0.76610  0.42200  0.35490  Biso   1.000  C
  H5       1.0000 0.19610  0.54660  0.69050  Biso   1.000  H
  H6       1.0000 0.80390  0.45340  0.30950  Biso   1.000  H
  C3       1.0000 0.14950  0.61750  0.55540  Biso   1.000  C
  C4       1.0000 0.85050  0.38250  0.44460  Biso   1.000  C
  H7       1.0000 0.05710  0.61420  0.54170  Biso   1.000  H
  H8       1.0000 0.94290  0.38580  0.45830  Biso   1.000  H
  C5       1.0000 0.20450  0.66190  0.48650  Biso   1.000  C
  C6       1.0000 0.79550  0.33810  0.51350  Biso   1.000  C
  H9       1.0000 0.14950  0.68850  0.42490  Biso   1.000  H
  H10      1.0000 0.85050  0.31150  0.57510  Biso   1.000  H
  C7       1.0000 0.34210  0.66660  0.50990  Biso   1.000  C
  C8       1.0000 0.65790  0.33340  0.49010  Biso   1.000  C
  H11      1.0000 0.38140  0.69590  0.46420  Biso   1.000  H
  H12      1.0000 0.61860  0.30410  0.53580  Biso   1.000  H
  C9       1.0000 0.42070  0.62680  0.60260  Biso   1.000  C
  C10      1.0000 0.57930  0.37320  0.39740  Biso   1.000  C
  C11      1.0000 0.56920  0.62920  0.63650  Biso   1.000  C
  C12      1.0000 0.43080  0.37080  0.36350  Biso   1.000  C
  C13      1.0000 0.64500  0.66880  0.57790  Biso   1.000  C
  C14      1.0000 0.35500  0.33120  0.42210  Biso   1.000  C
  H13      1.0000 0.60390  0.69770  0.51360  Biso   1.000  H
  H14      1.0000 0.39610  0.30230  0.48640  Biso   1.000  H
  C15      1.0000 0.78250  0.66430  0.61720  Biso   1.000  C
  C16      1.0000 0.21750  0.33570  0.38280  Biso   1.000  C
  H15      1.0000 0.83530  0.68940  0.57880  Biso   1.000  H
  H16      1.0000 0.16470  0.31060  0.42120  Biso   1.000  H
  C17      1.0000 0.84200  0.62260  0.71340  Biso   1.000  C
  C18      1.0000 0.15800  0.37740  0.28660  Biso   1.000  C
  H17      1.0000 0.93480  0.61900  0.74070  Biso   1.000  H
  H18      1.0000 0.06520  0.38100  0.25930  Biso   1.000  H
  C19      1.0000 0.76090  0.58640  0.76800  Biso   1.000  C
  C20      1.0000 0.23910  0.41360  0.23200  Biso   1.000  C
  H19      1.0000 0.80100  0.55830  0.83320  Biso   1.000  H
  H20      1.0000 0.19900  0.44170  0.16680  Biso   1.000  H
  C21      1.0000 0.28530  0.08960  0.14600  Biso   1.000  C
  C22      1.0000 0.71470  0.91040  0.85400  Biso   1.000  C
  H21      1.0000 0.23830  0.06150  0.18720  Biso   1.000  H
  H22      1.0000 0.76170  0.93850  0.81280  Biso   1.000  H
  C23      1.0000 0.21300  0.12740  0.04940  Biso   1.000  C
  C24      1.0000 0.78700  0.87260  0.95060  Biso   1.000  C
  H23      1.0000 0.11930  0.12580  0.02710  Biso   1.000  H
  H24      1.0000 0.88070  0.87420  0.97290  Biso   1.000  H
  C25      1.0000 0.28090  0.16720  0.98710  Biso   1.000  C
  C26      1.0000 0.71910  0.83280  0.01290  Biso   1.000  C
  H25      1.0000 0.23390  0.19280  0.92170  Biso   1.000  H
  H26      1.0000 0.76610  0.80720  0.07830  Biso   1.000  H
  C27      1.0000 0.41920  0.16900  0.02210  Biso   1.000  C
  C28      1.0000 0.58080  0.83100  0.97790  Biso   1.000  C
  H27      1.0000 0.46710  0.19610  0.98090  Biso   1.000  H
  H28      1.0000 0.53290  0.80390  0.01910  Biso   1.000  H
  C29      1.0000 0.48660  0.12990  0.11950  Biso   1.000  C
  C30      1.0000 0.51340  0.87010  0.88050  Biso   1.000  C
  C31      1.0000 0.63490  0.12560  0.16450  Biso   1.000  C
  C32      1.0000 0.36510  0.87440  0.83550  Biso   1.000  C
  C33      1.0000 0.72260  0.15730  0.11210  Biso   1.000  C
  C34      1.0000 0.27740  0.84270  0.88790  Biso   1.000  C
  H29      1.0000 0.69040  0.18560  0.04600  Biso   1.000  H
  H30      1.0000 0.30960  0.81440  0.95400  Biso   1.000  H
  C35      1.0000 0.85740  0.14640  0.15900  Biso   1.000  C
  C36      1.0000 0.14260  0.85360  0.84100  Biso   1.000  C
  H31      1.0000 0.91750  0.16750  0.12510  Biso   1.000  H
  H32      1.0000 0.08250  0.83250  0.87490  Biso   1.000  H
  C37      1.0000 0.90270  0.10410  0.25600  Biso   1.000  C
  C38      1.0000 0.09730  0.89590  0.74400  Biso   1.000  C
  H33      1.0000 0.99350  0.09530  0.28820  Biso   1.000  H
  H34      1.0000 0.00650  0.90470  0.71180  Biso   1.000  H
  C39      1.0000 0.81170  0.07510  0.30470  Biso   1.000  C
  C40      1.0000 0.18830  0.92490  0.69530  Biso   1.000  C
  H35      1.0000 0.84300  0.04730  0.37120  Biso   1.000  H
  H36      1.0000 0.15700  0.95270  0.62880  Biso   1.000  H
  O23      1.0000 0.52660  0.34250  0.72470  Biso   1.000  O
  O24      1.0000 0.47340  0.65750  0.27530  Biso   1.000  O
  O25      1.0000 0.48720  0.84890  0.21580  Biso   1.000  O
  O26      1.0000 0.51280  0.15110  0.78420  Biso   1.000  O
  O27      1.0000 0.24040  0.20690  0.60770  Biso   1.000  O
  O28      1.0000 0.75960  0.79310  0.39230  Biso   1.000  O
  H37      1.0000 0.30300  0.24700  0.67500  Biso   1.000  H
  H38      1.0000 0.69700  0.75300  0.32500  Biso   1.000  H
  H39      1.0000 0.26300  0.14200  0.58600  Biso   1.000  H
  H40      1.0000 0.73700  0.85800  0.41400  Biso   1.000  H
  O29      1.0000 0.03690  0.21740  0.69480  Biso   1.000  O
  O30      1.0000 0.96310  0.78260  0.30520  Biso   1.000  O
  H41      1.0000 0.08800  0.20000  0.65700  Biso   1.000  H
  H42      1.0000 0.91200  0.80000  0.34300  Biso   1.000  H
  H43      1.0000 0.06300  0.28600  0.74100  Biso   1.000  H
  H44      1.0000 0.93700  0.71400  0.25900  Biso   1.000  H
