data_image0
_cell_length_a       13.2692
_cell_length_b       9.1898
_cell_length_c       13.5155
_cell_angle_alpha    90
_cell_angle_beta     107.542
_cell_angle_gamma    90

_symmetry_space_group_name_H-M    "P 1"
_symmetry_int_tables_number       1

loop_
  _symmetry_equiv_pos_as_xyz
  'x, y, z'

loop_
  _atom_site_label
  _atom_site_occupancy
  _atom_site_fract_x
  _atom_site_fract_y
  _atom_site_fract_z
  _atom_site_thermal_displace_type
  _atom_site_B_iso_or_equiv
  _atom_site_type_symbol
  Cu1      1.0000 0.25000  0.25000  0.50000  Biso   1.000  Cu
  Cu2      1.0000 0.75000  0.75000  0.50000  Biso   1.000  Cu
  Cu3      1.0000 0.25000  0.75000  0.00000  Biso   1.000  Cu
  Cu4      1.0000 0.75000  0.25000  0.00000  Biso   1.000  Cu
  O1       1.0000 0.37350  0.36730  0.35800  Biso   1.000  O
  O2       1.0000 0.87350  0.86730  0.35800  Biso   1.000  O
  O3       1.0000 0.37350  0.63270  0.85800  Biso   1.000  O
  O4       1.0000 0.87350  0.13270  0.85800  Biso   1.000  O
  O5       1.0000 0.62650  0.63270  0.64200  Biso   1.000  O
  O6       1.0000 0.12650  0.13270  0.64200  Biso   1.000  O
  O7       1.0000 0.62650  0.36730  0.14200  Biso   1.000  O
  O8       1.0000 0.12650  0.86730  0.14200  Biso   1.000  O
  O9       1.0000 0.29720  0.16140  0.38880  Biso   1.000  O
  O10      1.0000 0.79720  0.66140  0.38880  Biso   1.000  O
  O11      1.0000 0.29720  0.83860  0.88880  Biso   1.000  O
  O12      1.0000 0.79720  0.33860  0.88880  Biso   1.000  O
  O13      1.0000 0.70280  0.83860  0.61120  Biso   1.000  O
  O14      1.0000 0.20280  0.33860  0.61120  Biso   1.000  O
  O15      1.0000 0.70280  0.16140  0.11120  Biso   1.000  O
  O16      1.0000 0.20280  0.66140  0.11120  Biso   1.000  O
  O17      1.0000 0.37330  0.46060  0.00640  Biso   1.000  O
  O18      1.0000 0.87330  0.96060  0.00640  Biso   1.000  O
  O19      1.0000 0.37330  0.53940  0.50640  Biso   1.000  O
  O20      1.0000 0.87330  0.03940  0.50640  Biso   1.000  O
  O21      1.0000 0.62670  0.53940  0.99360  Biso   1.000  O
  O22      1.0000 0.12670  0.03940  0.99360  Biso   1.000  O
  O23      1.0000 0.62670  0.46060  0.49360  Biso   1.000  O
  O24      1.0000 0.12670  0.96060  0.49360  Biso   1.000  O
  H1       1.0000 0.37400  0.51000  0.95600  Biso   1.000  H
  H2       1.0000 0.87400  0.01000  0.95600  Biso   1.000  H
  H3       1.0000 0.37400  0.49000  0.45600  Biso   1.000  H
  H4       1.0000 0.87400  0.99000  0.45600  Biso   1.000  H
  H5       1.0000 0.62600  0.49000  0.04400  Biso   1.000  H
  H6       1.0000 0.12600  0.99000  0.04400  Biso   1.000  H
  H7       1.0000 0.62600  0.51000  0.54400  Biso   1.000  H
  H8       1.0000 0.12600  0.01000  0.54400  Biso   1.000  H
  O25      1.0000 0.41820  0.28320  0.91430  Biso   1.000  O
  O26      1.0000 0.91820  0.78320  0.91430  Biso   1.000  O
  O27      1.0000 0.41820  0.71680  0.41430  Biso   1.000  O
  O28      1.0000 0.91820  0.21680  0.41430  Biso   1.000  O
  O29      1.0000 0.58180  0.71680  0.08570  Biso   1.000  O
  O30      1.0000 0.08180  0.21680  0.08570  Biso   1.000  O
  O31      1.0000 0.58180  0.28320  0.58570  Biso   1.000  O
  O32      1.0000 0.08180  0.78320  0.58570  Biso   1.000  O
  O33      1.0000 0.00000  0.09630  0.25000  Biso   1.000  O
  O34      1.0000 0.50000  0.59630  0.25000  Biso   1.000  O
  O35      1.0000 0.00000  0.90370  0.75000  Biso   1.000  O
  O36      1.0000 0.50000  0.40370  0.75000  Biso   1.000  O
  H9       1.0000 0.98300  0.03600  0.29600  Biso   1.000  H
  H10      1.0000 0.48300  0.53600  0.29600  Biso   1.000  H
  H11      1.0000 0.98300  0.96400  0.79600  Biso   1.000  H
  H12      1.0000 0.48300  0.46400  0.79600  Biso   1.000  H
  H13      1.0000 0.01700  0.96400  0.70400  Biso   1.000  H
  H14      1.0000 0.51700  0.46400  0.70400  Biso   1.000  H
  H15      1.0000 0.01700  0.03600  0.20400  Biso   1.000  H
  H16      1.0000 0.51700  0.53600  0.20400  Biso   1.000  H
  N1       1.0000 0.38160  0.82260  0.11090  Biso   1.000  N
  N2       1.0000 0.88160  0.32260  0.11090  Biso   1.000  N
  N3       1.0000 0.38160  0.17740  0.61090  Biso   1.000  N
  N4       1.0000 0.88160  0.67740  0.61090  Biso   1.000  N
  N5       1.0000 0.61840  0.17740  0.88910  Biso   1.000  N
  N6       1.0000 0.11840  0.67740  0.88910  Biso   1.000  N
  N7       1.0000 0.61840  0.82260  0.38910  Biso   1.000  N
  N8       1.0000 0.11840  0.32260  0.38910  Biso   1.000  N
  H17      1.0000 0.39150  0.79370  0.05410  Biso   1.000  H
  H18      1.0000 0.89150  0.29370  0.05410  Biso   1.000  H
  H19      1.0000 0.39150  0.20630  0.55410  Biso   1.000  H
  H20      1.0000 0.89150  0.70630  0.55410  Biso   1.000  H
  H21      1.0000 0.60850  0.20630  0.94590  Biso   1.000  H
  H22      1.0000 0.10850  0.70630  0.94590  Biso   1.000  H
  H23      1.0000 0.60850  0.79370  0.44590  Biso   1.000  H
  H24      1.0000 0.10850  0.29370  0.44590  Biso   1.000  H
  H25      1.0000 0.37410  0.76000  0.15550  Biso   1.000  H
  H26      1.0000 0.87410  0.26000  0.15550  Biso   1.000  H
  H27      1.0000 0.37410  0.24000  0.65550  Biso   1.000  H
  H28      1.0000 0.87410  0.74000  0.65550  Biso   1.000  H
  H29      1.0000 0.62590  0.24000  0.84450  Biso   1.000  H
  H30      1.0000 0.12590  0.74000  0.84450  Biso   1.000  H
  H31      1.0000 0.62590  0.76000  0.34450  Biso   1.000  H
  H32      1.0000 0.12590  0.26000  0.34450  Biso   1.000  H
  C1       1.0000 0.37750  0.97600  0.13160  Biso   1.000  C
  C2       1.0000 0.87750  0.47600  0.13160  Biso   1.000  C
  C3       1.0000 0.37750  0.02400  0.63160  Biso   1.000  C
  C4       1.0000 0.87750  0.52400  0.63160  Biso   1.000  C
  C5       1.0000 0.62250  0.02400  0.86840  Biso   1.000  C
  C6       1.0000 0.12250  0.52400  0.86840  Biso   1.000  C
  C7       1.0000 0.62250  0.97600  0.36840  Biso   1.000  C
  C8       1.0000 0.12250  0.47600  0.36840  Biso   1.000  C
  C9       1.0000 0.39000  0.07370  0.05750  Biso   1.000  C
  C10      1.0000 0.89000  0.57370  0.05750  Biso   1.000  C
  C11      1.0000 0.39000  0.92630  0.55750  Biso   1.000  C
  C12      1.0000 0.89000  0.42630  0.55750  Biso   1.000  C
  C13      1.0000 0.61000  0.92630  0.94250  Biso   1.000  C
  C14      1.0000 0.11000  0.42630  0.94250  Biso   1.000  C
  C15      1.0000 0.61000  0.07370  0.44250  Biso   1.000  C
  C16      1.0000 0.11000  0.57370  0.44250  Biso   1.000  C
  H33      1.0000 0.40390  0.03960  0.99820  Biso   1.000  H
  H34      1.0000 0.90390  0.53960  0.99820  Biso   1.000  H
  H35      1.0000 0.40390  0.96040  0.49820  Biso   1.000  H
  H36      1.0000 0.90390  0.46040  0.49820  Biso   1.000  H
  H37      1.0000 0.59610  0.96040  0.00180  Biso   1.000  H
  H38      1.0000 0.09610  0.46040  0.00180  Biso   1.000  H
  H39      1.0000 0.59610  0.03960  0.50180  Biso   1.000  H
  H40      1.0000 0.09610  0.53960  0.50180  Biso   1.000  H
  C17      1.0000 0.38170  0.22210  0.07240  Biso   1.000  C
  C18      1.0000 0.88170  0.72210  0.07240  Biso   1.000  C
  C19      1.0000 0.38170  0.77790  0.57240  Biso   1.000  C
  C20      1.0000 0.88170  0.27790  0.57240  Biso   1.000  C
  C21      1.0000 0.61830  0.77790  0.92760  Biso   1.000  C
  C22      1.0000 0.11830  0.27790  0.92760  Biso   1.000  C
  C23      1.0000 0.61830  0.22210  0.42760  Biso   1.000  C
  C24      1.0000 0.11830  0.72210  0.42760  Biso   1.000  C
  C25      1.0000 0.36480  0.27420  0.16280  Biso   1.000  C
  C26      1.0000 0.86480  0.77420  0.16280  Biso   1.000  C
  C27      1.0000 0.36480  0.72580  0.66280  Biso   1.000  C
  C28      1.0000 0.86480  0.22580  0.66280  Biso   1.000  C
  C29      1.0000 0.63520  0.72580  0.83720  Biso   1.000  C
  C30      1.0000 0.13520  0.22580  0.83720  Biso   1.000  C
  C31      1.0000 0.63520  0.27420  0.33720  Biso   1.000  C
  C32      1.0000 0.13520  0.77420  0.33720  Biso   1.000  C
  H41      1.0000 0.36000  0.37380  0.17280  Biso   1.000  H
  H42      1.0000 0.86000  0.87380  0.17280  Biso   1.000  H
  H43      1.0000 0.36000  0.62620  0.67280  Biso   1.000  H
  H44      1.0000 0.86000  0.12620  0.67280  Biso   1.000  H
  H45      1.0000 0.64000  0.62620  0.82720  Biso   1.000  H
  H46      1.0000 0.14000  0.12620  0.82720  Biso   1.000  H
  H47      1.0000 0.64000  0.37380  0.32720  Biso   1.000  H
  H48      1.0000 0.14000  0.87380  0.32720  Biso   1.000  H
  C33      1.0000 0.35500  0.17690  0.23790  Biso   1.000  C
  C34      1.0000 0.85500  0.67690  0.23790  Biso   1.000  C
  C35      1.0000 0.35500  0.82310  0.73790  Biso   1.000  C
  C36      1.0000 0.85500  0.32310  0.73790  Biso   1.000  C
  C37      1.0000 0.64500  0.82310  0.76210  Biso   1.000  C
  C38      1.0000 0.14500  0.32310  0.76210  Biso   1.000  C
  C39      1.0000 0.64500  0.17690  0.26210  Biso   1.000  C
  C40      1.0000 0.14500  0.67690  0.26210  Biso   1.000  C
  C41      1.0000 0.35910  0.02660  0.22220  Biso   1.000  C
  C42      1.0000 0.85910  0.52660  0.22220  Biso   1.000  C
  C43      1.0000 0.35910  0.97340  0.72220  Biso   1.000  C
  C44      1.0000 0.85910  0.47340  0.72220  Biso   1.000  C
  C45      1.0000 0.64090  0.97340  0.77780  Biso   1.000  C
  C46      1.0000 0.14090  0.47340  0.77780  Biso   1.000  C
  C47      1.0000 0.64090  0.02660  0.27780  Biso   1.000  C
  C48      1.0000 0.14090  0.52660  0.27780  Biso   1.000  C
  H49      1.0000 0.34970  0.96140  0.27130  Biso   1.000  H
  H50      1.0000 0.84970  0.46140  0.27130  Biso   1.000  H
  H51      1.0000 0.34970  0.03860  0.77130  Biso   1.000  H
  H52      1.0000 0.84970  0.53860  0.77130  Biso   1.000  H
  H53      1.0000 0.65030  0.03860  0.72870  Biso   1.000  H
  H54      1.0000 0.15030  0.53860  0.72870  Biso   1.000  H
  H55      1.0000 0.65030  0.96140  0.22870  Biso   1.000  H
  H56      1.0000 0.15030  0.46140  0.22870  Biso   1.000  H
  C49      1.0000 0.39310  0.32370  0.98930  Biso   1.000  C
  C50      1.0000 0.89310  0.82370  0.98930  Biso   1.000  C
  C51      1.0000 0.39310  0.67630  0.48930  Biso   1.000  C
  C52      1.0000 0.89310  0.17630  0.48930  Biso   1.000  C
  C53      1.0000 0.60690  0.67630  0.01070  Biso   1.000  C
  C54      1.0000 0.10690  0.17630  0.01070  Biso   1.000  C
  C55      1.0000 0.60690  0.32370  0.51070  Biso   1.000  C
  C56      1.0000 0.10690  0.82370  0.51070  Biso   1.000  C
  C57      1.0000 0.34120  0.24000  0.33570  Biso   1.000  C
  C58      1.0000 0.84120  0.74000  0.33570  Biso   1.000  C
  C59      1.0000 0.34120  0.76000  0.83570  Biso   1.000  C
  C60      1.0000 0.84120  0.26000  0.83570  Biso   1.000  C
  C61      1.0000 0.65880  0.76000  0.66430  Biso   1.000  C
  C62      1.0000 0.15880  0.26000  0.66430  Biso   1.000  C
  C63      1.0000 0.65880  0.24000  0.16430  Biso   1.000  C
  C64      1.0000 0.15880  0.74000  0.16430  Biso   1.000  C
