data_image0
_cell_length_a       18.205
_cell_length_b       7.2185
_cell_length_c       14.766
_cell_angle_alpha    90
_cell_angle_beta     102.73
_cell_angle_gamma    90

_symmetry_space_group_name_H-M    "P 1"
_symmetry_int_tables_number       1

loop_
  _symmetry_equiv_pos_as_xyz
  'x, y, z'

loop_
  _atom_site_label
  _atom_site_occupancy
  _atom_site_fract_x
  _atom_site_fract_y
  _atom_site_fract_z
  _atom_site_thermal_displace_type
  _atom_site_B_iso_or_equiv
  _atom_site_type_symbol
  Cu1      1.0000 0.00000  0.38666  0.25000  Biso   1.000  Cu
  Cu2      1.0000 0.50000  0.88666  0.25000  Biso   1.000  Cu
  Cu3      1.0000 0.00000  0.61334  0.75000  Biso   1.000  Cu
  Cu4      1.0000 0.50000  0.11334  0.75000  Biso   1.000  Cu
  N1       1.0000 0.12330  0.38190  0.20479  Biso   1.000  N
  N2       1.0000 0.62330  0.88190  0.20479  Biso   1.000  N
  N3       1.0000 0.12330  0.61810  0.70479  Biso   1.000  N
  N4       1.0000 0.62330  0.11810  0.70479  Biso   1.000  N
  N5       1.0000 0.87670  0.61810  0.79521  Biso   1.000  N
  N6       1.0000 0.37670  0.11810  0.79521  Biso   1.000  N
  N7       1.0000 0.87670  0.38190  0.29521  Biso   1.000  N
  N8       1.0000 0.37670  0.88190  0.29521  Biso   1.000  N
  N9       1.0000 0.25147  0.37240  0.12576  Biso   1.000  N
  N10      1.0000 0.75147  0.87240  0.12576  Biso   1.000  N
  N11      1.0000 0.25147  0.62760  0.62576  Biso   1.000  N
  N12      1.0000 0.75147  0.12760  0.62576  Biso   1.000  N
  N13      1.0000 0.74853  0.62760  0.87424  Biso   1.000  N
  N14      1.0000 0.24853  0.12760  0.87424  Biso   1.000  N
  N15      1.0000 0.74853  0.37240  0.37424  Biso   1.000  N
  N16      1.0000 0.24853  0.87240  0.37424  Biso   1.000  N
  N17      1.0000 0.96902  0.58760  0.15554  Biso   1.000  N
  N18      1.0000 0.46902  0.08760  0.15554  Biso   1.000  N
  N19      1.0000 0.96902  0.41240  0.65554  Biso   1.000  N
  N20      1.0000 0.46902  0.91240  0.65554  Biso   1.000  N
  N21      1.0000 0.03098  0.41240  0.84446  Biso   1.000  N
  N22      1.0000 0.53098  0.91240  0.84446  Biso   1.000  N
  N23      1.0000 0.03098  0.58760  0.34446  Biso   1.000  N
  N24      1.0000 0.53098  0.08760  0.34446  Biso   1.000  N
  N25      1.0000 0.95479  0.88710  0.07737  Biso   1.000  N
  N26      1.0000 0.45479  0.38710  0.07737  Biso   1.000  N
  N27      1.0000 0.95479  0.11290  0.57737  Biso   1.000  N
  N28      1.0000 0.45479  0.61290  0.57737  Biso   1.000  N
  N29      1.0000 0.04521  0.11290  0.92263  Biso   1.000  N
  N30      1.0000 0.54521  0.61290  0.92263  Biso   1.000  N
  N31      1.0000 0.04521  0.88710  0.42263  Biso   1.000  N
  N32      1.0000 0.54521  0.38710  0.42263  Biso   1.000  N
  N33      1.0000 0.96787  0.18690  0.15542  Biso   1.000  N
  N34      1.0000 0.46787  0.68690  0.15542  Biso   1.000  N
  N35      1.0000 0.96787  0.81310  0.65542  Biso   1.000  N
  N36      1.0000 0.46787  0.31310  0.65542  Biso   1.000  N
  N37      1.0000 0.03213  0.81310  0.84458  Biso   1.000  N
  N38      1.0000 0.53213  0.31310  0.84458  Biso   1.000  N
  N39      1.0000 0.03213  0.18690  0.34458  Biso   1.000  N
  N40      1.0000 0.53213  0.68690  0.34458  Biso   1.000  N
  C1       1.0000 0.19513  0.38250  0.25919  Biso   1.000  C
  C2       1.0000 0.69513  0.88250  0.25919  Biso   1.000  C
  C3       1.0000 0.19513  0.61750  0.75919  Biso   1.000  C
  C4       1.0000 0.69513  0.11750  0.75919  Biso   1.000  C
  C5       1.0000 0.80487  0.61750  0.74081  Biso   1.000  C
  C6       1.0000 0.30487  0.11750  0.74081  Biso   1.000  C
  C7       1.0000 0.80487  0.38250  0.24081  Biso   1.000  C
  C8       1.0000 0.30487  0.88250  0.24081  Biso   1.000  C
  C9       1.0000 0.20550  0.38850  0.35657  Biso   1.000  C
  C10      1.0000 0.70550  0.88850  0.35657  Biso   1.000  C
  C11      1.0000 0.20550  0.61150  0.85657  Biso   1.000  C
  C12      1.0000 0.70550  0.11150  0.85657  Biso   1.000  C
  C13      1.0000 0.79450  0.61150  0.64343  Biso   1.000  C
  C14      1.0000 0.29450  0.11150  0.64343  Biso   1.000  C
  C15      1.0000 0.79450  0.38850  0.14343  Biso   1.000  C
  C16      1.0000 0.29450  0.88850  0.14343  Biso   1.000  C
  H1       1.0000 0.16410  0.38920  0.38390  Biso   1.000  H
  H2       1.0000 0.66410  0.88920  0.38390  Biso   1.000  H
  H3       1.0000 0.16410  0.61080  0.88390  Biso   1.000  H
  H4       1.0000 0.66410  0.11080  0.88390  Biso   1.000  H
  H5       1.0000 0.83590  0.61080  0.61610  Biso   1.000  H
  H6       1.0000 0.33590  0.11080  0.61610  Biso   1.000  H
  H7       1.0000 0.83590  0.38920  0.11610  Biso   1.000  H
  H8       1.0000 0.33590  0.88920  0.11610  Biso   1.000  H
  C17      1.0000 0.27632  0.39320  0.41020  Biso   1.000  C
  C18      1.0000 0.77632  0.89320  0.41020  Biso   1.000  C
  C19      1.0000 0.27632  0.60680  0.91020  Biso   1.000  C
  C20      1.0000 0.77632  0.10680  0.91020  Biso   1.000  C
  C21      1.0000 0.72368  0.60680  0.58980  Biso   1.000  C
  C22      1.0000 0.22368  0.10680  0.58980  Biso   1.000  C
  C23      1.0000 0.72368  0.39320  0.08980  Biso   1.000  C
  C24      1.0000 0.22368  0.89320  0.08980  Biso   1.000  C
  H9       1.0000 0.28310  0.39850  0.47450  Biso   1.000  H
  H10      1.0000 0.78310  0.89850  0.47450  Biso   1.000  H
  H11      1.0000 0.28310  0.60150  0.97450  Biso   1.000  H
  H12      1.0000 0.78310  0.10150  0.97450  Biso   1.000  H
  H13      1.0000 0.71690  0.60150  0.52550  Biso   1.000  H
  H14      1.0000 0.21690  0.10150  0.52550  Biso   1.000  H
  H15      1.0000 0.71690  0.39850  0.02550  Biso   1.000  H
  H16      1.0000 0.21690  0.89850  0.02550  Biso   1.000  H
  C25      1.0000 0.33900  0.39020  0.37070  Biso   1.000  C
  C26      1.0000 0.83900  0.89020  0.37070  Biso   1.000  C
  C27      1.0000 0.33900  0.60980  0.87070  Biso   1.000  C
  C28      1.0000 0.83900  0.10980  0.87070  Biso   1.000  C
  C29      1.0000 0.66100  0.60980  0.62930  Biso   1.000  C
  C30      1.0000 0.16100  0.10980  0.62930  Biso   1.000  C
  C31      1.0000 0.66100  0.39020  0.12930  Biso   1.000  C
  C32      1.0000 0.16100  0.89020  0.12930  Biso   1.000  C
  H17      1.0000 0.38700  0.39340  0.40880  Biso   1.000  H
  H18      1.0000 0.88700  0.89340  0.40880  Biso   1.000  H
  H19      1.0000 0.38700  0.60660  0.90880  Biso   1.000  H
  H20      1.0000 0.88700  0.10660  0.90880  Biso   1.000  H
  H21      1.0000 0.61300  0.60660  0.59120  Biso   1.000  H
  H22      1.0000 0.11300  0.10660  0.59120  Biso   1.000  H
  H23      1.0000 0.61300  0.39340  0.09120  Biso   1.000  H
  H24      1.0000 0.11300  0.89340  0.09120  Biso   1.000  H
  C33      1.0000 0.33070  0.38260  0.27740  Biso   1.000  C
  C34      1.0000 0.83070  0.88260  0.27740  Biso   1.000  C
  C35      1.0000 0.33070  0.61740  0.77740  Biso   1.000  C
  C36      1.0000 0.83070  0.11740  0.77740  Biso   1.000  C
  C37      1.0000 0.66930  0.61740  0.72260  Biso   1.000  C
  C38      1.0000 0.16930  0.11740  0.72260  Biso   1.000  C
  C39      1.0000 0.66930  0.38260  0.22260  Biso   1.000  C
  C40      1.0000 0.16930  0.88260  0.22260  Biso   1.000  C
  H25      1.0000 0.37300  0.37970  0.25170  Biso   1.000  H
  H26      1.0000 0.87300  0.87970  0.25170  Biso   1.000  H
  H27      1.0000 0.37300  0.62030  0.75170  Biso   1.000  H
  H28      1.0000 0.87300  0.12030  0.75170  Biso   1.000  H
  H29      1.0000 0.62700  0.62030  0.74830  Biso   1.000  H
  H30      1.0000 0.12700  0.12030  0.74830  Biso   1.000  H
  H31      1.0000 0.62700  0.37970  0.24830  Biso   1.000  H
  H32      1.0000 0.12700  0.87970  0.24830  Biso   1.000  H
  C41      1.0000 0.25879  0.37900  0.21960  Biso   1.000  C
  C42      1.0000 0.75879  0.87900  0.21960  Biso   1.000  C
  C43      1.0000 0.25879  0.62100  0.71960  Biso   1.000  C
  C44      1.0000 0.75879  0.12100  0.71960  Biso   1.000  C
  C45      1.0000 0.74121  0.62100  0.78040  Biso   1.000  C
  C46      1.0000 0.24121  0.12100  0.78040  Biso   1.000  C
  C47      1.0000 0.74121  0.37900  0.28040  Biso   1.000  C
  C48      1.0000 0.24121  0.87900  0.28040  Biso   1.000  C
  C49      1.0000 0.18290  0.36930  0.07640  Biso   1.000  C
  C50      1.0000 0.68290  0.86930  0.07640  Biso   1.000  C
  C51      1.0000 0.18290  0.63070  0.57640  Biso   1.000  C
  C52      1.0000 0.68290  0.13070  0.57640  Biso   1.000  C
  C53      1.0000 0.81710  0.63070  0.92360  Biso   1.000  C
  C54      1.0000 0.31710  0.13070  0.92360  Biso   1.000  C
  C55      1.0000 0.81710  0.36930  0.42360  Biso   1.000  C
  C56      1.0000 0.31710  0.86930  0.42360  Biso   1.000  C
  H33      1.0000 0.17570  0.36250  0.01220  Biso   1.000  H
  H34      1.0000 0.67570  0.86250  0.01220  Biso   1.000  H
  H35      1.0000 0.17570  0.63750  0.51220  Biso   1.000  H
  H36      1.0000 0.67570  0.13750  0.51220  Biso   1.000  H
  H37      1.0000 0.82430  0.63750  0.98780  Biso   1.000  H
  H38      1.0000 0.32430  0.13750  0.98780  Biso   1.000  H
  H39      1.0000 0.82430  0.36250  0.48780  Biso   1.000  H
  H40      1.0000 0.32430  0.86250  0.48780  Biso   1.000  H
  C57      1.0000 0.11951  0.37560  0.11520  Biso   1.000  C
  C58      1.0000 0.61951  0.87560  0.11520  Biso   1.000  C
  C59      1.0000 0.11951  0.62440  0.61520  Biso   1.000  C
  C60      1.0000 0.61951  0.12440  0.61520  Biso   1.000  C
  C61      1.0000 0.88049  0.62440  0.88480  Biso   1.000  C
  C62      1.0000 0.38049  0.12440  0.88480  Biso   1.000  C
  C63      1.0000 0.88049  0.37560  0.38480  Biso   1.000  C
  C64      1.0000 0.38049  0.87560  0.38480  Biso   1.000  C
  H41      1.0000 0.07220  0.37540  0.07530  Biso   1.000  H
  H42      1.0000 0.57220  0.87540  0.07530  Biso   1.000  H
  H43      1.0000 0.07220  0.62460  0.57530  Biso   1.000  H
  H44      1.0000 0.57220  0.12460  0.57530  Biso   1.000  H
  H45      1.0000 0.92780  0.62460  0.92470  Biso   1.000  H
  H46      1.0000 0.42780  0.12460  0.92470  Biso   1.000  H
  H47      1.0000 0.92780  0.37540  0.42470  Biso   1.000  H
  H48      1.0000 0.42780  0.87540  0.42470  Biso   1.000  H
  C65      1.0000 0.96291  0.73170  0.12296  Biso   1.000  C
  C66      1.0000 0.46291  0.23170  0.12296  Biso   1.000  C
  C67      1.0000 0.96291  0.26830  0.62296  Biso   1.000  C
  C68      1.0000 0.46291  0.76830  0.62296  Biso   1.000  C
  C69      1.0000 0.03709  0.26830  0.87704  Biso   1.000  C
  C70      1.0000 0.53709  0.76830  0.87704  Biso   1.000  C
  C71      1.0000 0.03709  0.73170  0.37704  Biso   1.000  C
  C72      1.0000 0.53709  0.23170  0.37704  Biso   1.000  C
  C73      1.0000 0.96210  0.04390  0.12180  Biso   1.000  C
  C74      1.0000 0.46210  0.54390  0.12180  Biso   1.000  C
  C75      1.0000 0.96210  0.95610  0.62180  Biso   1.000  C
  C76      1.0000 0.46210  0.45610  0.62180  Biso   1.000  C
  C77      1.0000 0.03790  0.95610  0.87820  Biso   1.000  C
  C78      1.0000 0.53790  0.45610  0.87820  Biso   1.000  C
  C79      1.0000 0.03790  0.04390  0.37820  Biso   1.000  C
  C80      1.0000 0.53790  0.54390  0.37820  Biso   1.000  C
