data_image0
_cell_length_a       9.733
_cell_length_b       6.725
_cell_length_c       17.066
_cell_angle_alpha    90
_cell_angle_beta     102.922
_cell_angle_gamma    90

_symmetry_space_group_name_H-M    "P 1"
_symmetry_int_tables_number       1

loop_
  _symmetry_equiv_pos_as_xyz
  'x, y, z'

loop_
  _atom_site_label
  _atom_site_occupancy
  _atom_site_fract_x
  _atom_site_fract_y
  _atom_site_fract_z
  _atom_site_thermal_displace_type
  _atom_site_B_iso_or_equiv
  _atom_site_type_symbol
  Br1      1.0000 0.86722  0.73773  0.06619  Biso   1.000  Br
  Br2      1.0000 0.86722  0.76227  0.56619  Biso   1.000  Br
  Br3      1.0000 0.13278  0.26227  0.93381  Biso   1.000  Br
  Br4      1.0000 0.13278  0.23773  0.43381  Biso   1.000  Br
  Cu1      1.0000 0.02403  0.99024  0.11973  Biso   1.000  Cu
  Cu2      1.0000 0.02403  0.50976  0.61973  Biso   1.000  Cu
  Cu3      1.0000 0.97597  0.00976  0.88027  Biso   1.000  Cu
  Cu4      1.0000 0.97597  0.49024  0.38027  Biso   1.000  Cu
  O1       1.0000 0.14440  0.23470  0.14930  Biso   1.000  O
  O2       1.0000 0.14440  0.26530  0.64930  Biso   1.000  O
  O3       1.0000 0.85560  0.76530  0.85070  Biso   1.000  O
  O4       1.0000 0.85560  0.73470  0.35070  Biso   1.000  O
  O5       1.0000 0.88540  0.38860  0.25070  Biso   1.000  O
  O6       1.0000 0.88540  0.11140  0.75070  Biso   1.000  O
  O7       1.0000 0.11460  0.61140  0.74930  Biso   1.000  O
  O8       1.0000 0.11460  0.88860  0.24930  Biso   1.000  O
  O9       1.0000 0.89240  0.16500  0.15550  Biso   1.000  O
  O10      1.0000 0.89240  0.33500  0.65550  Biso   1.000  O
  O11      1.0000 0.10760  0.83500  0.84450  Biso   1.000  O
  O12      1.0000 0.10760  0.66500  0.34450  Biso   1.000  O
  N1       1.0000 0.19620  0.89610  0.08790  Biso   1.000  N
  N2       1.0000 0.19620  0.60390  0.58790  Biso   1.000  N
  N3       1.0000 0.80380  0.10390  0.91210  Biso   1.000  N
  N4       1.0000 0.80380  0.39610  0.41210  Biso   1.000  N
  C1       1.0000 0.21570  0.73070  0.04920  Biso   1.000  C
  C2       1.0000 0.21570  0.76930  0.54920  Biso   1.000  C
  C3       1.0000 0.78430  0.26930  0.95080  Biso   1.000  C
  C4       1.0000 0.78430  0.23070  0.45080  Biso   1.000  C
  H1       1.0000 0.13790  0.64480  0.03010  Biso   1.000  H
  H2       1.0000 0.13790  0.85520  0.53010  Biso   1.000  H
  H3       1.0000 0.86210  0.35520  0.96990  Biso   1.000  H
  H4       1.0000 0.86210  0.14480  0.46990  Biso   1.000  H
  C5       1.0000 0.34910  0.67930  0.03580  Biso   1.000  C
  C6       1.0000 0.34910  0.82070  0.53580  Biso   1.000  C
  C7       1.0000 0.65090  0.32070  0.96420  Biso   1.000  C
  C8       1.0000 0.65090  0.17930  0.46420  Biso   1.000  C
  H5       1.0000 0.35910  0.56270  0.00620  Biso   1.000  H
  H6       1.0000 0.35910  0.93730  0.50620  Biso   1.000  H
  H7       1.0000 0.64090  0.43730  0.99380  Biso   1.000  H
  H8       1.0000 0.64090  0.06270  0.49380  Biso   1.000  H
  C9       1.0000 0.46280  0.79490  0.06480  Biso   1.000  C
  C10      1.0000 0.46280  0.70510  0.56480  Biso   1.000  C
  C11      1.0000 0.53720  0.20510  0.93520  Biso   1.000  C
  C12      1.0000 0.53720  0.29490  0.43520  Biso   1.000  C
  H9       1.0000 0.55310  0.75610  0.05780  Biso   1.000  H
  H10      1.0000 0.55310  0.74390  0.55780  Biso   1.000  H
  H11      1.0000 0.44690  0.24390  0.94220  Biso   1.000  H
  H12      1.0000 0.44690  0.25610  0.44220  Biso   1.000  H
  C13      1.0000 0.44700  0.97480  0.10570  Biso   1.000  C
  C14      1.0000 0.44700  0.52520  0.60570  Biso   1.000  C
  C15      1.0000 0.55300  0.02520  0.89430  Biso   1.000  C
  C16      1.0000 0.55300  0.47480  0.39430  Biso   1.000  C
  C17      1.0000 0.55780  0.10990  0.13750  Biso   1.000  C
  C18      1.0000 0.55780  0.39010  0.63750  Biso   1.000  C
  C19      1.0000 0.44220  0.89010  0.86250  Biso   1.000  C
  C20      1.0000 0.44220  0.60990  0.36250  Biso   1.000  C
  H13      1.0000 0.65080  0.08240  0.13190  Biso   1.000  H
  H14      1.0000 0.65080  0.41760  0.63190  Biso   1.000  H
  H15      1.0000 0.34920  0.91760  0.86810  Biso   1.000  H
  H16      1.0000 0.34920  0.58240  0.36810  Biso   1.000  H
  C21      1.0000 0.53180  0.27730  0.17570  Biso   1.000  C
  C22      1.0000 0.53180  0.22270  0.67570  Biso   1.000  C
  C23      1.0000 0.46820  0.72270  0.82430  Biso   1.000  C
  C24      1.0000 0.46820  0.77730  0.32430  Biso   1.000  C
  H17      1.0000 0.60770  0.36350  0.19810  Biso   1.000  H
  H18      1.0000 0.60770  0.13650  0.69810  Biso   1.000  H
  H19      1.0000 0.39230  0.63650  0.80190  Biso   1.000  H
  H20      1.0000 0.39230  0.86350  0.30190  Biso   1.000  H
  C25      1.0000 0.39230  0.32750  0.18320  Biso   1.000  C
  C26      1.0000 0.39230  0.17250  0.68320  Biso   1.000  C
  C27      1.0000 0.60770  0.67250  0.81680  Biso   1.000  C
  C28      1.0000 0.60770  0.82750  0.31680  Biso   1.000  C
  H21      1.0000 0.37470  0.44670  0.20920  Biso   1.000  H
  H22      1.0000 0.37470  0.05330  0.70920  Biso   1.000  H
  H23      1.0000 0.62530  0.55330  0.79080  Biso   1.000  H
  H24      1.0000 0.62530  0.94670  0.29080  Biso   1.000  H
  C29      1.0000 0.28600  0.20020  0.15210  Biso   1.000  C
  C30      1.0000 0.28600  0.29980  0.65210  Biso   1.000  C
  C31      1.0000 0.71400  0.79980  0.84790  Biso   1.000  C
  C32      1.0000 0.71400  0.70020  0.34790  Biso   1.000  C
  C33      1.0000 0.31000  0.02100  0.11500  Biso   1.000  C
  C34      1.0000 0.31000  0.47900  0.61500  Biso   1.000  C
  C35      1.0000 0.69000  0.97900  0.88500  Biso   1.000  C
  C36      1.0000 0.69000  0.52100  0.38500  Biso   1.000  C
  C37      1.0000 0.10230  0.35340  0.20970  Biso   1.000  C
  C38      1.0000 0.10230  0.14660  0.70970  Biso   1.000  C
  C39      1.0000 0.89770  0.64660  0.79030  Biso   1.000  C
  C40      1.0000 0.89770  0.85340  0.29030  Biso   1.000  C
  H25      1.0000 0.11390  0.49650  0.19930  Biso   1.000  H
  H26      1.0000 0.11390  0.00350  0.69930  Biso   1.000  H
  H27      1.0000 0.88610  0.50350  0.80070  Biso   1.000  H
  H28      1.0000 0.88610  0.99650  0.30070  Biso   1.000  H
  H29      1.0000 0.16020  0.32060  0.26360  Biso   1.000  H
  H30      1.0000 0.16020  0.17940  0.76360  Biso   1.000  H
  H31      1.0000 0.83980  0.67940  0.73640  Biso   1.000  H
  H32      1.0000 0.83980  0.82060  0.23640  Biso   1.000  H
  C41      1.0000 0.94460  0.30440  0.20520  Biso   1.000  C
  C42      1.0000 0.94460  0.19560  0.70520  Biso   1.000  C
  C43      1.0000 0.05540  0.69560  0.79480  Biso   1.000  C
  C44      1.0000 0.05540  0.80440  0.29480  Biso   1.000  C
