data_image0
_cell_length_a       9.554
_cell_length_b       15.4561
_cell_length_c       18.4412
_cell_angle_alpha    90
_cell_angle_beta     90
_cell_angle_gamma    90

_symmetry_space_group_name_H-M    "P 1"
_symmetry_int_tables_number       1

loop_
  _symmetry_equiv_pos_as_xyz
  'x, y, z'

loop_
  _atom_site_label
  _atom_site_occupancy
  _atom_site_fract_x
  _atom_site_fract_y
  _atom_site_fract_z
  _atom_site_thermal_displace_type
  _atom_site_B_iso_or_equiv
  _atom_site_type_symbol
  Cu1      1.0000 0.21624  0.87513  0.34246  Biso   1.000  Cu
  Cu2      1.0000 0.71624  0.87513  0.15754  Biso   1.000  Cu
  Cu3      1.0000 0.21624  0.62487  0.84246  Biso   1.000  Cu
  Cu4      1.0000 0.28376  0.37513  0.34246  Biso   1.000  Cu
  Cu5      1.0000 0.78376  0.12487  0.65754  Biso   1.000  Cu
  Cu6      1.0000 0.28376  0.12487  0.84246  Biso   1.000  Cu
  Cu7      1.0000 0.78376  0.37513  0.15754  Biso   1.000  Cu
  Cu8      1.0000 0.71624  0.62487  0.65754  Biso   1.000  Cu
  Cl1      1.0000 0.20368  0.71854  0.31943  Biso   1.000  Cl
  Cl2      1.0000 0.70368  0.71854  0.18057  Biso   1.000  Cl
  Cl3      1.0000 0.20368  0.78146  0.81943  Biso   1.000  Cl
  Cl4      1.0000 0.29632  0.21854  0.31943  Biso   1.000  Cl
  Cl5      1.0000 0.79632  0.28146  0.68057  Biso   1.000  Cl
  Cl6      1.0000 0.29632  0.28146  0.81943  Biso   1.000  Cl
  Cl7      1.0000 0.79632  0.21854  0.18057  Biso   1.000  Cl
  Cl8      1.0000 0.70368  0.78146  0.68057  Biso   1.000  Cl
  N1       1.0000 0.04010  0.89634  0.41078  Biso   1.000  N
  N2       1.0000 0.54010  0.89634  0.08922  Biso   1.000  N
  N3       1.0000 0.04010  0.60366  0.91078  Biso   1.000  N
  N4       1.0000 0.45990  0.39634  0.41078  Biso   1.000  N
  N5       1.0000 0.95990  0.10366  0.58922  Biso   1.000  N
  N6       1.0000 0.45990  0.10366  0.91078  Biso   1.000  N
  N7       1.0000 0.95990  0.39634  0.08922  Biso   1.000  N
  N8       1.0000 0.54010  0.60366  0.58922  Biso   1.000  N
  N9       1.0000 0.30350  0.85807  0.44281  Biso   1.000  N
  N10      1.0000 0.80350  0.85807  0.05719  Biso   1.000  N
  N11      1.0000 0.30350  0.64193  0.94281  Biso   1.000  N
  N12      1.0000 0.19650  0.35807  0.44281  Biso   1.000  N
  N13      1.0000 0.69650  0.14193  0.55719  Biso   1.000  N
  N14      1.0000 0.19650  0.14193  0.94281  Biso   1.000  N
  N15      1.0000 0.69650  0.35807  0.05719  Biso   1.000  N
  N16      1.0000 0.80350  0.64193  0.55719  Biso   1.000  N
  N17      1.0000 0.39990  0.91447  0.30275  Biso   1.000  N
  N18      1.0000 0.89990  0.91447  0.19725  Biso   1.000  N
  N19      1.0000 0.39990  0.58553  0.80275  Biso   1.000  N
  N20      1.0000 0.10010  0.41447  0.30275  Biso   1.000  N
  N21      1.0000 0.60010  0.08553  0.69725  Biso   1.000  N
  N22      1.0000 0.10010  0.08553  0.80275  Biso   1.000  N
  N23      1.0000 0.60010  0.41447  0.19725  Biso   1.000  N
  N24      1.0000 0.89990  0.58553  0.69725  Biso   1.000  N
  N25      1.0000 0.60300  0.90960  0.24255  Biso   1.000  N
  N26      1.0000 0.10300  0.90960  0.25745  Biso   1.000  N
  N27      1.0000 0.60300  0.59040  0.74255  Biso   1.000  N
  N28      1.0000 0.89700  0.40960  0.24255  Biso   1.000  N
  N29      1.0000 0.39700  0.09040  0.75745  Biso   1.000  N
  N30      1.0000 0.89700  0.09040  0.74255  Biso   1.000  N
  N31      1.0000 0.39700  0.40960  0.25745  Biso   1.000  N
  N32      1.0000 0.10300  0.59040  0.75745  Biso   1.000  N
  C1       1.0000 0.90960  0.91788  0.39392  Biso   1.000  C
  C2       1.0000 0.40960  0.91788  0.10608  Biso   1.000  C
  C3       1.0000 0.90960  0.58212  0.89392  Biso   1.000  C
  C4       1.0000 0.59040  0.41788  0.39392  Biso   1.000  C
  C5       1.0000 0.09040  0.08212  0.60608  Biso   1.000  C
  C6       1.0000 0.59040  0.08212  0.89392  Biso   1.000  C
  C7       1.0000 0.09040  0.41788  0.10608  Biso   1.000  C
  C8       1.0000 0.40960  0.58212  0.60608  Biso   1.000  C
  H1       1.0000 0.88770  0.92870  0.34560  Biso   1.000  H
  H2       1.0000 0.38770  0.92870  0.15440  Biso   1.000  H
  H3       1.0000 0.88770  0.57130  0.84560  Biso   1.000  H
  H4       1.0000 0.61230  0.42870  0.34560  Biso   1.000  H
  H5       1.0000 0.11230  0.07130  0.65440  Biso   1.000  H
  H6       1.0000 0.61230  0.07130  0.84560  Biso   1.000  H
  H7       1.0000 0.11230  0.42870  0.15440  Biso   1.000  H
  H8       1.0000 0.38770  0.57130  0.65440  Biso   1.000  H
  C9       1.0000 0.80390  0.92497  0.44612  Biso   1.000  C
  C10      1.0000 0.30390  0.92497  0.05388  Biso   1.000  C
  C11      1.0000 0.80390  0.57503  0.94612  Biso   1.000  C
  C12      1.0000 0.69610  0.42497  0.44612  Biso   1.000  C
  C13      1.0000 0.19610  0.07503  0.55388  Biso   1.000  C
  C14      1.0000 0.69610  0.07503  0.94612  Biso   1.000  C
  C15      1.0000 0.19610  0.42497  0.05388  Biso   1.000  C
  C16      1.0000 0.30390  0.57503  0.55388  Biso   1.000  C
  H9       1.0000 0.71360  0.94050  0.43230  Biso   1.000  H
  H10      1.0000 0.21360  0.94050  0.06770  Biso   1.000  H
  H11      1.0000 0.71360  0.55950  0.93230  Biso   1.000  H
  H12      1.0000 0.78640  0.44050  0.43230  Biso   1.000  H
  H13      1.0000 0.28640  0.05950  0.56770  Biso   1.000  H
  H14      1.0000 0.78640  0.05950  0.93230  Biso   1.000  H
  H15      1.0000 0.28640  0.44050  0.06770  Biso   1.000  H
  H16      1.0000 0.21360  0.55950  0.56770  Biso   1.000  H
  C17      1.0000 0.83350  0.90903  0.51732  Biso   1.000  C
  C18      1.0000 0.33350  0.90903  0.98268  Biso   1.000  C
  C19      1.0000 0.83350  0.59097  0.01732  Biso   1.000  C
  C20      1.0000 0.66650  0.40903  0.51732  Biso   1.000  C
  C21      1.0000 0.16650  0.09097  0.48268  Biso   1.000  C
  C22      1.0000 0.66650  0.09097  0.01732  Biso   1.000  C
  C23      1.0000 0.16650  0.40903  0.98268  Biso   1.000  C
  C24      1.0000 0.33350  0.59097  0.48268  Biso   1.000  C
  H17      1.0000 0.76350  0.91330  0.55220  Biso   1.000  H
  H18      1.0000 0.26350  0.91330  0.94780  Biso   1.000  H
  H19      1.0000 0.76350  0.58670  0.05220  Biso   1.000  H
  H20      1.0000 0.73650  0.41330  0.55220  Biso   1.000  H
  H21      1.0000 0.23650  0.08670  0.44780  Biso   1.000  H
  H22      1.0000 0.73650  0.08670  0.05220  Biso   1.000  H
  H23      1.0000 0.23650  0.41330  0.94780  Biso   1.000  H
  H24      1.0000 0.26350  0.58670  0.44780  Biso   1.000  H
  C25      1.0000 0.97060  0.88618  0.53755  Biso   1.000  C
  C26      1.0000 0.47060  0.88618  0.96245  Biso   1.000  C
  C27      1.0000 0.97060  0.61382  0.03755  Biso   1.000  C
  C28      1.0000 0.52940  0.38618  0.53755  Biso   1.000  C
  C29      1.0000 0.02940  0.11382  0.46245  Biso   1.000  C
  C30      1.0000 0.52940  0.11382  0.03755  Biso   1.000  C
  C31      1.0000 0.02940  0.38618  0.96245  Biso   1.000  C
  C32      1.0000 0.47060  0.61382  0.46245  Biso   1.000  C
  C33      1.0000 0.01290  0.86706  0.61057  Biso   1.000  C
  C34      1.0000 0.51290  0.86706  0.88943  Biso   1.000  C
  C35      1.0000 0.01290  0.63294  0.11057  Biso   1.000  C
  C36      1.0000 0.48710  0.36706  0.61057  Biso   1.000  C
  C37      1.0000 0.98710  0.13294  0.38943  Biso   1.000  C
  C38      1.0000 0.48710  0.13294  0.11057  Biso   1.000  C
  C39      1.0000 0.98710  0.36706  0.88943  Biso   1.000  C
  C40      1.0000 0.51290  0.63294  0.38943  Biso   1.000  C
  H25      1.0000 0.94690  0.86900  0.64760  Biso   1.000  H
  H26      1.0000 0.44690  0.86900  0.85240  Biso   1.000  H
  H27      1.0000 0.94690  0.63100  0.14760  Biso   1.000  H
  H28      1.0000 0.55310  0.36900  0.64760  Biso   1.000  H
  H29      1.0000 0.05310  0.13100  0.35240  Biso   1.000  H
  H30      1.0000 0.55310  0.13100  0.14760  Biso   1.000  H
  H31      1.0000 0.05310  0.36900  0.85240  Biso   1.000  H
  H32      1.0000 0.44690  0.63100  0.35240  Biso   1.000  H
  C41      1.0000 0.14580  0.84640  0.62631  Biso   1.000  C
  C42      1.0000 0.64580  0.84640  0.87369  Biso   1.000  C
  C43      1.0000 0.14580  0.65360  0.12631  Biso   1.000  C
  C44      1.0000 0.35420  0.34640  0.62631  Biso   1.000  C
  C45      1.0000 0.85420  0.15360  0.37369  Biso   1.000  C
  C46      1.0000 0.35420  0.15360  0.12631  Biso   1.000  C
  C47      1.0000 0.85420  0.34640  0.87369  Biso   1.000  C
  C48      1.0000 0.64580  0.65360  0.37369  Biso   1.000  C
  H33      1.0000 0.17030  0.83470  0.67410  Biso   1.000  H
  H34      1.0000 0.67030  0.83470  0.82590  Biso   1.000  H
  H35      1.0000 0.17030  0.66530  0.17410  Biso   1.000  H
  H36      1.0000 0.32970  0.33470  0.67410  Biso   1.000  H
  H37      1.0000 0.82970  0.16530  0.32590  Biso   1.000  H
  H38      1.0000 0.32970  0.16530  0.17410  Biso   1.000  H
  H39      1.0000 0.82970  0.33470  0.82590  Biso   1.000  H
  H40      1.0000 0.67030  0.66530  0.32590  Biso   1.000  H
  C49      1.0000 0.25040  0.84217  0.57104  Biso   1.000  C
  C50      1.0000 0.75040  0.84217  0.92896  Biso   1.000  C
  C51      1.0000 0.25040  0.65783  0.07104  Biso   1.000  C
  C52      1.0000 0.24960  0.34217  0.57104  Biso   1.000  C
  C53      1.0000 0.74960  0.15783  0.42896  Biso   1.000  C
  C54      1.0000 0.24960  0.15783  0.07104  Biso   1.000  C
  C55      1.0000 0.74960  0.34217  0.92896  Biso   1.000  C
  C56      1.0000 0.75040  0.65783  0.42896  Biso   1.000  C
  C57      1.0000 0.39190  0.82269  0.58382  Biso   1.000  C
  C58      1.0000 0.89190  0.82269  0.91618  Biso   1.000  C
  C59      1.0000 0.39190  0.67731  0.08382  Biso   1.000  C
  C60      1.0000 0.10810  0.32269  0.58382  Biso   1.000  C
  C61      1.0000 0.60810  0.17731  0.41618  Biso   1.000  C
  C62      1.0000 0.10810  0.17731  0.08382  Biso   1.000  C
  C63      1.0000 0.60810  0.32269  0.91618  Biso   1.000  C
  C64      1.0000 0.89190  0.67731  0.41618  Biso   1.000  C
  H41      1.0000 0.42270  0.81080  0.63060  Biso   1.000  H
  H42      1.0000 0.92270  0.81080  0.86940  Biso   1.000  H
  H43      1.0000 0.42270  0.68920  0.13060  Biso   1.000  H
  H44      1.0000 0.07730  0.31080  0.63060  Biso   1.000  H
  H45      1.0000 0.57730  0.18920  0.36940  Biso   1.000  H
  H46      1.0000 0.07730  0.18920  0.13060  Biso   1.000  H
  H47      1.0000 0.57730  0.31080  0.86940  Biso   1.000  H
  H48      1.0000 0.92270  0.68920  0.36940  Biso   1.000  H
  C65      1.0000 0.48330  0.82133  0.52747  Biso   1.000  C
  C66      1.0000 0.98330  0.82133  0.97253  Biso   1.000  C
  C67      1.0000 0.48330  0.67867  0.02747  Biso   1.000  C
  C68      1.0000 0.01670  0.32133  0.52747  Biso   1.000  C
  C69      1.0000 0.51670  0.17867  0.47253  Biso   1.000  C
  C70      1.0000 0.01670  0.17867  0.02747  Biso   1.000  C
  C71      1.0000 0.51670  0.32133  0.97253  Biso   1.000  C
  C72      1.0000 0.98330  0.67867  0.47253  Biso   1.000  C
  H49      1.0000 0.57720  0.80860  0.53560  Biso   1.000  H
  H50      1.0000 0.07720  0.80860  0.96440  Biso   1.000  H
  H51      1.0000 0.57720  0.69140  0.03560  Biso   1.000  H
  H52      1.0000 0.92280  0.30860  0.53560  Biso   1.000  H
  H53      1.0000 0.42280  0.19140  0.46440  Biso   1.000  H
  H54      1.0000 0.92280  0.19140  0.03560  Biso   1.000  H
  H55      1.0000 0.42280  0.30860  0.96440  Biso   1.000  H
  H56      1.0000 0.07720  0.69140  0.46440  Biso   1.000  H
  C73      1.0000 0.43620  0.83911  0.45716  Biso   1.000  C
  C74      1.0000 0.93620  0.83911  0.04284  Biso   1.000  C
  C75      1.0000 0.43620  0.66089  0.95716  Biso   1.000  C
  C76      1.0000 0.06380  0.33911  0.45716  Biso   1.000  C
  C77      1.0000 0.56380  0.16089  0.54284  Biso   1.000  C
  C78      1.0000 0.06380  0.16089  0.95716  Biso   1.000  C
  C79      1.0000 0.56380  0.33911  0.04284  Biso   1.000  C
  C80      1.0000 0.93620  0.66089  0.54284  Biso   1.000  C
  H57      1.0000 0.50010  0.83760  0.41910  Biso   1.000  H
  H58      1.0000 0.00010  0.83760  0.08090  Biso   1.000  H
  H59      1.0000 0.50010  0.66240  0.91910  Biso   1.000  H
  H60      1.0000 0.99990  0.33760  0.41910  Biso   1.000  H
  H61      1.0000 0.49990  0.16240  0.58090  Biso   1.000  H
  H62      1.0000 0.99990  0.16240  0.91910  Biso   1.000  H
  H63      1.0000 0.49990  0.33760  0.08090  Biso   1.000  H
  H64      1.0000 0.00010  0.66240  0.58090  Biso   1.000  H
  C81      1.0000 0.21190  0.85946  0.49912  Biso   1.000  C
  C82      1.0000 0.71190  0.85946  0.00088  Biso   1.000  C
  C83      1.0000 0.21190  0.64054  0.99912  Biso   1.000  C
  C84      1.0000 0.28810  0.35946  0.49912  Biso   1.000  C
  C85      1.0000 0.78810  0.14054  0.50088  Biso   1.000  C
  C86      1.0000 0.28810  0.14054  0.99912  Biso   1.000  C
  C87      1.0000 0.78810  0.35946  0.00088  Biso   1.000  C
  C88      1.0000 0.71190  0.64054  0.50088  Biso   1.000  C
  C89      1.0000 0.06980  0.88142  0.48163  Biso   1.000  C
  C90      1.0000 0.56980  0.88142  0.01837  Biso   1.000  C
  C91      1.0000 0.06980  0.61858  0.98163  Biso   1.000  C
  C92      1.0000 0.43020  0.38142  0.48163  Biso   1.000  C
  C93      1.0000 0.93020  0.11858  0.51837  Biso   1.000  C
  C94      1.0000 0.43020  0.11858  0.98163  Biso   1.000  C
  C95      1.0000 0.93020  0.38142  0.01837  Biso   1.000  C
  C96      1.0000 0.56980  0.61858  0.51837  Biso   1.000  C
  C97      1.0000 0.49120  0.86555  0.26610  Biso   1.000  C
  C98      1.0000 0.99120  0.86555  0.23390  Biso   1.000  C
  C99      1.0000 0.49120  0.63445  0.76610  Biso   1.000  C
  C100     1.0000 0.00880  0.36555  0.26610  Biso   1.000  C
  C101     1.0000 0.50880  0.13445  0.73390  Biso   1.000  C
  C102     1.0000 0.00880  0.13445  0.76610  Biso   1.000  C
  C103     1.0000 0.50880  0.36555  0.23390  Biso   1.000  C
  C104     1.0000 0.99120  0.63445  0.73390  Biso   1.000  C
  H65      1.0000 0.47830  0.80670  0.25780  Biso   1.000  H
  H66      1.0000 0.97830  0.80670  0.24220  Biso   1.000  H
  H67      1.0000 0.47830  0.69330  0.75780  Biso   1.000  H
  H68      1.0000 0.02170  0.30670  0.25780  Biso   1.000  H
  H69      1.0000 0.52170  0.19330  0.74220  Biso   1.000  H
  H70      1.0000 0.02170  0.19330  0.75780  Biso   1.000  H
  H71      1.0000 0.52170  0.30670  0.24220  Biso   1.000  H
  H72      1.0000 0.97830  0.69330  0.74220  Biso   1.000  H
  C105     1.0000 0.45840  0.99542  0.30289  Biso   1.000  C
  C106     1.0000 0.95840  0.99542  0.19711  Biso   1.000  C
  C107     1.0000 0.45840  0.50458  0.80289  Biso   1.000  C
  C108     1.0000 0.04160  0.49542  0.30289  Biso   1.000  C
  C109     1.0000 0.54160  0.00458  0.69711  Biso   1.000  C
  C110     1.0000 0.04160  0.00458  0.80289  Biso   1.000  C
  C111     1.0000 0.54160  0.49542  0.19711  Biso   1.000  C
  C112     1.0000 0.95840  0.50458  0.69711  Biso   1.000  C
  H73      1.0000 0.41990  0.04430  0.32440  Biso   1.000  H
  H74      1.0000 0.91990  0.04430  0.17560  Biso   1.000  H
  H75      1.0000 0.41990  0.45570  0.82440  Biso   1.000  H
  H76      1.0000 0.08010  0.54430  0.32440  Biso   1.000  H
  H77      1.0000 0.58010  0.95570  0.67560  Biso   1.000  H
  H78      1.0000 0.08010  0.95570  0.82440  Biso   1.000  H
  H79      1.0000 0.58010  0.54430  0.17560  Biso   1.000  H
  H80      1.0000 0.91990  0.45570  0.67560  Biso   1.000  H
  C113     1.0000 0.58170  0.99249  0.26647  Biso   1.000  C
  C114     1.0000 0.08170  0.99249  0.23353  Biso   1.000  C
  C115     1.0000 0.58170  0.50751  0.76647  Biso   1.000  C
  C116     1.0000 0.91830  0.49249  0.26647  Biso   1.000  C
  C117     1.0000 0.41830  0.00751  0.73353  Biso   1.000  C
  C118     1.0000 0.91830  0.00751  0.76647  Biso   1.000  C
  C119     1.0000 0.41830  0.49249  0.23353  Biso   1.000  C
  C120     1.0000 0.08170  0.50751  0.73353  Biso   1.000  C
  H81      1.0000 0.64170  0.03900  0.25900  Biso   1.000  H
  H82      1.0000 0.14170  0.03900  0.24100  Biso   1.000  H
  H83      1.0000 0.64170  0.46100  0.75900  Biso   1.000  H
  H84      1.0000 0.85830  0.53900  0.25900  Biso   1.000  H
  H85      1.0000 0.35830  0.96100  0.74100  Biso   1.000  H
  H86      1.0000 0.85830  0.96100  0.75900  Biso   1.000  H
  H87      1.0000 0.35830  0.53900  0.24100  Biso   1.000  H
  H88      1.0000 0.14170  0.46100  0.74100  Biso   1.000  H
