data_image0
_cell_length_a       6.78
_cell_length_b       32.311
_cell_length_c       8.162
_cell_angle_alpha    90
_cell_angle_beta     111.55
_cell_angle_gamma    90

_symmetry_space_group_name_H-M    "P 1"
_symmetry_int_tables_number       1

loop_
  _symmetry_equiv_pos_as_xyz
  'x, y, z'

loop_
  _atom_site_label
  _atom_site_occupancy
  _atom_site_fract_x
  _atom_site_fract_y
  _atom_site_fract_z
  _atom_site_thermal_displace_type
  _atom_site_B_iso_or_equiv
  _atom_site_type_symbol
  La1      1.0000 0.03606  0.15709  0.33443  Biso   1.000  La
  La2      1.0000 0.96394  0.65709  0.16557  Biso   1.000  La
  La3      1.0000 0.96394  0.84291  0.66557  Biso   1.000  La
  La4      1.0000 0.03606  0.34291  0.83443  Biso   1.000  La
  Cu1      1.0000 0.00000  0.00000  0.00000  Biso   1.000  Cu
  Cu2      1.0000 0.00000  0.50000  0.50000  Biso   1.000  Cu
  O1       1.0000 0.97680  0.20581  0.06120  Biso   1.000  O
  O2       1.0000 0.02320  0.70581  0.43880  Biso   1.000  O
  O3       1.0000 0.02320  0.79419  0.93880  Biso   1.000  O
  O4       1.0000 0.97680  0.29419  0.56120  Biso   1.000  O
  O5       1.0000 0.38330  0.13637  0.58030  Biso   1.000  O
  O6       1.0000 0.61670  0.63637  0.91970  Biso   1.000  O
  O7       1.0000 0.61670  0.86363  0.41970  Biso   1.000  O
  O8       1.0000 0.38330  0.36363  0.08030  Biso   1.000  O
  O9       1.0000 0.26950  0.13236  0.17150  Biso   1.000  O
  O10      1.0000 0.73050  0.63236  0.32850  Biso   1.000  O
  O11      1.0000 0.73050  0.86764  0.82850  Biso   1.000  O
  O12      1.0000 0.26950  0.36764  0.67150  Biso   1.000  O
  O13      1.0000 0.74820  0.12994  0.04720  Biso   1.000  O
  O14      1.0000 0.25180  0.62994  0.45280  Biso   1.000  O
  O15      1.0000 0.25180  0.87006  0.95280  Biso   1.000  O
  O16      1.0000 0.74820  0.37006  0.54720  Biso   1.000  O
  O17      1.0000 0.74040  0.11998  0.41600  Biso   1.000  O
  O18      1.0000 0.25960  0.61998  0.08400  Biso   1.000  O
  O19      1.0000 0.25960  0.88002  0.58400  Biso   1.000  O
  O20      1.0000 0.74040  0.38002  0.91600  Biso   1.000  O
  O21      1.0000 0.05490  0.18710  0.63280  Biso   1.000  O
  O22      1.0000 0.94510  0.68710  0.86720  Biso   1.000  O
  O23      1.0000 0.94510  0.81290  0.36720  Biso   1.000  O
  O24      1.0000 0.05490  0.31290  0.13280  Biso   1.000  O
  O25      1.0000 0.78820  0.03762  0.03400  Biso   1.000  O
  O26      1.0000 0.21180  0.53762  0.46600  Biso   1.000  O
  O27      1.0000 0.21180  0.96238  0.96600  Biso   1.000  O
  O28      1.0000 0.78820  0.46238  0.53400  Biso   1.000  O
  O29      1.0000 0.27670  0.05168  0.05580  Biso   1.000  O
  O30      1.0000 0.72330  0.55168  0.44420  Biso   1.000  O
  O31      1.0000 0.72330  0.94832  0.94420  Biso   1.000  O
  O32      1.0000 0.27670  0.44832  0.55580  Biso   1.000  O
  O33      1.0000 0.89500  0.10672  0.79610  Biso   1.000  O
  O34      1.0000 0.10500  0.60672  0.70390  Biso   1.000  O
  O35      1.0000 0.10500  0.89328  0.20390  Biso   1.000  O
  O36      1.0000 0.89500  0.39328  0.29610  Biso   1.000  O
  O37      1.0000 0.26740  0.21844  0.37840  Biso   1.000  O
  O38      1.0000 0.73260  0.71844  0.12160  Biso   1.000  O
  O39      1.0000 0.73260  0.78156  0.62160  Biso   1.000  O
  O40      1.0000 0.26740  0.28156  0.87840  Biso   1.000  O
  O41      1.0000 0.67900  0.19657  0.72510  Biso   1.000  O
  O42      1.0000 0.32100  0.69657  0.77490  Biso   1.000  O
  O43      1.0000 0.32100  0.80343  0.27490  Biso   1.000  O
  O44      1.0000 0.67900  0.30343  0.22510  Biso   1.000  O
  O45      1.0000 0.75100  0.20583  0.31460  Biso   1.000  O
  O46      1.0000 0.24900  0.70583  0.18540  Biso   1.000  O
  O47      1.0000 0.24900  0.79417  0.68540  Biso   1.000  O
  O48      1.0000 0.75100  0.29417  0.81460  Biso   1.000  O
  O49      1.0000 0.38170  0.31676  0.44630  Biso   1.000  O
  O50      1.0000 0.61830  0.81676  0.05370  Biso   1.000  O
  O51      1.0000 0.61830  0.68324  0.55370  Biso   1.000  O
  O52      1.0000 0.38170  0.18324  0.94630  Biso   1.000  O
  O53      1.0000 0.10170  0.98185  0.24670  Biso   1.000  O
  O54      1.0000 0.89830  0.48185  0.25330  Biso   1.000  O
  O55      1.0000 0.89830  0.01815  0.75330  Biso   1.000  O
  O56      1.0000 0.10170  0.51815  0.74670  Biso   1.000  O
  O57      1.0000 0.07210  0.07893  0.34440  Biso   1.000  O
  O58      1.0000 0.92790  0.57893  0.15560  Biso   1.000  O
  O59      1.0000 0.92790  0.92107  0.65560  Biso   1.000  O
  O60      1.0000 0.07210  0.42107  0.84440  Biso   1.000  O
  O61      1.0000 0.39680  0.05985  0.74580  Biso   1.000  O
  O62      1.0000 0.60320  0.55985  0.75420  Biso   1.000  O
  O63      1.0000 0.60320  0.94015  0.25420  Biso   1.000  O
  O64      1.0000 0.39680  0.44015  0.24580  Biso   1.000  O
  O65      1.0000 0.37470  0.96205  0.64890  Biso   1.000  O
  O66      1.0000 0.62530  0.46205  0.85110  Biso   1.000  O
  O67      1.0000 0.62530  0.03795  0.35110  Biso   1.000  O
  O68      1.0000 0.37470  0.53795  0.14890  Biso   1.000  O
  C1       1.0000 0.40610  0.23910  0.49500  Biso   1.000  C
  C2       1.0000 0.59390  0.73910  0.00500  Biso   1.000  C
  C3       1.0000 0.59390  0.76090  0.50500  Biso   1.000  C
  C4       1.0000 0.40610  0.26090  0.99500  Biso   1.000  C
  C5       1.0000 0.58670  0.22950  0.65330  Biso   1.000  C
  C6       1.0000 0.41330  0.72950  0.84670  Biso   1.000  C
  C7       1.0000 0.41330  0.77050  0.34670  Biso   1.000  C
  C8       1.0000 0.58670  0.27050  0.15330  Biso   1.000  C
  C9       1.0000 0.62350  0.22650  0.19040  Biso   1.000  C
  C10      1.0000 0.37650  0.72650  0.30960  Biso   1.000  C
  C11      1.0000 0.37650  0.77350  0.80960  Biso   1.000  C
  C12      1.0000 0.62350  0.27350  0.69040  Biso   1.000  C
  C13      1.0000 0.45200  0.28340  0.52610  Biso   1.000  C
  C14      1.0000 0.54800  0.78340  0.97390  Biso   1.000  C
  C15      1.0000 0.54800  0.71660  0.47390  Biso   1.000  C
  C16      1.0000 0.45200  0.21660  0.02610  Biso   1.000  C
  C17      1.0000 0.17210  0.00460  0.38450  Biso   1.000  C
  C18      1.0000 0.82790  0.50460  0.11550  Biso   1.000  C
  C19      1.0000 0.82790  0.99540  0.61550  Biso   1.000  C
  C20      1.0000 0.17210  0.49540  0.88450  Biso   1.000  C
  C21      1.0000 0.16510  0.04770  0.42860  Biso   1.000  C
  C22      1.0000 0.83490  0.54770  0.07140  Biso   1.000  C
  C23      1.0000 0.83490  0.95230  0.57140  Biso   1.000  C
  C24      1.0000 0.16510  0.45230  0.92860  Biso   1.000  C
  C25      1.0000 0.30640  0.03900  0.61080  Biso   1.000  C
  C26      1.0000 0.69360  0.53900  0.88920  Biso   1.000  C
  C27      1.0000 0.69360  0.96100  0.38920  Biso   1.000  C
  C28      1.0000 0.30640  0.46100  0.11080  Biso   1.000  C
  C29      1.0000 0.30070  0.99450  0.56690  Biso   1.000  C
  C30      1.0000 0.69930  0.49450  0.93310  Biso   1.000  C
  C31      1.0000 0.69930  0.00550  0.43310  Biso   1.000  C
  C32      1.0000 0.30070  0.50550  0.06690  Biso   1.000  C
