data_image0
_cell_length_a       13.784
_cell_length_b       8.219
_cell_length_c       26.268
_cell_angle_alpha    90
_cell_angle_beta     94.2
_cell_angle_gamma    90

_symmetry_space_group_name_H-M    "P 1"
_symmetry_int_tables_number       1

loop_
  _symmetry_equiv_pos_as_xyz
  'x, y, z'

loop_
  _atom_site_label
  _atom_site_occupancy
  _atom_site_fract_x
  _atom_site_fract_y
  _atom_site_fract_z
  _atom_site_thermal_displace_type
  _atom_site_B_iso_or_equiv
  _atom_site_type_symbol
  Gd1      1.0000 0.67302  0.50993  0.31515  Biso   1.000  Gd
  Gd2      1.0000 0.17302  0.00993  0.31515  Biso   1.000  Gd
  Gd3      1.0000 0.32698  0.50993  0.18485  Biso   1.000  Gd
  Gd4      1.0000 0.82698  0.00993  0.18485  Biso   1.000  Gd
  Gd5      1.0000 0.32698  0.49007  0.68485  Biso   1.000  Gd
  Gd6      1.0000 0.82698  0.99007  0.68485  Biso   1.000  Gd
  Gd7      1.0000 0.67302  0.49007  0.81515  Biso   1.000  Gd
  Gd8      1.0000 0.17302  0.99007  0.81515  Biso   1.000  Gd
  Cu1      1.0000 0.50000  0.50000  0.50000  Biso   1.000  Cu
  Cu2      1.0000 0.00000  0.00000  0.50000  Biso   1.000  Cu
  Cu3      1.0000 0.50000  0.50000  0.00000  Biso   1.000  Cu
  Cu4      1.0000 0.00000  0.00000  0.00000  Biso   1.000  Cu
  O1       1.0000 0.78350  0.72930  0.32080  Biso   1.000  O
  O2       1.0000 0.28350  0.22930  0.32080  Biso   1.000  O
  O3       1.0000 0.21650  0.72930  0.17920  Biso   1.000  O
  O4       1.0000 0.71650  0.22930  0.17920  Biso   1.000  O
  O5       1.0000 0.21650  0.27070  0.67920  Biso   1.000  O
  O6       1.0000 0.71650  0.77070  0.67920  Biso   1.000  O
  O7       1.0000 0.78350  0.27070  0.82080  Biso   1.000  O
  O8       1.0000 0.28350  0.77070  0.82080  Biso   1.000  O
  O9       1.0000 0.64560  0.58430  0.22570  Biso   1.000  O
  O10      1.0000 0.14560  0.08430  0.22570  Biso   1.000  O
  O11      1.0000 0.35440  0.58430  0.27430  Biso   1.000  O
  O12      1.0000 0.85440  0.08430  0.27430  Biso   1.000  O
  O13      1.0000 0.35440  0.41570  0.77430  Biso   1.000  O
  O14      1.0000 0.85440  0.91570  0.77430  Biso   1.000  O
  O15      1.0000 0.64560  0.41570  0.72570  Biso   1.000  O
  O16      1.0000 0.14560  0.91570  0.72570  Biso   1.000  O
  O17      1.0000 0.51420  0.42990  0.33880  Biso   1.000  O
  O18      1.0000 0.01420  0.92990  0.33880  Biso   1.000  O
  O19      1.0000 0.48580  0.42990  0.16120  Biso   1.000  O
  O20      1.0000 0.98580  0.92990  0.16120  Biso   1.000  O
  O21      1.0000 0.48580  0.57010  0.66120  Biso   1.000  O
  O22      1.0000 0.98580  0.07010  0.66120  Biso   1.000  O
  O23      1.0000 0.51420  0.57010  0.83880  Biso   1.000  O
  O24      1.0000 0.01420  0.07010  0.83880  Biso   1.000  O
  O25      1.0000 0.73540  0.29850  0.37040  Biso   1.000  O
  O26      1.0000 0.23540  0.79850  0.37040  Biso   1.000  O
  O27      1.0000 0.26460  0.29850  0.12960  Biso   1.000  O
  O28      1.0000 0.76460  0.79850  0.12960  Biso   1.000  O
  O29      1.0000 0.26460  0.70150  0.62960  Biso   1.000  O
  O30      1.0000 0.76460  0.20150  0.62960  Biso   1.000  O
  O31      1.0000 0.73540  0.70150  0.87040  Biso   1.000  O
  O32      1.0000 0.23540  0.20150  0.87040  Biso   1.000  O
  O33      1.0000 0.61130  0.39000  0.47240  Biso   1.000  O
  O34      1.0000 0.11130  0.89000  0.47240  Biso   1.000  O
  O35      1.0000 0.38870  0.39000  0.02760  Biso   1.000  O
  O36      1.0000 0.88870  0.89000  0.02760  Biso   1.000  O
  O37      1.0000 0.38870  0.61000  0.52760  Biso   1.000  O
  O38      1.0000 0.88870  0.11000  0.52760  Biso   1.000  O
  O39      1.0000 0.61130  0.61000  0.97240  Biso   1.000  O
  O40      1.0000 0.11130  0.11000  0.97240  Biso   1.000  O
  O41      1.0000 0.43730  0.57500  0.41660  Biso   1.000  O
  O42      1.0000 0.93730  0.07500  0.41660  Biso   1.000  O
  O43      1.0000 0.56270  0.57500  0.08340  Biso   1.000  O
  O44      1.0000 0.06270  0.07500  0.08340  Biso   1.000  O
  O45      1.0000 0.56270  0.42500  0.58340  Biso   1.000  O
  O46      1.0000 0.06270  0.92500  0.58340  Biso   1.000  O
  O47      1.0000 0.43730  0.42500  0.91660  Biso   1.000  O
  O48      1.0000 0.93730  0.92500  0.91660  Biso   1.000  O
  O49      1.0000 0.59220  0.09940  0.58720  Biso   1.000  O
  O50      1.0000 0.09220  0.59940  0.58720  Biso   1.000  O
  O51      1.0000 0.40780  0.09940  0.91280  Biso   1.000  O
  O52      1.0000 0.90780  0.59940  0.91280  Biso   1.000  O
  O53      1.0000 0.40780  0.90060  0.41280  Biso   1.000  O
  O54      1.0000 0.90780  0.40060  0.41280  Biso   1.000  O
  O55      1.0000 0.59220  0.90060  0.08720  Biso   1.000  O
  O56      1.0000 0.09220  0.40060  0.08720  Biso   1.000  O
  O57      1.0000 0.81900  0.41420  0.27711  Biso   1.000  O
  O58      1.0000 0.31900  0.91420  0.27711  Biso   1.000  O
  O59      1.0000 0.18100  0.41420  0.22289  Biso   1.000  O
  O60      1.0000 0.68100  0.91420  0.22289  Biso   1.000  O
  O61      1.0000 0.18100  0.58580  0.72289  Biso   1.000  O
  O62      1.0000 0.68100  0.08580  0.72289  Biso   1.000  O
  O63      1.0000 0.81900  0.58580  0.77711  Biso   1.000  O
  O64      1.0000 0.31900  0.08580  0.77711  Biso   1.000  O
  O65      1.0000 0.93140  0.24600  0.18590  Biso   1.000  O
  O66      1.0000 0.43140  0.74600  0.18590  Biso   1.000  O
  O67      1.0000 0.06860  0.24600  0.31410  Biso   1.000  O
  O68      1.0000 0.56860  0.74600  0.31410  Biso   1.000  O
  O69      1.0000 0.06860  0.75400  0.81410  Biso   1.000  O
  O70      1.0000 0.56860  0.25400  0.81410  Biso   1.000  O
  O71      1.0000 0.93140  0.75400  0.68590  Biso   1.000  O
  O72      1.0000 0.43140  0.25400  0.68590  Biso   1.000  O
  O73      1.0000 0.98840  0.60500  0.14590  Biso   1.000  O
  O74      1.0000 0.48840  0.10500  0.14590  Biso   1.000  O
  O75      1.0000 0.01160  0.60500  0.35410  Biso   1.000  O
  O76      1.0000 0.51160  0.10500  0.35410  Biso   1.000  O
  O77      1.0000 0.01160  0.39500  0.85410  Biso   1.000  O
  O78      1.0000 0.51160  0.89500  0.85410  Biso   1.000  O
  O79      1.0000 0.98840  0.39500  0.64590  Biso   1.000  O
  O80      1.0000 0.48840  0.89500  0.64590  Biso   1.000  O
  O81      1.0000 0.87140  0.77000  0.23354  Biso   1.000  O
  O82      1.0000 0.37140  0.27000  0.23354  Biso   1.000  O
  O83      1.0000 0.12860  0.77000  0.26646  Biso   1.000  O
  O84      1.0000 0.62860  0.27000  0.26646  Biso   1.000  O
  O85      1.0000 0.12860  0.23000  0.76646  Biso   1.000  O
  O86      1.0000 0.62860  0.73000  0.76646  Biso   1.000  O
  O87      1.0000 0.87140  0.23000  0.73354  Biso   1.000  O
  O88      1.0000 0.37140  0.73000  0.73354  Biso   1.000  O
  O89      1.0000 0.57140  0.70660  0.50520  Biso   1.000  O
  O90      1.0000 0.07140  0.20660  0.50520  Biso   1.000  O
  O91      1.0000 0.42860  0.70660  0.99480  Biso   1.000  O
  O92      1.0000 0.92860  0.20660  0.99480  Biso   1.000  O
  O93      1.0000 0.42860  0.29340  0.49480  Biso   1.000  O
  O94      1.0000 0.92860  0.79340  0.49480  Biso   1.000  O
  O95      1.0000 0.57140  0.29340  0.00520  Biso   1.000  O
  O96      1.0000 0.07140  0.79340  0.00520  Biso   1.000  O
  O97      1.0000 0.67460  0.59670  0.40176  Biso   1.000  O
  O98      1.0000 0.17460  0.09670  0.40176  Biso   1.000  O
  O99      1.0000 0.32540  0.59670  0.09824  Biso   1.000  O
  O100     1.0000 0.82540  0.09670  0.09824  Biso   1.000  O
  O101     1.0000 0.32540  0.40330  0.59824  Biso   1.000  O
  O102     1.0000 0.82540  0.90330  0.59824  Biso   1.000  O
  O103     1.0000 0.67460  0.40330  0.90176  Biso   1.000  O
  O104     1.0000 0.17460  0.90330  0.90176  Biso   1.000  O
  O105     1.0000 0.74770  0.96610  0.38846  Biso   1.000  O
  O106     1.0000 0.24770  0.46610  0.38846  Biso   1.000  O
  O107     1.0000 0.25230  0.96610  0.11154  Biso   1.000  O
  O108     1.0000 0.75230  0.46610  0.11154  Biso   1.000  O
  O109     1.0000 0.25230  0.03390  0.61154  Biso   1.000  O
  O110     1.0000 0.75230  0.53390  0.61154  Biso   1.000  O
  O111     1.0000 0.74770  0.03390  0.88846  Biso   1.000  O
  O112     1.0000 0.24770  0.53390  0.88846  Biso   1.000  O
  O113     1.0000 0.64040  0.06940  0.49020  Biso   1.000  O
  O114     1.0000 0.14040  0.56940  0.49020  Biso   1.000  O
  O115     1.0000 0.35960  0.06940  0.00980  Biso   1.000  O
  O116     1.0000 0.85960  0.56940  0.00980  Biso   1.000  O
  O117     1.0000 0.35960  0.93060  0.50980  Biso   1.000  O
  O118     1.0000 0.85960  0.43060  0.50980  Biso   1.000  O
  O119     1.0000 0.64040  0.93060  0.99020  Biso   1.000  O
  O120     1.0000 0.14040  0.43060  0.99020  Biso   1.000  O
  C1       1.0000 0.86560  0.46620  0.24060  Biso   1.000  C
  C2       1.0000 0.36560  0.96620  0.24060  Biso   1.000  C
  C3       1.0000 0.13440  0.46620  0.25940  Biso   1.000  C
  C4       1.0000 0.63440  0.96620  0.25940  Biso   1.000  C
  C5       1.0000 0.13440  0.53380  0.75940  Biso   1.000  C
  C6       1.0000 0.63440  0.03380  0.75940  Biso   1.000  C
  C7       1.0000 0.86560  0.53380  0.74060  Biso   1.000  C
  C8       1.0000 0.36560  0.03380  0.74060  Biso   1.000  C
  C9       1.0000 0.91700  0.38820  0.20010  Biso   1.000  C
  C10      1.0000 0.41700  0.88820  0.20010  Biso   1.000  C
  C11      1.0000 0.08300  0.38820  0.29990  Biso   1.000  C
  C12      1.0000 0.58300  0.88820  0.29990  Biso   1.000  C
  C13      1.0000 0.08300  0.61180  0.79990  Biso   1.000  C
  C14      1.0000 0.58300  0.11180  0.79990  Biso   1.000  C
  C15      1.0000 0.91700  0.61180  0.70010  Biso   1.000  C
  C16      1.0000 0.41700  0.11180  0.70010  Biso   1.000  C
  C17      1.0000 0.94230  0.55020  0.18100  Biso   1.000  C
  C18      1.0000 0.44230  0.05020  0.18100  Biso   1.000  C
  C19      1.0000 0.05770  0.55020  0.31900  Biso   1.000  C
  C20      1.0000 0.55770  0.05020  0.31900  Biso   1.000  C
  C21      1.0000 0.05770  0.44980  0.81900  Biso   1.000  C
  C22      1.0000 0.55770  0.94980  0.81900  Biso   1.000  C
  C23      1.0000 0.94230  0.44980  0.68100  Biso   1.000  C
  C24      1.0000 0.44230  0.94980  0.68100  Biso   1.000  C
  C25      1.0000 0.88970  0.62510  0.22100  Biso   1.000  C
  C26      1.0000 0.38970  0.12510  0.22100  Biso   1.000  C
  C27      1.0000 0.11030  0.62510  0.27900  Biso   1.000  C
  C28      1.0000 0.61030  0.12510  0.27900  Biso   1.000  C
  C29      1.0000 0.11030  0.37490  0.77900  Biso   1.000  C
  C30      1.0000 0.61030  0.87490  0.77900  Biso   1.000  C
  C31      1.0000 0.88970  0.37490  0.72100  Biso   1.000  C
  C32      1.0000 0.38970  0.87490  0.72100  Biso   1.000  C
  C33      1.0000 0.62040  0.77330  0.47260  Biso   1.000  C
  C34      1.0000 0.12040  0.27330  0.47260  Biso   1.000  C
  C35      1.0000 0.37960  0.77330  0.02740  Biso   1.000  C
  C36      1.0000 0.87960  0.27330  0.02740  Biso   1.000  C
  C37      1.0000 0.37960  0.22670  0.52740  Biso   1.000  C
  C38      1.0000 0.87960  0.72670  0.52740  Biso   1.000  C
  C39      1.0000 0.62040  0.22670  0.97260  Biso   1.000  C
  C40      1.0000 0.12040  0.72670  0.97260  Biso   1.000  C
  C41      1.0000 0.66680  0.72810  0.42650  Biso   1.000  C
  C42      1.0000 0.16680  0.22810  0.42650  Biso   1.000  C
  C43      1.0000 0.33320  0.72810  0.07350  Biso   1.000  C
  C44      1.0000 0.83320  0.22810  0.07350  Biso   1.000  C
  C45      1.0000 0.33320  0.27190  0.57350  Biso   1.000  C
  C46      1.0000 0.83320  0.77190  0.57350  Biso   1.000  C
  C47      1.0000 0.66680  0.27190  0.92650  Biso   1.000  C
  C48      1.0000 0.16680  0.77190  0.92650  Biso   1.000  C
  C49      1.0000 0.69960  0.89430  0.42060  Biso   1.000  C
  C50      1.0000 0.19960  0.39430  0.42060  Biso   1.000  C
  C51      1.0000 0.30040  0.89430  0.07940  Biso   1.000  C
  C52      1.0000 0.80040  0.39430  0.07940  Biso   1.000  C
  C53      1.0000 0.30040  0.10570  0.57940  Biso   1.000  C
  C54      1.0000 0.80040  0.60570  0.57940  Biso   1.000  C
  C55      1.0000 0.69960  0.10570  0.92060  Biso   1.000  C
  C56      1.0000 0.19960  0.60570  0.92060  Biso   1.000  C
  C57      1.0000 0.65180  0.94210  0.46650  Biso   1.000  C
  C58      1.0000 0.15180  0.44210  0.46650  Biso   1.000  C
  C59      1.0000 0.34820  0.94210  0.03350  Biso   1.000  C
  C60      1.0000 0.84820  0.44210  0.03350  Biso   1.000  C
  C61      1.0000 0.34820  0.05790  0.53350  Biso   1.000  C
  C62      1.0000 0.84820  0.55790  0.53350  Biso   1.000  C
  C63      1.0000 0.65180  0.05790  0.96650  Biso   1.000  C
  C64      1.0000 0.15180  0.55790  0.96650  Biso   1.000  C
