data_image0
_cell_length_a       11.712
_cell_length_b       5.1247
_cell_length_c       13.157
_cell_angle_alpha    90
_cell_angle_beta     110.751
_cell_angle_gamma    90

_symmetry_space_group_name_H-M    "P 1"
_symmetry_int_tables_number       1

loop_
  _symmetry_equiv_pos_as_xyz
  'x, y, z'

loop_
  _atom_site_label
  _atom_site_occupancy
  _atom_site_fract_x
  _atom_site_fract_y
  _atom_site_fract_z
  _atom_site_thermal_displace_type
  _atom_site_B_iso_or_equiv
  _atom_site_type_symbol
  Cu1      1.0000 0.56121  0.71471  0.53790  Biso   1.000  Cu
  Cu2      1.0000 0.93879  0.21471  0.46210  Biso   1.000  Cu
  Cu3      1.0000 0.43879  0.28529  0.46210  Biso   1.000  Cu
  Cu4      1.0000 0.06121  0.78529  0.53790  Biso   1.000  Cu
  O1       1.0000 0.69150  0.50530  0.63890  Biso   1.000  O
  O2       1.0000 0.80850  0.00530  0.36110  Biso   1.000  O
  O3       1.0000 0.30850  0.49470  0.36110  Biso   1.000  O
  O4       1.0000 0.19150  0.99470  0.63890  Biso   1.000  O
  O5       1.0000 0.59560  0.13480  0.56840  Biso   1.000  O
  O6       1.0000 0.90440  0.63480  0.43160  Biso   1.000  O
  O7       1.0000 0.40440  0.86520  0.43160  Biso   1.000  O
  O8       1.0000 0.09560  0.36520  0.56840  Biso   1.000  O
  O9       1.0000 0.98370  0.80050  0.64540  Biso   1.000  O
  O10      1.0000 0.51630  0.30050  0.35460  Biso   1.000  O
  O11      1.0000 0.01630  0.19950  0.35460  Biso   1.000  O
  O12      1.0000 0.48370  0.69950  0.64540  Biso   1.000  O
  O13      1.0000 0.87400  0.16040  0.57800  Biso   1.000  O
  O14      1.0000 0.62600  0.66040  0.42200  Biso   1.000  O
  O15      1.0000 0.12600  0.83960  0.42200  Biso   1.000  O
  O16      1.0000 0.37400  0.33960  0.57800  Biso   1.000  O
  C1       1.0000 0.75990  0.11150  0.73490  Biso   1.000  C
  C2       1.0000 0.74010  0.61150  0.26510  Biso   1.000  C
  C3       1.0000 0.24010  0.88850  0.26510  Biso   1.000  C
  C4       1.0000 0.25990  0.38850  0.73490  Biso   1.000  C
  C5       1.0000 0.86260  0.97050  0.73800  Biso   1.000  C
  C6       1.0000 0.63740  0.47050  0.26200  Biso   1.000  C
  C7       1.0000 0.13740  0.02950  0.26200  Biso   1.000  C
  C8       1.0000 0.36260  0.52950  0.73800  Biso   1.000  C
  C9       1.0000 0.92450  0.81850  0.82940  Biso   1.000  C
  C10      1.0000 0.57550  0.31850  0.17060  Biso   1.000  C
  C11      1.0000 0.07550  0.18150  0.17060  Biso   1.000  C
  C12      1.0000 0.42450  0.68150  0.82940  Biso   1.000  C
  C13      1.0000 0.88460  0.81080  0.91620  Biso   1.000  C
  C14      1.0000 0.61540  0.31080  0.08380  Biso   1.000  C
  C15      1.0000 0.11540  0.18920  0.08380  Biso   1.000  C
  C16      1.0000 0.38460  0.68920  0.91620  Biso   1.000  C
  C17      1.0000 0.78320  0.95390  0.91360  Biso   1.000  C
  C18      1.0000 0.71680  0.45390  0.08640  Biso   1.000  C
  C19      1.0000 0.21680  0.04610  0.08640  Biso   1.000  C
  C20      1.0000 0.28320  0.54610  0.91360  Biso   1.000  C
  C21      1.0000 0.72170  0.10180  0.82350  Biso   1.000  C
  C22      1.0000 0.77830  0.60180  0.17650  Biso   1.000  C
  C23      1.0000 0.27830  0.89820  0.17650  Biso   1.000  C
  C24      1.0000 0.22170  0.39820  0.82350  Biso   1.000  C
  C25      1.0000 0.67970  0.26330  0.63860  Biso   1.000  C
  C26      1.0000 0.82030  0.76330  0.36140  Biso   1.000  C
  C27      1.0000 0.32030  0.73670  0.36140  Biso   1.000  C
  C28      1.0000 0.17970  0.23670  0.63860  Biso   1.000  C
  C29      1.0000 0.90970  0.97720  0.64620  Biso   1.000  C
  C30      1.0000 0.59030  0.47720  0.35380  Biso   1.000  C
  C31      1.0000 0.09030  0.02280  0.35380  Biso   1.000  C
  C32      1.0000 0.40970  0.52280  0.64620  Biso   1.000  C
  H1       1.0000 0.99270  0.72230  0.83150  Biso   1.000  H
  H2       1.0000 0.50730  0.22230  0.16850  Biso   1.000  H
  H3       1.0000 0.00730  0.27770  0.16850  Biso   1.000  H
  H4       1.0000 0.49270  0.77770  0.83150  Biso   1.000  H
  H5       1.0000 0.92590  0.70930  0.97670  Biso   1.000  H
  H6       1.0000 0.57410  0.20930  0.02330  Biso   1.000  H
  H7       1.0000 0.07410  0.29070  0.02330  Biso   1.000  H
  H8       1.0000 0.42590  0.79070  0.97670  Biso   1.000  H
  H9       1.0000 0.75690  0.95010  0.97250  Biso   1.000  H
  H10      1.0000 0.74310  0.45010  0.02750  Biso   1.000  H
  H11      1.0000 0.24310  0.04990  0.02750  Biso   1.000  H
  H12      1.0000 0.25690  0.54990  0.97250  Biso   1.000  H
  H13      1.0000 0.65350  0.19680  0.82180  Biso   1.000  H
  H14      1.0000 0.84650  0.69680  0.17820  Biso   1.000  H
  H15      1.0000 0.34650  0.80320  0.17820  Biso   1.000  H
  H16      1.0000 0.15350  0.30320  0.82180  Biso   1.000  H
