data_image0
_cell_length_a       6.64
_cell_length_b       19.91
_cell_length_c       7.55
_cell_angle_alpha    90
_cell_angle_beta     109.9
_cell_angle_gamma    90

_symmetry_space_group_name_H-M    "P 1"
_symmetry_int_tables_number       1

loop_
  _symmetry_equiv_pos_as_xyz
  'x, y, z'

loop_
  _atom_site_label
  _atom_site_occupancy
  _atom_site_fract_x
  _atom_site_fract_y
  _atom_site_fract_z
  _atom_site_thermal_displace_type
  _atom_site_B_iso_or_equiv
  _atom_site_type_symbol
  C1       1.0000 0.53730  0.27520  0.43830  Biso   1.000  C
  C2       1.0000 0.46270  0.77520  0.06170  Biso   1.000  C
  C3       1.0000 0.46270  0.72480  0.56170  Biso   1.000  C
  C4       1.0000 0.53730  0.22480  0.93830  Biso   1.000  C
  Cu1      1.0000 0.05420  0.99530  0.30530  Biso   1.000  Cu
  Cu2      1.0000 0.94580  0.49530  0.19470  Biso   1.000  Cu
  Cu3      1.0000 0.94580  0.00470  0.69470  Biso   1.000  Cu
  Cu4      1.0000 0.05420  0.50470  0.80530  Biso   1.000  Cu
  C5       1.0000 0.63860  0.14520  0.36460  Biso   1.000  C
  C6       1.0000 0.36140  0.64520  0.13540  Biso   1.000  C
  C7       1.0000 0.36140  0.85480  0.63540  Biso   1.000  C
  C8       1.0000 0.63860  0.35480  0.86460  Biso   1.000  C
  C9       1.0000 0.42620  0.16330  0.33780  Biso   1.000  C
  C10      1.0000 0.57380  0.66330  0.16220  Biso   1.000  C
  C11      1.0000 0.57380  0.83670  0.66220  Biso   1.000  C
  C12      1.0000 0.42620  0.33670  0.83780  Biso   1.000  C
  C13      1.0000 0.37820  0.22770  0.37430  Biso   1.000  C
  C14      1.0000 0.62180  0.72770  0.12570  Biso   1.000  C
  C15      1.0000 0.62180  0.77230  0.62570  Biso   1.000  C
  C16      1.0000 0.37820  0.27230  0.87430  Biso   1.000  C
  C17      1.0000 0.75210  0.25790  0.47200  Biso   1.000  C
  C18      1.0000 0.24790  0.75790  0.02800  Biso   1.000  C
  C19      1.0000 0.24790  0.74210  0.52800  Biso   1.000  C
  C20      1.0000 0.75210  0.24210  0.97200  Biso   1.000  C
  C21      1.0000 0.79900  0.19330  0.43320  Biso   1.000  C
  C22      1.0000 0.20100  0.69330  0.06680  Biso   1.000  C
  C23      1.0000 0.20100  0.80670  0.56680  Biso   1.000  C
  C24      1.0000 0.79900  0.30670  0.93320  Biso   1.000  C
  C25      1.0000 0.69390  0.08000  0.30030  Biso   1.000  C
  C26      1.0000 0.30610  0.58000  0.19970  Biso   1.000  C
  C27      1.0000 0.30610  0.92000  0.69970  Biso   1.000  C
  C28      1.0000 0.69390  0.42000  0.80030  Biso   1.000  C
  C29      1.0000 0.25470  0.11140  0.28250  Biso   1.000  C
  C30      1.0000 0.74530  0.61140  0.21750  Biso   1.000  C
  C31      1.0000 0.74530  0.88860  0.71750  Biso   1.000  C
  C32      1.0000 0.25470  0.38860  0.78250  Biso   1.000  C
  H1       1.0000 0.21670  0.23610  0.37170  Biso   1.000  H
  H2       1.0000 0.78330  0.73610  0.12830  Biso   1.000  H
  H3       1.0000 0.78330  0.76390  0.62830  Biso   1.000  H
  H4       1.0000 0.21670  0.26390  0.87170  Biso   1.000  H
  H5       1.0000 0.50000  0.32080  0.47530  Biso   1.000  H
  H6       1.0000 0.50000  0.82080  0.02470  Biso   1.000  H
  H7       1.0000 0.50000  0.67920  0.52470  Biso   1.000  H
  H8       1.0000 0.50000  0.17920  0.97530  Biso   1.000  H
  H9       1.0000 0.86670  0.29010  0.52530  Biso   1.000  H
  H10      1.0000 0.13330  0.79010  0.97470  Biso   1.000  H
  H11      1.0000 0.13330  0.70990  0.47470  Biso   1.000  H
  H12      1.0000 0.86670  0.20990  0.02530  Biso   1.000  H
  H13      1.0000 0.94790  0.18110  0.44770  Biso   1.000  H
  H14      1.0000 0.05210  0.68110  0.05230  Biso   1.000  H
  H15      1.0000 0.05210  0.81890  0.55230  Biso   1.000  H
  H16      1.0000 0.94790  0.31890  0.94770  Biso   1.000  H
  N1       1.0000 0.81700  0.92920  0.20570  Biso   1.000  N
  N2       1.0000 0.18300  0.42920  0.29430  Biso   1.000  N
  N3       1.0000 0.18300  0.07080  0.79430  Biso   1.000  N
  N4       1.0000 0.81700  0.57080  0.70570  Biso   1.000  N
  N5       1.0000 0.25550  0.94460  0.20940  Biso   1.000  N
  N6       1.0000 0.74450  0.44460  0.29060  Biso   1.000  N
  N7       1.0000 0.74450  0.05540  0.79060  Biso   1.000  N
  N8       1.0000 0.25550  0.55540  0.70940  Biso   1.000  N
  O1       1.0000 0.56910  0.05500  0.15310  Biso   1.000  O
  O2       1.0000 0.43090  0.55500  0.34690  Biso   1.000  O
  O3       1.0000 0.43090  0.94500  0.84690  Biso   1.000  O
  O4       1.0000 0.56910  0.44500  0.65310  Biso   1.000  O
  O5       1.0000 0.87280  0.05410  0.40200  Biso   1.000  O
  O6       1.0000 0.12720  0.55410  0.09800  Biso   1.000  O
  O7       1.0000 0.12720  0.94590  0.59800  Biso   1.000  O
  O8       1.0000 0.87280  0.44590  0.90200  Biso   1.000  O
  O9       1.0000 0.09850  0.11620  0.13290  Biso   1.000  O
  O10      1.0000 0.90150  0.61620  0.36710  Biso   1.000  O
  O11      1.0000 0.90150  0.88380  0.86710  Biso   1.000  O
  O12      1.0000 0.09850  0.38380  0.63290  Biso   1.000  O
  O13      1.0000 0.28010  0.06370  0.40100  Biso   1.000  O
  O14      1.0000 0.71990  0.56370  0.09900  Biso   1.000  O
  O15      1.0000 0.71990  0.93630  0.59900  Biso   1.000  O
  O16      1.0000 0.28010  0.43630  0.90100  Biso   1.000  O
