data_image0
_cell_length_a       8.6407
_cell_length_b       19.3572
_cell_length_c       12.0417
_cell_angle_alpha    90
_cell_angle_beta     108.263
_cell_angle_gamma    90

_symmetry_space_group_name_H-M    "P 1"
_symmetry_int_tables_number       1

loop_
  _symmetry_equiv_pos_as_xyz
  'x, y, z'

loop_
  _atom_site_label
  _atom_site_occupancy
  _atom_site_fract_x
  _atom_site_fract_y
  _atom_site_fract_z
  _atom_site_thermal_displace_type
  _atom_site_B_iso_or_equiv
  _atom_site_type_symbol
  Cu1      1.0000 0.60653  0.05656  0.98446  Biso   1.000  Cu
  Cu2      1.0000 0.89347  0.55656  0.51554  Biso   1.000  Cu
  Cu3      1.0000 0.39347  0.94344  0.01554  Biso   1.000  Cu
  Cu4      1.0000 0.10653  0.44344  0.48446  Biso   1.000  Cu
  Cu5      1.0000 0.33475  0.00488  0.74259  Biso   1.000  Cu
  Cu6      1.0000 0.16525  0.50488  0.75741  Biso   1.000  Cu
  Cu7      1.0000 0.66525  0.99512  0.25741  Biso   1.000  Cu
  Cu8      1.0000 0.83475  0.49512  0.24259  Biso   1.000  Cu
  O1       1.0000 0.47570  0.10019  0.72810  Biso   1.000  O
  O2       1.0000 0.02430  0.60019  0.77190  Biso   1.000  O
  O3       1.0000 0.52430  0.89981  0.27190  Biso   1.000  O
  O4       1.0000 0.97570  0.39981  0.22810  Biso   1.000  O
  O5       1.0000 0.56510  0.14558  0.90816  Biso   1.000  O
  O6       1.0000 0.93490  0.64558  0.59184  Biso   1.000  O
  O7       1.0000 0.43490  0.85442  0.09184  Biso   1.000  O
  O8       1.0000 0.06510  0.35442  0.40816  Biso   1.000  O
  O9       1.0000 0.72600  0.99107  0.87885  Biso   1.000  O
  O10      1.0000 0.77400  0.49107  0.62115  Biso   1.000  O
  O11      1.0000 0.27400  0.00893  0.12115  Biso   1.000  O
  O12      1.0000 0.22600  0.50893  0.37885  Biso   1.000  O
  O13      1.0000 0.50030  0.93085  0.78196  Biso   1.000  O
  O14      1.0000 0.99970  0.43085  0.71804  Biso   1.000  O
  O15      1.0000 0.49970  0.06915  0.21804  Biso   1.000  O
  O16      1.0000 0.00030  0.56915  0.28196  Biso   1.000  O
  O17      1.0000 0.12120  0.05252  0.69700  Biso   1.000  O
  O18      1.0000 0.37880  0.55252  0.80300  Biso   1.000  O
  O19      1.0000 0.87880  0.94748  0.30300  Biso   1.000  O
  O20      1.0000 0.62120  0.44748  0.19700  Biso   1.000  O
  O21      1.0000 0.11500  0.10079  0.86506  Biso   1.000  O
  O22      1.0000 0.38500  0.60079  0.63494  Biso   1.000  O
  O23      1.0000 0.88500  0.89921  0.13494  Biso   1.000  O
  O24      1.0000 0.61500  0.39921  0.36506  Biso   1.000  O
  O25      1.0000 0.38250  0.02409  0.91162  Biso   1.000  O
  O26      1.0000 0.11750  0.52409  0.58838  Biso   1.000  O
  O27      1.0000 0.61750  0.97591  0.08838  Biso   1.000  O
  O28      1.0000 0.88250  0.47591  0.41162  Biso   1.000  O
  N1       1.0000 0.45380  0.22416  0.62450  Biso   1.000  N
  N2       1.0000 0.04620  0.72416  0.87550  Biso   1.000  N
  N3       1.0000 0.54620  0.77584  0.37550  Biso   1.000  N
  N4       1.0000 0.95380  0.27584  0.12450  Biso   1.000  N
  N5       1.0000 0.57320  0.23078  0.57940  Biso   1.000  N
  N6       1.0000 0.92680  0.73078  0.92060  Biso   1.000  N
  N7       1.0000 0.42680  0.76922  0.42060  Biso   1.000  N
  N8       1.0000 0.07320  0.26922  0.07940  Biso   1.000  N
  N9       1.0000 0.50750  0.22747  0.46640  Biso   1.000  N
  N10      1.0000 0.99250  0.72747  0.03360  Biso   1.000  N
  N11      1.0000 0.49250  0.77253  0.53360  Biso   1.000  N
  N12      1.0000 0.00750  0.27253  0.96640  Biso   1.000  N
  N13      1.0000 0.34850  0.21740  0.43830  Biso   1.000  N
  N14      1.0000 0.15150  0.71740  0.06170  Biso   1.000  N
  N15      1.0000 0.65150  0.78260  0.56170  Biso   1.000  N
  N16      1.0000 0.84850  0.28260  0.93830  Biso   1.000  N
  N17      1.0000 0.92290  0.89141  0.83100  Biso   1.000  N
  N18      1.0000 0.57710  0.39141  0.66900  Biso   1.000  N
  N19      1.0000 0.07710  0.10859  0.16900  Biso   1.000  N
  N20      1.0000 0.42290  0.60859  0.33100  Biso   1.000  N
  N21      1.0000 0.99380  0.89109  0.74620  Biso   1.000  N
  N22      1.0000 0.50620  0.39109  0.75380  Biso   1.000  N
  N23      1.0000 0.00620  0.10891  0.25380  Biso   1.000  N
  N24      1.0000 0.49380  0.60891  0.24620  Biso   1.000  N
  N25      1.0000 0.14630  0.90438  0.79710  Biso   1.000  N
  N26      1.0000 0.35370  0.40438  0.70290  Biso   1.000  N
  N27      1.0000 0.85370  0.09562  0.20290  Biso   1.000  N
  N28      1.0000 0.64630  0.59562  0.29710  Biso   1.000  N
  N29      1.0000 0.17430  0.91294  0.91400  Biso   1.000  N
  N30      1.0000 0.32570  0.41294  0.58600  Biso   1.000  N
  N31      1.0000 0.82570  0.08706  0.08600  Biso   1.000  N
  N32      1.0000 0.67430  0.58706  0.41400  Biso   1.000  N
  N33      1.0000 0.79680  0.06306  0.59780  Biso   1.000  N
  N34      1.0000 0.70320  0.56306  0.90220  Biso   1.000  N
  N35      1.0000 0.20320  0.93694  0.40220  Biso   1.000  N
  N36      1.0000 0.29680  0.43694  0.09780  Biso   1.000  N
  N37      1.0000 0.73500  0.00133  0.60690  Biso   1.000  N
  N38      1.0000 0.76500  0.50133  0.89310  Biso   1.000  N
  N39      1.0000 0.26500  0.99867  0.39310  Biso   1.000  N
  N40      1.0000 0.23500  0.49867  0.10690  Biso   1.000  N
  N41      1.0000 0.68590  0.97495  0.50360  Biso   1.000  N
  N42      1.0000 0.81410  0.47495  0.99640  Biso   1.000  N
  N43      1.0000 0.31410  0.02505  0.49640  Biso   1.000  N
  N44      1.0000 0.18590  0.52505  0.00360  Biso   1.000  N
  N45      1.0000 0.71750  0.01999  0.42690  Biso   1.000  N
  N46      1.0000 0.78250  0.51999  0.07310  Biso   1.000  N
  N47      1.0000 0.28250  0.98001  0.57310  Biso   1.000  N
  N48      1.0000 0.21750  0.48001  0.92690  Biso   1.000  N
  C1       1.0000 0.51020  0.14867  0.79700  Biso   1.000  C
  C2       1.0000 0.98980  0.64867  0.70300  Biso   1.000  C
  C3       1.0000 0.48980  0.85133  0.20300  Biso   1.000  C
  C4       1.0000 0.01020  0.35133  0.29700  Biso   1.000  C
  C5       1.0000 0.48690  0.22184  0.75030  Biso   1.000  C
  C6       1.0000 0.01310  0.72184  0.74970  Biso   1.000  C
  C7       1.0000 0.51310  0.77816  0.24970  Biso   1.000  C
  C8       1.0000 0.98690  0.27816  0.25030  Biso   1.000  C
  H1       1.0000 0.58440  0.24850  0.78790  Biso   1.000  H
  H2       1.0000 0.91560  0.74850  0.71210  Biso   1.000  H
  H3       1.0000 0.41560  0.75150  0.21210  Biso   1.000  H
  H4       1.0000 0.08440  0.25150  0.28790  Biso   1.000  H
  H5       1.0000 0.39700  0.24300  0.76980  Biso   1.000  H
  H6       1.0000 0.10300  0.74300  0.73020  Biso   1.000  H
  H7       1.0000 0.60300  0.75700  0.23020  Biso   1.000  H
  H8       1.0000 0.89700  0.25700  0.26980  Biso   1.000  H
  C9       1.0000 0.31840  0.21530  0.53720  Biso   1.000  C
  C10      1.0000 0.18160  0.71530  0.96280  Biso   1.000  C
  C11      1.0000 0.68160  0.78470  0.46280  Biso   1.000  C
  C12      1.0000 0.81840  0.28470  0.03720  Biso   1.000  C
  H9       1.0000 0.21590  0.20840  0.54530  Biso   1.000  H
  H10      1.0000 0.28410  0.70840  0.95470  Biso   1.000  H
  H11      1.0000 0.78410  0.79160  0.45470  Biso   1.000  H
  H12      1.0000 0.71590  0.29160  0.04530  Biso   1.000  H
  C13      1.0000 0.65410  0.94080  0.82380  Biso   1.000  C
  C14      1.0000 0.84590  0.44080  0.67620  Biso   1.000  C
  C15      1.0000 0.34590  0.05920  0.17620  Biso   1.000  C
  C16      1.0000 0.15410  0.55920  0.32380  Biso   1.000  C
  C17      1.0000 0.74890  0.87796  0.80330  Biso   1.000  C
  C18      1.0000 0.75110  0.37796  0.69670  Biso   1.000  C
  C19      1.0000 0.25110  0.12204  0.19670  Biso   1.000  C
  C20      1.0000 0.24890  0.62204  0.30330  Biso   1.000  C
  H13      1.0000 0.73320  0.83990  0.85110  Biso   1.000  H
  H14      1.0000 0.76680  0.33990  0.64890  Biso   1.000  H
  H15      1.0000 0.26680  0.16010  0.14890  Biso   1.000  H
  H16      1.0000 0.23320  0.66010  0.35110  Biso   1.000  H
  H17      1.0000 0.70550  0.86400  0.72200  Biso   1.000  H
  H18      1.0000 0.79450  0.36400  0.77800  Biso   1.000  H
  H19      1.0000 0.29450  0.13600  0.27800  Biso   1.000  H
  H20      1.0000 0.20550  0.63600  0.22200  Biso   1.000  H
  C21      1.0000 0.03440  0.90460  0.93220  Biso   1.000  C
  C22      1.0000 0.46560  0.40460  0.56780  Biso   1.000  C
  C23      1.0000 0.96560  0.09540  0.06780  Biso   1.000  C
  C24      1.0000 0.53440  0.59540  0.43220  Biso   1.000  C
  H21      1.0000 0.01630  0.90750  0.00420  Biso   1.000  H
  H22      1.0000 0.48370  0.40750  0.49580  Biso   1.000  H
  H23      1.0000 0.98370  0.09250  0.99580  Biso   1.000  H
  H24      1.0000 0.51630  0.59250  0.50420  Biso   1.000  H
  C25      1.0000 0.05290  0.08346  0.76060  Biso   1.000  C
  C26      1.0000 0.44710  0.58346  0.73940  Biso   1.000  C
  C27      1.0000 0.94710  0.91654  0.23940  Biso   1.000  C
  C28      1.0000 0.55290  0.41654  0.26060  Biso   1.000  C
  C29      1.0000 0.87450  0.10390  0.70280  Biso   1.000  C
  C30      1.0000 0.62550  0.60390  0.79720  Biso   1.000  C
  C31      1.0000 0.12550  0.89610  0.29720  Biso   1.000  C
  C32      1.0000 0.37450  0.39610  0.20280  Biso   1.000  C
  H25      1.0000 0.81520  0.09750  0.75840  Biso   1.000  H
  H26      1.0000 0.68480  0.59750  0.74160  Biso   1.000  H
  H27      1.0000 0.18480  0.90250  0.24160  Biso   1.000  H
  H28      1.0000 0.31520  0.40250  0.25840  Biso   1.000  H
  H29      1.0000 0.86900  0.15240  0.68210  Biso   1.000  H
  H30      1.0000 0.63100  0.65240  0.81790  Biso   1.000  H
  H31      1.0000 0.13100  0.84760  0.31790  Biso   1.000  H
  H32      1.0000 0.36900  0.34760  0.18210  Biso   1.000  H
  C33      1.0000 0.78610  0.07330  0.48780  Biso   1.000  C
  C34      1.0000 0.71390  0.57330  0.01220  Biso   1.000  C
  C35      1.0000 0.21390  0.92670  0.51220  Biso   1.000  C
  C36      1.0000 0.28610  0.42670  0.98780  Biso   1.000  C
  H33      1.0000 0.82200  0.11240  0.45840  Biso   1.000  H
  H34      1.0000 0.67800  0.61240  0.04160  Biso   1.000  H
  H35      1.0000 0.17800  0.88760  0.54160  Biso   1.000  H
  H36      1.0000 0.32200  0.38760  0.95840  Biso   1.000  H
  O29      1.0000 0.38080  0.78334  0.73920  Biso   1.000  O
  O30      1.0000 0.11920  0.28334  0.76080  Biso   1.000  O
  O31      1.0000 0.61920  0.21666  0.26080  Biso   1.000  O
  O32      1.0000 0.88080  0.71666  0.23920  Biso   1.000  O
  O33      1.0000 0.94430  0.23530  0.53460  Biso   1.000  O
  O34      1.0000 0.55570  0.73530  0.96540  Biso   1.000  O
  O35      1.0000 0.05570  0.76470  0.46540  Biso   1.000  O
  O36      1.0000 0.44430  0.26470  0.03460  Biso   1.000  O
