data_image0
_cell_length_a       11.437
_cell_length_b       23.849
_cell_length_c       6.68
_cell_angle_alpha    90
_cell_angle_beta     90
_cell_angle_gamma    90

_symmetry_space_group_name_H-M    "P 1"
_symmetry_int_tables_number       1

loop_
  _symmetry_equiv_pos_as_xyz
  'x, y, z'

loop_
  _atom_site_label
  _atom_site_occupancy
  _atom_site_fract_x
  _atom_site_fract_y
  _atom_site_fract_z
  _atom_site_thermal_displace_type
  _atom_site_B_iso_or_equiv
  _atom_site_type_symbol
  Cu1      1.0000 0.70840  0.66305  0.00000  Biso   1.000  Cu
  Cu2      1.0000 0.79160  0.16305  0.50000  Biso   1.000  Cu
  Cu3      1.0000 0.20840  0.83695  0.00000  Biso   1.000  Cu
  Cu4      1.0000 0.29160  0.33695  0.50000  Biso   1.000  Cu
  O1       1.0000 0.20840  0.74440  0.68700  Biso   1.000  O
  O2       1.0000 0.29160  0.24440  0.18700  Biso   1.000  O
  O3       1.0000 0.70840  0.75560  0.68700  Biso   1.000  O
  O4       1.0000 0.79160  0.25560  0.18700  Biso   1.000  O
  O5       1.0000 0.54860  0.65110  0.79100  Biso   1.000  O
  O6       1.0000 0.95140  0.15110  0.29100  Biso   1.000  O
  O7       1.0000 0.04860  0.84890  0.79100  Biso   1.000  O
  O8       1.0000 0.45140  0.34890  0.29100  Biso   1.000  O
  N1       1.0000 0.31800  0.77430  0.94200  Biso   1.000  N
  N2       1.0000 0.18200  0.27430  0.44200  Biso   1.000  N
  N3       1.0000 0.81800  0.72570  0.94200  Biso   1.000  N
  N4       1.0000 0.68200  0.22570  0.44200  Biso   1.000  N
  N5       1.0000 0.37950  0.69760  0.73700  Biso   1.000  N
  N6       1.0000 0.12050  0.19760  0.23700  Biso   1.000  N
  N7       1.0000 0.87950  0.80240  0.73700  Biso   1.000  N
  N8       1.0000 0.62050  0.30240  0.23700  Biso   1.000  N
  N9       1.0000 0.59540  0.71620  0.11800  Biso   1.000  N
  N10      1.0000 0.90460  0.21620  0.61800  Biso   1.000  N
  N11      1.0000 0.09540  0.78380  0.11800  Biso   1.000  N
  N12      1.0000 0.40460  0.28380  0.61800  Biso   1.000  N
  N13      1.0000 0.42540  0.79940  0.22000  Biso   1.000  N
  N14      1.0000 0.07460  0.29940  0.72000  Biso   1.000  N
  N15      1.0000 0.92540  0.70060  0.22000  Biso   1.000  N
  N16      1.0000 0.57460  0.20060  0.72000  Biso   1.000  N
  C1       1.0000 0.29600  0.74080  0.78500  Biso   1.000  C
  C2       1.0000 0.20400  0.24080  0.28500  Biso   1.000  C
  C3       1.0000 0.79600  0.75920  0.78500  Biso   1.000  C
  C4       1.0000 0.70400  0.25920  0.28500  Biso   1.000  C
  C5       1.0000 0.47900  0.68860  0.83300  Biso   1.000  C
  C6       1.0000 0.02100  0.18860  0.33300  Biso   1.000  C
  C7       1.0000 0.97900  0.81140  0.83300  Biso   1.000  C
  C8       1.0000 0.52100  0.31140  0.33300  Biso   1.000  C
  C9       1.0000 0.49700  0.72560  0.01000  Biso   1.000  C
  C10      1.0000 0.00300  0.22560  0.51000  Biso   1.000  C
  C11      1.0000 0.99700  0.77440  0.01000  Biso   1.000  C
  C12      1.0000 0.50300  0.27440  0.51000  Biso   1.000  C
  C13      1.0000 0.60600  0.74850  0.28300  Biso   1.000  C
  C14      1.0000 0.89400  0.24850  0.78300  Biso   1.000  C
  C15      1.0000 0.10600  0.75150  0.28300  Biso   1.000  C
  C16      1.0000 0.39400  0.25150  0.78300  Biso   1.000  C
  C17      1.0000 0.52500  0.78680  0.32900  Biso   1.000  C
  C18      1.0000 0.97500  0.28680  0.82900  Biso   1.000  C
  C19      1.0000 0.02500  0.71320  0.32900  Biso   1.000  C
  C20      1.0000 0.47500  0.21320  0.82900  Biso   1.000  C
  C21      1.0000 0.41570  0.76720  0.05400  Biso   1.000  C
  C22      1.0000 0.08430  0.26720  0.55400  Biso   1.000  C
  C23      1.0000 0.91570  0.73280  0.05400  Biso   1.000  C
  C24      1.0000 0.58430  0.23280  0.55400  Biso   1.000  C
  N17      1.0000 0.79320  0.60660  0.84300  Biso   1.000  N
  N18      1.0000 0.70680  0.10660  0.34300  Biso   1.000  N
  N19      1.0000 0.29320  0.89340  0.84300  Biso   1.000  N
  N20      1.0000 0.20680  0.39340  0.34300  Biso   1.000  N
  N21      1.0000 0.67060  0.59510  0.16800  Biso   1.000  N
  N22      1.0000 0.82940  0.09510  0.66800  Biso   1.000  N
  N23      1.0000 0.17060  0.90490  0.16800  Biso   1.000  N
  N24      1.0000 0.32940  0.40490  0.66800  Biso   1.000  N
  C25      1.0000 0.84600  0.61530  0.66200  Biso   1.000  C
  C26      1.0000 0.65400  0.11530  0.16200  Biso   1.000  C
  C27      1.0000 0.34600  0.88470  0.66200  Biso   1.000  C
  C28      1.0000 0.15400  0.38470  0.16200  Biso   1.000  C
  C29      1.0000 0.90000  0.57340  0.56000  Biso   1.000  C
  C30      1.0000 0.60000  0.07340  0.06000  Biso   1.000  C
  C31      1.0000 0.40000  0.92660  0.56000  Biso   1.000  C
  C32      1.0000 0.10000  0.42660  0.06000  Biso   1.000  C
  C33      1.0000 0.89700  0.52140  0.63400  Biso   1.000  C
  C34      1.0000 0.60300  0.02140  0.13400  Biso   1.000  C
  C35      1.0000 0.39700  0.97860  0.63400  Biso   1.000  C
  C36      1.0000 0.10300  0.47860  0.13400  Biso   1.000  C
  C37      1.0000 0.83700  0.50830  0.80800  Biso   1.000  C
  C38      1.0000 0.66300  0.00830  0.30800  Biso   1.000  C
  C39      1.0000 0.33700  0.99170  0.80800  Biso   1.000  C
  C40      1.0000 0.16300  0.49170  0.30800  Biso   1.000  C
  C41      1.0000 0.78800  0.55280  0.91100  Biso   1.000  C
  C42      1.0000 0.71200  0.05280  0.41100  Biso   1.000  C
  C43      1.0000 0.28800  0.94720  0.91100  Biso   1.000  C
  C44      1.0000 0.21200  0.44720  0.41100  Biso   1.000  C
  C45      1.0000 0.71900  0.54660  0.09900  Biso   1.000  C
  C46      1.0000 0.78100  0.04660  0.59900  Biso   1.000  C
  C47      1.0000 0.21900  0.95340  0.09900  Biso   1.000  C
  C48      1.0000 0.28100  0.45340  0.59900  Biso   1.000  C
  C49      1.0000 0.70100  0.49690  0.19800  Biso   1.000  C
  C50      1.0000 0.79900  0.99690  0.69800  Biso   1.000  C
  C51      1.0000 0.20100  0.00310  0.19800  Biso   1.000  C
  C52      1.0000 0.29900  0.50310  0.69800  Biso   1.000  C
  C53      1.0000 0.63900  0.49540  0.37400  Biso   1.000  C
  C54      1.0000 0.86100  0.99540  0.87400  Biso   1.000  C
  C55      1.0000 0.13900  0.00460  0.37400  Biso   1.000  C
  C56      1.0000 0.36100  0.50460  0.87400  Biso   1.000  C
  C57      1.0000 0.58700  0.54580  0.43900  Biso   1.000  C
  C58      1.0000 0.91300  0.04580  0.93900  Biso   1.000  C
  C59      1.0000 0.08700  0.95420  0.43900  Biso   1.000  C
  C60      1.0000 0.41300  0.45420  0.93900  Biso   1.000  C
  C61      1.0000 0.60800  0.59310  0.33500  Biso   1.000  C
  C62      1.0000 0.89200  0.09310  0.83500  Biso   1.000  C
  C63      1.0000 0.10800  0.90690  0.33500  Biso   1.000  C
  C64      1.0000 0.39200  0.40690  0.83500  Biso   1.000  C
  O9       1.0000 0.36000  0.66170  0.32700  Biso   1.000  O
  O10      1.0000 0.14000  0.16170  0.82700  Biso   1.000  O
  O11      1.0000 0.86000  0.83830  0.32700  Biso   1.000  O
  O12      1.0000 0.64000  0.33830  0.82700  Biso   1.000  O
  O13      1.0000 0.23000  0.61980  0.43400  Biso   1.000  O
  O14      1.0000 0.27000  0.11980  0.93400  Biso   1.000  O
  O15      1.0000 0.73000  0.88020  0.43400  Biso   1.000  O
  O16      1.0000 0.77000  0.38020  0.93400  Biso   1.000  O
  O17      1.0000 0.26200  0.62010  0.13000  Biso   1.000  O
  O18      1.0000 0.23800  0.12010  0.63000  Biso   1.000  O
  O19      1.0000 0.76200  0.87990  0.13000  Biso   1.000  O
  O20      1.0000 0.73800  0.37990  0.63000  Biso   1.000  O
  N25      1.0000 0.28200  0.63130  0.28800  Biso   1.000  N
  N26      1.0000 0.21800  0.13130  0.78800  Biso   1.000  N
  N27      1.0000 0.78200  0.86870  0.28800  Biso   1.000  N
  N28      1.0000 0.71800  0.36870  0.78800  Biso   1.000  N
  O21      1.0000 0.10100  0.62390  0.84500  Biso   1.000  O
  O22      1.0000 0.39900  0.12390  0.34500  Biso   1.000  O
  O23      1.0000 0.60100  0.87610  0.84500  Biso   1.000  O
  O24      1.0000 0.89900  0.37610  0.34500  Biso   1.000  O
  H1       1.0000 0.84300  0.65200  0.60500  Biso   1.000  H
  H2       1.0000 0.65700  0.15200  0.10500  Biso   1.000  H
  H3       1.0000 0.34300  0.84800  0.60500  Biso   1.000  H
  H4       1.0000 0.15700  0.34800  0.10500  Biso   1.000  H
  H5       1.0000 0.94300  0.58200  0.43800  Biso   1.000  H
  H6       1.0000 0.55700  0.08200  0.93800  Biso   1.000  H
  H7       1.0000 0.44300  0.91800  0.43800  Biso   1.000  H
  H8       1.0000 0.05700  0.41800  0.93800  Biso   1.000  H
  H9       1.0000 0.93600  0.49200  0.56700  Biso   1.000  H
  H10      1.0000 0.56400  0.99200  0.06700  Biso   1.000  H
  H11      1.0000 0.43600  0.00800  0.56700  Biso   1.000  H
  H12      1.0000 0.06400  0.50800  0.06700  Biso   1.000  H
  H13      1.0000 0.82900  0.47100  0.85500  Biso   1.000  H
  H14      1.0000 0.67100  0.97100  0.35500  Biso   1.000  H
  H15      1.0000 0.32900  0.02900  0.85500  Biso   1.000  H
  H16      1.0000 0.17100  0.52900  0.35500  Biso   1.000  H
  H17      1.0000 0.73500  0.46300  0.14700  Biso   1.000  H
  H18      1.0000 0.76500  0.96300  0.64700  Biso   1.000  H
  H19      1.0000 0.23500  0.03700  0.14700  Biso   1.000  H
  H20      1.0000 0.26500  0.53700  0.64700  Biso   1.000  H
  H21      1.0000 0.63100  0.46100  0.44800  Biso   1.000  H
  H22      1.0000 0.86900  0.96100  0.94800  Biso   1.000  H
  H23      1.0000 0.13100  0.03900  0.44800  Biso   1.000  H
  H24      1.0000 0.36900  0.53900  0.94800  Biso   1.000  H
  H25      1.0000 0.53800  0.54700  0.55300  Biso   1.000  H
  H26      1.0000 0.96200  0.04700  0.05300  Biso   1.000  H
  H27      1.0000 0.03800  0.95300  0.55300  Biso   1.000  H
  H28      1.0000 0.46200  0.45300  0.05300  Biso   1.000  H
  H29      1.0000 0.57700  0.62800  0.38600  Biso   1.000  H
  H30      1.0000 0.92300  0.12800  0.88600  Biso   1.000  H
  H31      1.0000 0.07700  0.87200  0.38600  Biso   1.000  H
  H32      1.0000 0.42300  0.37200  0.88600  Biso   1.000  H
  H33      1.0000 0.36200  0.67400  0.62700  Biso   1.000  H
  H34      1.0000 0.13800  0.17400  0.12700  Biso   1.000  H
  H35      1.0000 0.86200  0.82600  0.62700  Biso   1.000  H
  H36      1.0000 0.63800  0.32600  0.12700  Biso   1.000  H
  H37      1.0000 0.67300  0.74300  0.36700  Biso   1.000  H
  H38      1.0000 0.82700  0.24300  0.86700  Biso   1.000  H
  H39      1.0000 0.17300  0.75700  0.36700  Biso   1.000  H
  H40      1.0000 0.32700  0.25700  0.86700  Biso   1.000  H
  H41      1.0000 0.53600  0.80700  0.45000  Biso   1.000  H
  H42      1.0000 0.96400  0.30700  0.95000  Biso   1.000  H
  H43      1.0000 0.03600  0.69300  0.45000  Biso   1.000  H
  H44      1.0000 0.46400  0.19300  0.95000  Biso   1.000  H
