data_image0
_cell_length_a       14.87
_cell_length_b       13.8304
_cell_length_c       7.022
_cell_angle_alpha    90
_cell_angle_beta     108.63
_cell_angle_gamma    90

_symmetry_space_group_name_H-M    "P 1"
_symmetry_int_tables_number       1

loop_
  _symmetry_equiv_pos_as_xyz
  'x, y, z'

loop_
  _atom_site_label
  _atom_site_occupancy
  _atom_site_fract_x
  _atom_site_fract_y
  _atom_site_fract_z
  _atom_site_thermal_displace_type
  _atom_site_B_iso_or_equiv
  _atom_site_type_symbol
  Cu1      1.0000 0.00000  0.79934  0.25000  Biso   1.000  Cu
  Cu2      1.0000 0.50000  0.29934  0.25000  Biso   1.000  Cu
  Cu3      1.0000 0.00000  0.20066  0.75000  Biso   1.000  Cu
  Cu4      1.0000 0.50000  0.70066  0.75000  Biso   1.000  Cu
  N1       1.0000 0.09025  0.68984  0.26330  Biso   1.000  N
  N2       1.0000 0.59025  0.18984  0.26330  Biso   1.000  N
  N3       1.0000 0.90975  0.68984  0.23670  Biso   1.000  N
  N4       1.0000 0.40975  0.18984  0.23670  Biso   1.000  N
  N5       1.0000 0.90975  0.31016  0.73670  Biso   1.000  N
  N6       1.0000 0.40975  0.81016  0.73670  Biso   1.000  N
  N7       1.0000 0.09025  0.31016  0.76330  Biso   1.000  N
  N8       1.0000 0.59025  0.81016  0.76330  Biso   1.000  N
  C1       1.0000 0.04873  0.60211  0.25720  Biso   1.000  C
  C2       1.0000 0.54873  0.10211  0.25720  Biso   1.000  C
  C3       1.0000 0.95127  0.60211  0.24280  Biso   1.000  C
  C4       1.0000 0.45127  0.10211  0.24280  Biso   1.000  C
  C5       1.0000 0.95127  0.39789  0.74280  Biso   1.000  C
  C6       1.0000 0.45127  0.89789  0.74280  Biso   1.000  C
  C7       1.0000 0.04873  0.39789  0.75720  Biso   1.000  C
  C8       1.0000 0.54873  0.89789  0.75720  Biso   1.000  C
  C9       1.0000 0.09730  0.51460  0.26270  Biso   1.000  C
  C10      1.0000 0.59730  0.01460  0.26270  Biso   1.000  C
  C11      1.0000 0.90270  0.51460  0.23730  Biso   1.000  C
  C12      1.0000 0.40270  0.01460  0.23730  Biso   1.000  C
  C13      1.0000 0.90270  0.48540  0.73730  Biso   1.000  C
  C14      1.0000 0.40270  0.98540  0.73730  Biso   1.000  C
  C15      1.0000 0.09730  0.48540  0.76270  Biso   1.000  C
  C16      1.0000 0.59730  0.98540  0.76270  Biso   1.000  C
  C17      1.0000 0.19310  0.52080  0.27500  Biso   1.000  C
  C18      1.0000 0.69310  0.02080  0.27500  Biso   1.000  C
  C19      1.0000 0.80690  0.52080  0.22500  Biso   1.000  C
  C20      1.0000 0.30690  0.02080  0.22500  Biso   1.000  C
  C21      1.0000 0.80690  0.47920  0.72500  Biso   1.000  C
  C22      1.0000 0.30690  0.97920  0.72500  Biso   1.000  C
  C23      1.0000 0.19310  0.47920  0.77500  Biso   1.000  C
  C24      1.0000 0.69310  0.97920  0.77500  Biso   1.000  C
  H1       1.0000 0.22830  0.46470  0.27980  Biso   1.000  H
  H2       1.0000 0.72830  0.96470  0.27980  Biso   1.000  H
  H3       1.0000 0.77170  0.46470  0.22020  Biso   1.000  H
  H4       1.0000 0.27170  0.96470  0.22020  Biso   1.000  H
  H5       1.0000 0.77170  0.53530  0.72020  Biso   1.000  H
  H6       1.0000 0.27170  0.03530  0.72020  Biso   1.000  H
  H7       1.0000 0.22830  0.53530  0.77980  Biso   1.000  H
  H8       1.0000 0.72830  0.03530  0.77980  Biso   1.000  H
  C25      1.0000 0.23470  0.60920  0.28010  Biso   1.000  C
  C26      1.0000 0.73470  0.10920  0.28010  Biso   1.000  C
  C27      1.0000 0.76530  0.60920  0.21990  Biso   1.000  C
  C28      1.0000 0.26530  0.10920  0.21990  Biso   1.000  C
  C29      1.0000 0.76530  0.39080  0.71990  Biso   1.000  C
  C30      1.0000 0.26530  0.89080  0.71990  Biso   1.000  C
  C31      1.0000 0.23470  0.39080  0.78010  Biso   1.000  C
  C32      1.0000 0.73470  0.89080  0.78010  Biso   1.000  C
  H9       1.0000 0.29820  0.61380  0.28790  Biso   1.000  H
  H10      1.0000 0.79820  0.11380  0.28790  Biso   1.000  H
  H11      1.0000 0.70180  0.61380  0.21210  Biso   1.000  H
  H12      1.0000 0.20180  0.11380  0.21210  Biso   1.000  H
  H13      1.0000 0.70180  0.38620  0.71210  Biso   1.000  H
  H14      1.0000 0.20180  0.88620  0.71210  Biso   1.000  H
  H15      1.0000 0.29820  0.38620  0.78790  Biso   1.000  H
  H16      1.0000 0.79820  0.88620  0.78790  Biso   1.000  H
  C33      1.0000 0.18080  0.69280  0.27320  Biso   1.000  C
  C34      1.0000 0.68080  0.19280  0.27320  Biso   1.000  C
  C35      1.0000 0.81920  0.69280  0.22680  Biso   1.000  C
  C36      1.0000 0.31920  0.19280  0.22680  Biso   1.000  C
  C37      1.0000 0.81920  0.30720  0.72680  Biso   1.000  C
  C38      1.0000 0.31920  0.80720  0.72680  Biso   1.000  C
  C39      1.0000 0.18080  0.30720  0.77320  Biso   1.000  C
  C40      1.0000 0.68080  0.80720  0.77320  Biso   1.000  C
  H17      1.0000 0.20950  0.75270  0.27570  Biso   1.000  H
  H18      1.0000 0.70950  0.25270  0.27570  Biso   1.000  H
  H19      1.0000 0.79050  0.75270  0.22430  Biso   1.000  H
  H20      1.0000 0.29050  0.25270  0.22430  Biso   1.000  H
  H21      1.0000 0.79050  0.24730  0.72430  Biso   1.000  H
  H22      1.0000 0.29050  0.74730  0.72430  Biso   1.000  H
  H23      1.0000 0.20950  0.24730  0.77570  Biso   1.000  H
  H24      1.0000 0.70950  0.74730  0.77570  Biso   1.000  H
  C41      1.0000 0.04570  0.42580  0.25590  Biso   1.000  C
  C42      1.0000 0.54570  0.92580  0.25590  Biso   1.000  C
  C43      1.0000 0.95430  0.42580  0.24410  Biso   1.000  C
  C44      1.0000 0.45430  0.92580  0.24410  Biso   1.000  C
  C45      1.0000 0.95430  0.57420  0.74410  Biso   1.000  C
  C46      1.0000 0.45430  0.07420  0.74410  Biso   1.000  C
  C47      1.0000 0.04570  0.57420  0.75590  Biso   1.000  C
  C48      1.0000 0.54570  0.07420  0.75590  Biso   1.000  C
  H25      1.0000 0.07680  0.36710  0.25990  Biso   1.000  H
  H26      1.0000 0.57680  0.86710  0.25990  Biso   1.000  H
  H27      1.0000 0.92320  0.36710  0.24010  Biso   1.000  H
  H28      1.0000 0.42320  0.86710  0.24010  Biso   1.000  H
  H29      1.0000 0.92320  0.63290  0.74010  Biso   1.000  H
  H30      1.0000 0.42320  0.13290  0.74010  Biso   1.000  H
  H31      1.0000 0.07680  0.63290  0.75990  Biso   1.000  H
  H32      1.0000 0.57680  0.13290  0.75990  Biso   1.000  H
  P1       1.0000 0.00000  0.86072  0.75000  Biso   1.000  P
  P2       1.0000 0.50000  0.36072  0.75000  Biso   1.000  P
  P3       1.0000 0.00000  0.13928  0.25000  Biso   1.000  P
  P4       1.0000 0.50000  0.63928  0.25000  Biso   1.000  P
  O1       1.0000 0.07624  0.92421  0.87660  Biso   1.000  O
  O2       1.0000 0.57624  0.42421  0.87660  Biso   1.000  O
  O3       1.0000 0.92376  0.92421  0.62340  Biso   1.000  O
  O4       1.0000 0.42376  0.42421  0.62340  Biso   1.000  O
  O5       1.0000 0.92376  0.07579  0.12340  Biso   1.000  O
  O6       1.0000 0.42376  0.57579  0.12340  Biso   1.000  O
  O7       1.0000 0.07624  0.07579  0.37660  Biso   1.000  O
  O8       1.0000 0.57624  0.57579  0.37660  Biso   1.000  O
  H33      1.0000 0.13200  0.91580  0.95760  Biso   1.000  H
  H34      1.0000 0.63200  0.41580  0.95760  Biso   1.000  H
  H35      1.0000 0.86800  0.91580  0.54240  Biso   1.000  H
  H36      1.0000 0.36800  0.41580  0.54240  Biso   1.000  H
  H37      1.0000 0.86800  0.08420  0.04240  Biso   1.000  H
  H38      1.0000 0.36800  0.58420  0.04240  Biso   1.000  H
  H39      1.0000 0.13200  0.08420  0.45760  Biso   1.000  H
  H40      1.0000 0.63200  0.58420  0.45760  Biso   1.000  H
  O9       1.0000 0.96322  0.80171  0.88120  Biso   1.000  O
  O10      1.0000 0.46322  0.30171  0.88120  Biso   1.000  O
  O11      1.0000 0.03678  0.80171  0.61880  Biso   1.000  O
  O12      1.0000 0.53678  0.30171  0.61880  Biso   1.000  O
  O13      1.0000 0.03678  0.19829  0.11880  Biso   1.000  O
  O14      1.0000 0.53678  0.69829  0.11880  Biso   1.000  O
  O15      1.0000 0.96322  0.19829  0.38120  Biso   1.000  O
  O16      1.0000 0.46322  0.69829  0.38120  Biso   1.000  O
  O17      1.0000 0.09796  0.89635  0.25710  Biso   1.000  O
  O18      1.0000 0.59796  0.39635  0.25710  Biso   1.000  O
  O19      1.0000 0.90204  0.89635  0.24290  Biso   1.000  O
  O20      1.0000 0.40204  0.39635  0.24290  Biso   1.000  O
  O21      1.0000 0.90204  0.10365  0.74290  Biso   1.000  O
  O22      1.0000 0.40204  0.60365  0.74290  Biso   1.000  O
  O23      1.0000 0.09796  0.10365  0.75710  Biso   1.000  O
  O24      1.0000 0.59796  0.60365  0.75710  Biso   1.000  O
  H41      1.0000 0.09070  0.94860  0.31300  Biso   1.000  H
  H42      1.0000 0.59070  0.44860  0.31300  Biso   1.000  H
  H43      1.0000 0.90930  0.94860  0.18700  Biso   1.000  H
  H44      1.0000 0.40930  0.44860  0.18700  Biso   1.000  H
  H45      1.0000 0.90930  0.05140  0.68700  Biso   1.000  H
  H46      1.0000 0.40930  0.55140  0.68700  Biso   1.000  H
  H47      1.0000 0.09070  0.05140  0.81300  Biso   1.000  H
  H48      1.0000 0.59070  0.55140  0.81300  Biso   1.000  H
  H49      1.0000 0.09020  0.90520  0.13210  Biso   1.000  H
  H50      1.0000 0.59020  0.40520  0.13210  Biso   1.000  H
  H51      1.0000 0.90980  0.90520  0.36790  Biso   1.000  H
  H52      1.0000 0.40980  0.40520  0.36790  Biso   1.000  H
  H53      1.0000 0.90980  0.09480  0.86790  Biso   1.000  H
  H54      1.0000 0.40980  0.59480  0.86790  Biso   1.000  H
  H55      1.0000 0.09020  0.09480  0.63210  Biso   1.000  H
  H56      1.0000 0.59020  0.59480  0.63210  Biso   1.000  H
