data_image0
_cell_length_a       9.231
_cell_length_b       13.375
_cell_length_c       13.354
_cell_angle_alpha    90
_cell_angle_beta     90
_cell_angle_gamma    90

_symmetry_space_group_name_H-M    "P 1"
_symmetry_int_tables_number       1

loop_
  _symmetry_equiv_pos_as_xyz
  'x, y, z'

loop_
  _atom_site_label
  _atom_site_occupancy
  _atom_site_fract_x
  _atom_site_fract_y
  _atom_site_fract_z
  _atom_site_thermal_displace_type
  _atom_site_B_iso_or_equiv
  _atom_site_type_symbol
  Cu1      1.0000 0.00000  0.50000  0.25000  Biso   1.000  Cu
  Cu2      1.0000 0.50000  0.00000  0.25000  Biso   1.000  Cu
  Cu3      1.0000 0.00000  0.50000  0.75000  Biso   1.000  Cu
  Cu4      1.0000 0.50000  0.00000  0.75000  Biso   1.000  Cu
  Cu5      1.0000 0.25000  0.25000  0.50000  Biso   1.000  Cu
  Cu6      1.0000 0.75000  0.75000  0.50000  Biso   1.000  Cu
  Cu7      1.0000 0.75000  0.25000  0.00000  Biso   1.000  Cu
  Cu8      1.0000 0.25000  0.75000  0.00000  Biso   1.000  Cu
  N1       1.0000 0.17740  0.35250  0.38730  Biso   1.000  N
  N2       1.0000 0.67740  0.85250  0.38730  Biso   1.000  N
  N3       1.0000 0.82260  0.64750  0.38730  Biso   1.000  N
  N4       1.0000 0.82260  0.35250  0.11270  Biso   1.000  N
  N5       1.0000 0.17740  0.64750  0.11270  Biso   1.000  N
  N6       1.0000 0.32260  0.14750  0.38730  Biso   1.000  N
  N7       1.0000 0.32260  0.85250  0.11270  Biso   1.000  N
  N8       1.0000 0.67740  0.14750  0.11270  Biso   1.000  N
  N9       1.0000 0.82260  0.64750  0.61270  Biso   1.000  N
  N10      1.0000 0.32260  0.14750  0.61270  Biso   1.000  N
  N11      1.0000 0.17740  0.35250  0.61270  Biso   1.000  N
  N12      1.0000 0.17740  0.64750  0.88730  Biso   1.000  N
  N13      1.0000 0.82260  0.35250  0.88730  Biso   1.000  N
  N14      1.0000 0.67740  0.85250  0.61270  Biso   1.000  N
  N15      1.0000 0.67740  0.14750  0.88730  Biso   1.000  N
  N16      1.0000 0.32260  0.85250  0.88730  Biso   1.000  N
  N17      1.0000 0.04020  0.18210  0.50000  Biso   1.000  N
  N18      1.0000 0.54020  0.68210  0.50000  Biso   1.000  N
  N19      1.0000 0.95980  0.81790  0.50000  Biso   1.000  N
  N20      1.0000 0.95980  0.18210  0.00000  Biso   1.000  N
  N21      1.0000 0.04020  0.81790  0.00000  Biso   1.000  N
  N22      1.0000 0.45980  0.31790  0.50000  Biso   1.000  N
  N23      1.0000 0.45980  0.68210  0.00000  Biso   1.000  N
  N24      1.0000 0.54020  0.31790  0.00000  Biso   1.000  N
  C1       1.0000 0.11910  0.40880  0.33680  Biso   1.000  C
  C2       1.0000 0.61910  0.90880  0.33680  Biso   1.000  C
  C3       1.0000 0.88090  0.59120  0.33680  Biso   1.000  C
  C4       1.0000 0.88090  0.40880  0.16320  Biso   1.000  C
  C5       1.0000 0.11910  0.59120  0.16320  Biso   1.000  C
  C6       1.0000 0.38090  0.09120  0.33680  Biso   1.000  C
  C7       1.0000 0.38090  0.90880  0.16320  Biso   1.000  C
  C8       1.0000 0.61910  0.09120  0.16320  Biso   1.000  C
  C9       1.0000 0.88090  0.59120  0.66320  Biso   1.000  C
  C10      1.0000 0.38090  0.09120  0.66320  Biso   1.000  C
  C11      1.0000 0.11910  0.40880  0.66320  Biso   1.000  C
  C12      1.0000 0.11910  0.59120  0.83680  Biso   1.000  C
  C13      1.0000 0.88090  0.40880  0.83680  Biso   1.000  C
  C14      1.0000 0.61910  0.90880  0.66320  Biso   1.000  C
  C15      1.0000 0.61910  0.09120  0.83680  Biso   1.000  C
  C16      1.0000 0.38090  0.90880  0.83680  Biso   1.000  C
  C17      1.0000 0.97160  0.16150  0.41620  Biso   1.000  C
  C18      1.0000 0.47160  0.66150  0.41620  Biso   1.000  C
  C19      1.0000 0.02840  0.83850  0.41620  Biso   1.000  C
  C20      1.0000 0.02840  0.16150  0.08380  Biso   1.000  C
  C21      1.0000 0.97160  0.83850  0.08380  Biso   1.000  C
  C22      1.0000 0.52840  0.33850  0.41620  Biso   1.000  C
  C23      1.0000 0.52840  0.66150  0.08380  Biso   1.000  C
  C24      1.0000 0.47160  0.33850  0.08380  Biso   1.000  C
  C25      1.0000 0.02840  0.83850  0.58380  Biso   1.000  C
  C26      1.0000 0.52840  0.33850  0.58380  Biso   1.000  C
  C27      1.0000 0.97160  0.16150  0.58380  Biso   1.000  C
  C28      1.0000 0.97160  0.83850  0.91620  Biso   1.000  C
  C29      1.0000 0.02840  0.16150  0.91620  Biso   1.000  C
  C30      1.0000 0.47160  0.66150  0.58380  Biso   1.000  C
  C31      1.0000 0.47160  0.33850  0.91620  Biso   1.000  C
  C32      1.0000 0.52840  0.66150  0.91620  Biso   1.000  C
  H1       1.0000 0.01790  0.17510  0.35590  Biso   1.000  H
  H2       1.0000 0.51790  0.67510  0.35590  Biso   1.000  H
  H3       1.0000 0.98210  0.82490  0.35590  Biso   1.000  H
  H4       1.0000 0.98210  0.17510  0.14410  Biso   1.000  H
  H5       1.0000 0.01790  0.82490  0.14410  Biso   1.000  H
  H6       1.0000 0.48210  0.32490  0.35590  Biso   1.000  H
  H7       1.0000 0.48210  0.67510  0.14410  Biso   1.000  H
  H8       1.0000 0.51790  0.32490  0.14410  Biso   1.000  H
  H9       1.0000 0.98210  0.82490  0.64410  Biso   1.000  H
  H10      1.0000 0.48210  0.32490  0.64410  Biso   1.000  H
  H11      1.0000 0.01790  0.17510  0.64410  Biso   1.000  H
  H12      1.0000 0.01790  0.82490  0.85590  Biso   1.000  H
  H13      1.0000 0.98210  0.17510  0.85590  Biso   1.000  H
  H14      1.0000 0.51790  0.67510  0.64410  Biso   1.000  H
  H15      1.0000 0.51790  0.32490  0.85590  Biso   1.000  H
  H16      1.0000 0.48210  0.67510  0.85590  Biso   1.000  H
  C33      1.0000 0.83570  0.12110  0.41340  Biso   1.000  C
  C34      1.0000 0.33570  0.62110  0.41340  Biso   1.000  C
  C35      1.0000 0.16430  0.87890  0.41340  Biso   1.000  C
  C36      1.0000 0.16430  0.12110  0.08660  Biso   1.000  C
  C37      1.0000 0.83570  0.87890  0.08660  Biso   1.000  C
  C38      1.0000 0.66430  0.37890  0.41340  Biso   1.000  C
  C39      1.0000 0.66430  0.62110  0.08660  Biso   1.000  C
  C40      1.0000 0.33570  0.37890  0.08660  Biso   1.000  C
  C41      1.0000 0.16430  0.87890  0.58660  Biso   1.000  C
  C42      1.0000 0.66430  0.37890  0.58660  Biso   1.000  C
  C43      1.0000 0.83570  0.12110  0.58660  Biso   1.000  C
  C44      1.0000 0.83570  0.87890  0.91340  Biso   1.000  C
  C45      1.0000 0.16430  0.12110  0.91340  Biso   1.000  C
  C46      1.0000 0.33570  0.62110  0.58660  Biso   1.000  C
  C47      1.0000 0.33570  0.37890  0.91340  Biso   1.000  C
  C48      1.0000 0.66430  0.62110  0.91340  Biso   1.000  C
  H17      1.0000 0.79090  0.10830  0.35240  Biso   1.000  H
  H18      1.0000 0.29090  0.60830  0.35240  Biso   1.000  H
  H19      1.0000 0.20910  0.89170  0.35240  Biso   1.000  H
  H20      1.0000 0.20910  0.10830  0.14760  Biso   1.000  H
  H21      1.0000 0.79090  0.89170  0.14760  Biso   1.000  H
  H22      1.0000 0.70910  0.39170  0.35240  Biso   1.000  H
  H23      1.0000 0.70910  0.60830  0.14760  Biso   1.000  H
  H24      1.0000 0.29090  0.39170  0.14760  Biso   1.000  H
  H25      1.0000 0.20910  0.89170  0.64760  Biso   1.000  H
  H26      1.0000 0.70910  0.39170  0.64760  Biso   1.000  H
  H27      1.0000 0.79090  0.10830  0.64760  Biso   1.000  H
  H28      1.0000 0.79090  0.89170  0.85240  Biso   1.000  H
  H29      1.0000 0.20910  0.10830  0.85240  Biso   1.000  H
  H30      1.0000 0.29090  0.60830  0.64760  Biso   1.000  H
  H31      1.0000 0.29090  0.39170  0.85240  Biso   1.000  H
  H32      1.0000 0.70910  0.60830  0.85240  Biso   1.000  H
  C49      1.0000 0.76750  0.10010  0.50000  Biso   1.000  C
  C50      1.0000 0.26750  0.60010  0.50000  Biso   1.000  C
  C51      1.0000 0.23250  0.89990  0.50000  Biso   1.000  C
  C52      1.0000 0.23250  0.10010  0.00000  Biso   1.000  C
  C53      1.0000 0.76750  0.89990  0.00000  Biso   1.000  C
  C54      1.0000 0.73250  0.39990  0.50000  Biso   1.000  C
  C55      1.0000 0.73250  0.60010  0.00000  Biso   1.000  C
  C56      1.0000 0.26750  0.39990  0.00000  Biso   1.000  C
  H33      1.0000 0.67550  0.07170  0.50000  Biso   1.000  H
  H34      1.0000 0.17550  0.57170  0.50000  Biso   1.000  H
  H35      1.0000 0.32450  0.92830  0.50000  Biso   1.000  H
  H36      1.0000 0.32450  0.07170  0.00000  Biso   1.000  H
  H37      1.0000 0.67550  0.92830  0.00000  Biso   1.000  H
  H38      1.0000 0.82450  0.42830  0.50000  Biso   1.000  H
  H39      1.0000 0.82450  0.57170  0.00000  Biso   1.000  H
  H40      1.0000 0.17550  0.42830  0.00000  Biso   1.000  H
