data_image0
_cell_length_a       9.2199
_cell_length_b       21.794
_cell_length_c       7.2889
_cell_angle_alpha    90
_cell_angle_beta     99.9
_cell_angle_gamma    90

_symmetry_space_group_name_H-M    "P 1"
_symmetry_int_tables_number       1

loop_
  _symmetry_equiv_pos_as_xyz
  'x, y, z'

loop_
  _atom_site_label
  _atom_site_occupancy
  _atom_site_fract_x
  _atom_site_fract_y
  _atom_site_fract_z
  _atom_site_thermal_displace_type
  _atom_site_B_iso_or_equiv
  _atom_site_type_symbol
  Cu1      1.0000 0.10470  0.24670  0.18100  Biso   1.000  Cu
  Cu2      1.0000 0.89530  0.74670  0.31900  Biso   1.000  Cu
  Cu3      1.0000 0.89530  0.75330  0.81900  Biso   1.000  Cu
  Cu4      1.0000 0.10470  0.25330  0.68100  Biso   1.000  Cu
  Cl1      1.0000 0.93400  0.24730  0.36370  Biso   1.000  Cl
  Cl2      1.0000 0.06600  0.74730  0.13630  Biso   1.000  Cl
  Cl3      1.0000 0.06600  0.75270  0.63630  Biso   1.000  Cl
  Cl4      1.0000 0.93400  0.25270  0.86370  Biso   1.000  Cl
  O1       1.0000 0.07580  0.10400  0.21800  Biso   1.000  O
  O2       1.0000 0.92420  0.60400  0.28200  Biso   1.000  O
  O3       1.0000 0.92420  0.89600  0.78200  Biso   1.000  O
  O4       1.0000 0.07580  0.39600  0.71800  Biso   1.000  O
  N1       1.0000 0.14600  0.34090  0.18030  Biso   1.000  N
  N2       1.0000 0.85400  0.84090  0.31970  Biso   1.000  N
  N3       1.0000 0.85400  0.65910  0.81970  Biso   1.000  N
  N4       1.0000 0.14600  0.15910  0.68030  Biso   1.000  N
  N5       1.0000 0.30270  0.24670  0.12360  Biso   1.000  N
  N6       1.0000 0.69730  0.74670  0.37640  Biso   1.000  N
  N7       1.0000 0.69730  0.75330  0.87640  Biso   1.000  N
  N8       1.0000 0.30270  0.25330  0.62360  Biso   1.000  N
  N9       1.0000 0.15500  0.15610  0.17800  Biso   1.000  N
  N10      1.0000 0.84500  0.65610  0.32200  Biso   1.000  N
  N11      1.0000 0.84500  0.84390  0.82200  Biso   1.000  N
  N12      1.0000 0.15500  0.34390  0.67800  Biso   1.000  N
  N13      1.0000 0.33310  0.08380  0.12940  Biso   1.000  N
  N14      1.0000 0.66690  0.58380  0.37060  Biso   1.000  N
  N15      1.0000 0.66690  0.91620  0.87060  Biso   1.000  N
  N16      1.0000 0.33310  0.41620  0.62940  Biso   1.000  N
  C1       1.0000 0.06260  0.38870  0.20940  Biso   1.000  C
  C2       1.0000 0.93740  0.88870  0.29060  Biso   1.000  C
  C3       1.0000 0.93740  0.61130  0.79060  Biso   1.000  C
  C4       1.0000 0.06260  0.11130  0.70940  Biso   1.000  C
  C5       1.0000 0.11110  0.44950  0.19800  Biso   1.000  C
  C6       1.0000 0.88890  0.94950  0.30200  Biso   1.000  C
  C7       1.0000 0.88890  0.55050  0.80200  Biso   1.000  C
  C8       1.0000 0.11110  0.05050  0.69800  Biso   1.000  C
  C9       1.0000 0.24760  0.46100  0.15630  Biso   1.000  C
  C10      1.0000 0.75240  0.96100  0.34370  Biso   1.000  C
  C11      1.0000 0.75240  0.53900  0.84370  Biso   1.000  C
  C12      1.0000 0.24760  0.03900  0.65630  Biso   1.000  C
  C13      1.0000 0.33970  0.41180  0.12920  Biso   1.000  C
  C14      1.0000 0.66030  0.91180  0.37080  Biso   1.000  C
  C15      1.0000 0.66030  0.58820  0.87080  Biso   1.000  C
  C16      1.0000 0.33970  0.08820  0.62920  Biso   1.000  C
  C17      1.0000 0.48950  0.41650  0.09360  Biso   1.000  C
  C18      1.0000 0.51050  0.91650  0.40640  Biso   1.000  C
  C19      1.0000 0.51050  0.58350  0.90640  Biso   1.000  C
  C20      1.0000 0.48950  0.08350  0.59360  Biso   1.000  C
  C21      1.0000 0.57080  0.36730  0.06900  Biso   1.000  C
  C22      1.0000 0.42920  0.86730  0.43100  Biso   1.000  C
  C23      1.0000 0.42920  0.63270  0.93100  Biso   1.000  C
  C24      1.0000 0.57080  0.13270  0.56900  Biso   1.000  C
  C25      1.0000 0.51190  0.30600  0.07420  Biso   1.000  C
  C26      1.0000 0.48810  0.80600  0.42580  Biso   1.000  C
  C27      1.0000 0.48810  0.69400  0.92580  Biso   1.000  C
  C28      1.0000 0.51190  0.19400  0.57420  Biso   1.000  C
  C29      1.0000 0.58690  0.25040  0.05630  Biso   1.000  C
  C30      1.0000 0.41310  0.75040  0.44370  Biso   1.000  C
  C31      1.0000 0.41310  0.74960  0.94370  Biso   1.000  C
  C32      1.0000 0.58690  0.24960  0.55630  Biso   1.000  C
  C33      1.0000 0.51890  0.19510  0.07460  Biso   1.000  C
  C34      1.0000 0.48110  0.69510  0.42540  Biso   1.000  C
  C35      1.0000 0.48110  0.80490  0.92540  Biso   1.000  C
  C36      1.0000 0.51890  0.30490  0.57460  Biso   1.000  C
  C37      1.0000 0.37470  0.19450  0.10880  Biso   1.000  C
  C38      1.0000 0.62530  0.69450  0.39120  Biso   1.000  C
  C39      1.0000 0.62530  0.80550  0.89120  Biso   1.000  C
  C40      1.0000 0.37470  0.30550  0.60880  Biso   1.000  C
  C41      1.0000 0.36780  0.30100  0.11020  Biso   1.000  C
  C42      1.0000 0.63220  0.80100  0.38980  Biso   1.000  C
  C43      1.0000 0.63220  0.69900  0.88980  Biso   1.000  C
  C44      1.0000 0.36780  0.19900  0.61020  Biso   1.000  C
  C45      1.0000 0.28090  0.35320  0.13760  Biso   1.000  C
  C46      1.0000 0.71910  0.85320  0.36240  Biso   1.000  C
  C47      1.0000 0.71910  0.64680  0.86240  Biso   1.000  C
  C48      1.0000 0.28090  0.14680  0.63760  Biso   1.000  C
  C49      1.0000 0.28310  0.14060  0.13960  Biso   1.000  C
  C50      1.0000 0.71690  0.64060  0.36040  Biso   1.000  C
  C51      1.0000 0.71690  0.85940  0.86040  Biso   1.000  C
  C52      1.0000 0.28310  0.35940  0.63960  Biso   1.000  C
  N17      1.0000 0.26160  0.93610  0.00730  Biso   1.000  N
  N18      1.0000 0.73840  0.43610  0.49270  Biso   1.000  N
  N19      1.0000 0.73840  0.06390  0.99270  Biso   1.000  N
  N20      1.0000 0.26160  0.56390  0.50730  Biso   1.000  N
  O5       1.0000 0.18660  0.96030  0.11190  Biso   1.000  O
  O6       1.0000 0.81340  0.46030  0.38810  Biso   1.000  O
  O7       1.0000 0.81340  0.03970  0.88810  Biso   1.000  O
  O8       1.0000 0.18660  0.53970  0.61190  Biso   1.000  O
  O9       1.0000 0.38860  0.95310  0.00640  Biso   1.000  O
  O10      1.0000 0.61140  0.45310  0.49360  Biso   1.000  O
  O11      1.0000 0.61140  0.04690  0.99360  Biso   1.000  O
  O12      1.0000 0.38860  0.54690  0.50640  Biso   1.000  O
  O13      1.0000 0.21080  0.89460  0.89450  Biso   1.000  O
  O14      1.0000 0.78920  0.39460  0.60550  Biso   1.000  O
  O15      1.0000 0.78920  0.10540  0.10550  Biso   1.000  O
  O16      1.0000 0.21080  0.60540  0.39450  Biso   1.000  O
  H1       1.0000 0.96700  0.11060  0.15950  Biso   1.000  H
  H2       1.0000 0.03300  0.61060  0.34050  Biso   1.000  H
  H3       1.0000 0.03300  0.88940  0.84050  Biso   1.000  H
  H4       1.0000 0.96700  0.38940  0.65950  Biso   1.000  H
  H5       1.0000 0.42960  0.07590  0.12450  Biso   1.000  H
  H6       1.0000 0.57040  0.57590  0.37550  Biso   1.000  H
  H7       1.0000 0.57040  0.92410  0.87550  Biso   1.000  H
  H8       1.0000 0.42960  0.42410  0.62450  Biso   1.000  H
  H9       1.0000 0.27060  0.05090  0.11760  Biso   1.000  H
  H10      1.0000 0.72940  0.55090  0.38240  Biso   1.000  H
  H11      1.0000 0.72940  0.94910  0.88240  Biso   1.000  H
  H12      1.0000 0.27060  0.44910  0.61760  Biso   1.000  H
  H13      1.0000 0.96240  0.38130  0.24080  Biso   1.000  H
  H14      1.0000 0.03760  0.88130  0.25920  Biso   1.000  H
  H15      1.0000 0.03760  0.61870  0.75920  Biso   1.000  H
  H16      1.0000 0.96240  0.11870  0.74080  Biso   1.000  H
  H17      1.0000 0.04590  0.48460  0.21830  Biso   1.000  H
  H18      1.0000 0.95410  0.98460  0.28170  Biso   1.000  H
  H19      1.0000 0.95410  0.51540  0.78170  Biso   1.000  H
  H20      1.0000 0.04590  0.01540  0.71830  Biso   1.000  H
  H21      1.0000 0.28260  0.50420  0.14560  Biso   1.000  H
  H22      1.0000 0.71740  0.00420  0.35440  Biso   1.000  H
  H23      1.0000 0.71740  0.49580  0.85440  Biso   1.000  H
  H24      1.0000 0.28260  0.99580  0.64560  Biso   1.000  H
  H25      1.0000 0.53390  0.45780  0.08780  Biso   1.000  H
  H26      1.0000 0.46610  0.95780  0.41220  Biso   1.000  H
  H27      1.0000 0.46610  0.54220  0.91220  Biso   1.000  H
  H28      1.0000 0.53390  0.04220  0.58780  Biso   1.000  H
  H29      1.0000 0.67360  0.37300  0.04560  Biso   1.000  H
  H30      1.0000 0.32640  0.87300  0.45440  Biso   1.000  H
  H31      1.0000 0.32640  0.62700  0.95440  Biso   1.000  H
  H32      1.0000 0.67360  0.12700  0.54560  Biso   1.000  H
  H33      1.0000 0.69000  0.25150  0.03110  Biso   1.000  H
  H34      1.0000 0.31000  0.75150  0.46890  Biso   1.000  H
  H35      1.0000 0.31000  0.74850  0.96890  Biso   1.000  H
  H36      1.0000 0.69000  0.24850  0.53110  Biso   1.000  H
  H37      1.0000 0.57270  0.15580  0.06310  Biso   1.000  H
  H38      1.0000 0.42730  0.65580  0.43690  Biso   1.000  H
  H39      1.0000 0.42730  0.84420  0.93690  Biso   1.000  H
  H40      1.0000 0.57270  0.34420  0.56310  Biso   1.000  H
