data_image0
_cell_length_a       10.017
_cell_length_b       20.5075
_cell_length_c       15.8952
_cell_angle_alpha    90
_cell_angle_beta     95.677
_cell_angle_gamma    90

_symmetry_space_group_name_H-M    "P 1"
_symmetry_int_tables_number       1

loop_
  _symmetry_equiv_pos_as_xyz
  'x, y, z'

loop_
  _atom_site_label
  _atom_site_occupancy
  _atom_site_fract_x
  _atom_site_fract_y
  _atom_site_fract_z
  _atom_site_thermal_displace_type
  _atom_site_B_iso_or_equiv
  _atom_site_type_symbol
  W1       1.0000 0.21535  0.57016  0.80172  Biso   1.000  W
  W2       1.0000 0.78465  0.07016  0.69828  Biso   1.000  W
  W3       1.0000 0.78465  0.42984  0.19828  Biso   1.000  W
  W4       1.0000 0.21535  0.92984  0.30172  Biso   1.000  W
  Cu1      1.0000 0.00000  0.50000  0.50000  Biso   1.000  Cu
  Cu2      1.0000 0.00000  0.00000  0.00000  Biso   1.000  Cu
  Cu3      1.0000 0.73085  0.51757  0.87715  Biso   1.000  Cu
  Cu4      1.0000 0.26915  0.01757  0.62285  Biso   1.000  Cu
  Cu5      1.0000 0.26915  0.48243  0.12285  Biso   1.000  Cu
  Cu6      1.0000 0.73085  0.98243  0.37715  Biso   1.000  Cu
  N1       1.0000 0.09950  0.52460  0.60930  Biso   1.000  N
  N2       1.0000 0.90050  0.02460  0.89070  Biso   1.000  N
  N3       1.0000 0.90050  0.47540  0.39070  Biso   1.000  N
  N4       1.0000 0.09950  0.97540  0.10930  Biso   1.000  N
  N5       1.0000 0.53790  0.53960  0.84880  Biso   1.000  N
  N6       1.0000 0.46210  0.03960  0.65120  Biso   1.000  N
  N7       1.0000 0.46210  0.46040  0.15120  Biso   1.000  N
  N8       1.0000 0.53790  0.96040  0.34880  Biso   1.000  N
  N9       1.0000 0.31580  0.69800  0.91580  Biso   1.000  N
  N10      1.0000 0.68420  0.19800  0.58420  Biso   1.000  N
  N11      1.0000 0.68420  0.30200  0.08420  Biso   1.000  N
  N12      1.0000 0.31580  0.80200  0.41580  Biso   1.000  N
  N13      1.0000 0.24930  0.41130  0.78970  Biso   1.000  N
  N14      1.0000 0.75070  0.91130  0.71030  Biso   1.000  N
  N15      1.0000 0.75070  0.58870  0.21030  Biso   1.000  N
  N16      1.0000 0.24930  0.08870  0.28970  Biso   1.000  N
  N17      1.0000 0.37420  0.65440  0.66610  Biso   1.000  N
  N18      1.0000 0.62580  0.15440  0.83390  Biso   1.000  N
  N19      1.0000 0.62580  0.34560  0.33390  Biso   1.000  N
  N20      1.0000 0.37420  0.84560  0.16610  Biso   1.000  N
  N21      1.0000 0.00150  0.68920  0.75070  Biso   1.000  N
  N22      1.0000 0.99850  0.18920  0.74930  Biso   1.000  N
  N23      1.0000 0.99850  0.31080  0.24930  Biso   1.000  N
  N24      1.0000 0.00150  0.81080  0.25070  Biso   1.000  N
  N25      1.0000 0.23640  0.52130  0.99980  Biso   1.000  N
  N26      1.0000 0.76360  0.02130  0.50020  Biso   1.000  N
  N27      1.0000 0.76360  0.47870  0.00020  Biso   1.000  N
  N28      1.0000 0.23640  0.97870  0.49980  Biso   1.000  N
  N29      1.0000 0.91130  0.52040  0.83370  Biso   1.000  N
  N30      1.0000 0.08870  0.02040  0.66630  Biso   1.000  N
  N31      1.0000 0.08870  0.47960  0.16630  Biso   1.000  N
  N32      1.0000 0.91130  0.97960  0.33370  Biso   1.000  N
  C1       1.0000 0.14060  0.54030  0.67560  Biso   1.000  C
  C2       1.0000 0.85940  0.04030  0.82440  Biso   1.000  C
  C3       1.0000 0.85940  0.45970  0.32440  Biso   1.000  C
  C4       1.0000 0.14060  0.95970  0.17560  Biso   1.000  C
  C5       1.0000 0.42680  0.55010  0.83220  Biso   1.000  C
  C6       1.0000 0.57320  0.05010  0.66780  Biso   1.000  C
  C7       1.0000 0.57320  0.44990  0.16780  Biso   1.000  C
  C8       1.0000 0.42680  0.94990  0.33220  Biso   1.000  C
  C9       1.0000 0.28180  0.65390  0.87680  Biso   1.000  C
  C10      1.0000 0.71820  0.15390  0.62320  Biso   1.000  C
  C11      1.0000 0.71820  0.34610  0.12320  Biso   1.000  C
  C12      1.0000 0.28180  0.84610  0.37680  Biso   1.000  C
  C13      1.0000 0.23800  0.46600  0.79410  Biso   1.000  C
  C14      1.0000 0.76200  0.96600  0.70590  Biso   1.000  C
  C15      1.0000 0.76200  0.53400  0.20590  Biso   1.000  C
  C16      1.0000 0.23800  0.03400  0.29410  Biso   1.000  C
  C17      1.0000 0.32110  0.62570  0.71540  Biso   1.000  C
  C18      1.0000 0.67890  0.12570  0.78460  Biso   1.000  C
  C19      1.0000 0.67890  0.37430  0.28460  Biso   1.000  C
  C20      1.0000 0.32110  0.87430  0.21540  Biso   1.000  C
  C21      1.0000 0.07500  0.64790  0.76590  Biso   1.000  C
  C22      1.0000 0.92500  0.14790  0.73410  Biso   1.000  C
  C23      1.0000 0.92500  0.35210  0.23410  Biso   1.000  C
  C24      1.0000 0.07500  0.85210  0.26590  Biso   1.000  C
  C25      1.0000 0.22670  0.53950  0.93180  Biso   1.000  C
  C26      1.0000 0.77330  0.03950  0.56820  Biso   1.000  C
  C27      1.0000 0.77330  0.46050  0.06820  Biso   1.000  C
  C28      1.0000 0.22670  0.96050  0.43180  Biso   1.000  C
  C29      1.0000 0.01650  0.53580  0.82140  Biso   1.000  C
  C30      1.0000 0.98350  0.03580  0.67860  Biso   1.000  C
  C31      1.0000 0.98350  0.46420  0.17860  Biso   1.000  C
  C32      1.0000 0.01650  0.96420  0.32140  Biso   1.000  C
  N33      1.0000 0.17190  0.47800  0.44860  Biso   1.000  N
  N34      1.0000 0.82810  0.97800  0.05140  Biso   1.000  N
  N35      1.0000 0.82810  0.52200  0.55140  Biso   1.000  N
  N36      1.0000 0.17190  0.02200  0.94860  Biso   1.000  N
  C33      1.0000 0.18090  0.41850  0.41290  Biso   1.000  C
  C34      1.0000 0.81910  0.91850  0.08710  Biso   1.000  C
  C35      1.0000 0.81910  0.58150  0.58710  Biso   1.000  C
  C36      1.0000 0.18090  0.08150  0.91290  Biso   1.000  C
  H1       1.0000 0.11260  0.38810  0.41570  Biso   1.000  H
  H2       1.0000 0.88740  0.88810  0.08430  Biso   1.000  H
  H3       1.0000 0.88740  0.61190  0.58430  Biso   1.000  H
  H4       1.0000 0.11260  0.11190  0.91570  Biso   1.000  H
  C37      1.0000 0.29280  0.40320  0.37190  Biso   1.000  C
  C38      1.0000 0.70720  0.90320  0.12810  Biso   1.000  C
  C39      1.0000 0.70720  0.59680  0.62810  Biso   1.000  C
  C40      1.0000 0.29280  0.09680  0.87190  Biso   1.000  C
  H5       1.0000 0.29980  0.36230  0.34750  Biso   1.000  H
  H6       1.0000 0.70020  0.86230  0.15250  Biso   1.000  H
  H7       1.0000 0.70020  0.63770  0.65250  Biso   1.000  H
  H8       1.0000 0.29980  0.13770  0.84750  Biso   1.000  H
  C41      1.0000 0.39130  0.44740  0.36750  Biso   1.000  C
  C42      1.0000 0.60870  0.94740  0.13250  Biso   1.000  C
  C43      1.0000 0.60870  0.55260  0.63250  Biso   1.000  C
  C44      1.0000 0.39130  0.05260  0.86750  Biso   1.000  C
  H9       1.0000 0.46620  0.43720  0.33980  Biso   1.000  H
  H10      1.0000 0.53380  0.93720  0.16020  Biso   1.000  H
  H11      1.0000 0.53380  0.56280  0.66020  Biso   1.000  H
  H12      1.0000 0.46620  0.06280  0.83980  Biso   1.000  H
  C45      1.0000 0.38030  0.50760  0.40390  Biso   1.000  C
  C46      1.0000 0.61970  0.00760  0.09610  Biso   1.000  C
  C47      1.0000 0.61970  0.49240  0.59610  Biso   1.000  C
  C48      1.0000 0.38030  0.99240  0.90390  Biso   1.000  C
  C49      1.0000 0.26920  0.52140  0.44510  Biso   1.000  C
  C50      1.0000 0.73080  0.02140  0.05490  Biso   1.000  C
  C51      1.0000 0.73080  0.47860  0.55490  Biso   1.000  C
  C52      1.0000 0.26920  0.97860  0.94510  Biso   1.000  C
  H13      1.0000 0.26220  0.56180  0.47080  Biso   1.000  H
  H14      1.0000 0.73780  0.06180  0.02920  Biso   1.000  H
  H15      1.0000 0.73780  0.43820  0.52920  Biso   1.000  H
  H16      1.0000 0.26220  0.93820  0.97080  Biso   1.000  H
  Cl1      1.0000 0.50390  0.56470  0.40040  Biso   1.000  Cl
  Cl2      1.0000 0.49610  0.06470  0.09960  Biso   1.000  Cl
  Cl3      1.0000 0.49610  0.43530  0.59960  Biso   1.000  Cl
  Cl4      1.0000 0.50390  0.93530  0.90040  Biso   1.000  Cl
  N37      1.0000 0.69180  0.42700  0.83130  Biso   1.000  N
  N38      1.0000 0.30820  0.92700  0.66870  Biso   1.000  N
  N39      1.0000 0.30820  0.57300  0.16870  Biso   1.000  N
  N40      1.0000 0.69180  0.07300  0.33130  Biso   1.000  N
  C53      1.0000 0.75670  0.39940  0.77030  Biso   1.000  C
  C54      1.0000 0.24330  0.89940  0.72970  Biso   1.000  C
  C55      1.0000 0.24330  0.60060  0.22970  Biso   1.000  C
  C56      1.0000 0.75670  0.10060  0.27030  Biso   1.000  C
  H17      1.0000 0.82670  0.42200  0.74920  Biso   1.000  H
  H18      1.0000 0.17330  0.92200  0.75080  Biso   1.000  H
  H19      1.0000 0.17330  0.57800  0.25080  Biso   1.000  H
  H20      1.0000 0.82670  0.07800  0.24920  Biso   1.000  H
  C57      1.0000 0.72260  0.33880  0.73830  Biso   1.000  C
  C58      1.0000 0.27740  0.83880  0.76170  Biso   1.000  C
  C59      1.0000 0.27740  0.66120  0.26170  Biso   1.000  C
  C60      1.0000 0.72260  0.16120  0.23830  Biso   1.000  C
  H21      1.0000 0.76740  0.32140  0.69490  Biso   1.000  H
  H22      1.0000 0.23260  0.82140  0.80510  Biso   1.000  H
  H23      1.0000 0.23260  0.67860  0.30510  Biso   1.000  H
  H24      1.0000 0.76740  0.17860  0.19490  Biso   1.000  H
  C61      1.0000 0.62250  0.30400  0.77040  Biso   1.000  C
  C62      1.0000 0.37750  0.80400  0.72960  Biso   1.000  C
  C63      1.0000 0.37750  0.69600  0.22960  Biso   1.000  C
  C64      1.0000 0.62250  0.19600  0.27040  Biso   1.000  C
  H25      1.0000 0.59780  0.26300  0.74910  Biso   1.000  H
  H26      1.0000 0.40220  0.76300  0.75090  Biso   1.000  H
  H27      1.0000 0.40220  0.73700  0.25090  Biso   1.000  H
  H28      1.0000 0.59780  0.23700  0.24910  Biso   1.000  H
  C65      1.0000 0.55980  0.33110  0.83470  Biso   1.000  C
  C66      1.0000 0.44020  0.83110  0.66530  Biso   1.000  C
  C67      1.0000 0.44020  0.66890  0.16530  Biso   1.000  C
  C68      1.0000 0.55980  0.16890  0.33470  Biso   1.000  C
  C69      1.0000 0.59500  0.39270  0.86380  Biso   1.000  C
  C70      1.0000 0.40500  0.89270  0.63620  Biso   1.000  C
  C71      1.0000 0.40500  0.60730  0.13620  Biso   1.000  C
  C72      1.0000 0.59500  0.10730  0.36380  Biso   1.000  C
  H29      1.0000 0.55080  0.41080  0.90700  Biso   1.000  H
  H30      1.0000 0.44920  0.91080  0.59300  Biso   1.000  H
  H31      1.0000 0.44920  0.58920  0.09300  Biso   1.000  H
  H32      1.0000 0.55080  0.08920  0.40700  Biso   1.000  H
  Cl5      1.0000 0.43680  0.29008  0.88208  Biso   1.000  Cl
  Cl6      1.0000 0.56320  0.79008  0.61792  Biso   1.000  Cl
  Cl7      1.0000 0.56320  0.70992  0.11792  Biso   1.000  Cl
  Cl8      1.0000 0.43680  0.20992  0.38208  Biso   1.000  Cl
  N41      1.0000 0.76930  0.61020  0.91890  Biso   1.000  N
  N42      1.0000 0.23070  0.11020  0.58110  Biso   1.000  N
  N43      1.0000 0.23070  0.38980  0.08110  Biso   1.000  N
  N44      1.0000 0.76930  0.88980  0.41890  Biso   1.000  N
  C73      1.0000 0.87360  0.62140  0.98060  Biso   1.000  C
  C74      1.0000 0.12640  0.12140  0.51940  Biso   1.000  C
  C75      1.0000 0.12640  0.37860  0.01940  Biso   1.000  C
  C76      1.0000 0.87360  0.87860  0.48060  Biso   1.000  C
  H33      1.0000 0.92360  0.58610  0.00280  Biso   1.000  H
  H34      1.0000 0.07640  0.08610  0.49720  Biso   1.000  H
  H35      1.0000 0.07640  0.41390  0.99720  Biso   1.000  H
  H36      1.0000 0.92360  0.91390  0.50280  Biso   1.000  H
  C77      1.0000 0.90560  0.68090  0.00950  Biso   1.000  C
  C78      1.0000 0.09440  0.18090  0.49050  Biso   1.000  C
  C79      1.0000 0.09440  0.31910  0.99050  Biso   1.000  C
  C80      1.0000 0.90560  0.81910  0.50950  Biso   1.000  C
  C81      1.0000 0.83680  0.73250  0.97830  Biso   1.000  C
  C82      1.0000 0.16320  0.23250  0.52170  Biso   1.000  C
  C83      1.0000 0.16320  0.26750  0.02170  Biso   1.000  C
  C84      1.0000 0.83680  0.76750  0.47830  Biso   1.000  C
  H37      1.0000 0.86160  0.77410  0.99720  Biso   1.000  H
  H38      1.0000 0.13840  0.27410  0.50280  Biso   1.000  H
  H39      1.0000 0.13840  0.22590  0.00280  Biso   1.000  H
  H40      1.0000 0.86160  0.72590  0.49720  Biso   1.000  H
  C85      1.0000 0.73490  0.72510  0.92130  Biso   1.000  C
  C86      1.0000 0.26510  0.22510  0.57870  Biso   1.000  C
  C87      1.0000 0.26510  0.27490  0.07870  Biso   1.000  C
  C88      1.0000 0.73490  0.77490  0.42130  Biso   1.000  C
  C89      1.0000 0.70240  0.66310  0.88920  Biso   1.000  C
  C90      1.0000 0.29760  0.16310  0.61080  Biso   1.000  C
  C91      1.0000 0.29760  0.33690  0.11080  Biso   1.000  C
  C92      1.0000 0.70240  0.83690  0.38920  Biso   1.000  C
  H41      1.0000 0.63280  0.65860  0.84620  Biso   1.000  H
  H42      1.0000 0.36720  0.15860  0.65380  Biso   1.000  H
  H43      1.0000 0.36720  0.34140  0.15380  Biso   1.000  H
  H44      1.0000 0.63280  0.84140  0.34620  Biso   1.000  H
  Cl9      1.0000 0.01780  0.69660  0.07830  Biso   1.000  Cl
  Cl10     1.0000 0.98220  0.19660  0.42170  Biso   1.000  Cl
  Cl11     1.0000 0.98220  0.30340  0.92170  Biso   1.000  Cl
  Cl12     1.0000 0.01780  0.80340  0.57830  Biso   1.000  Cl
  Cl13     1.0000 0.65540  0.78690  0.88850  Biso   1.000  Cl
  Cl14     1.0000 0.34460  0.28690  0.61150  Biso   1.000  Cl
  Cl15     1.0000 0.34460  0.21310  0.11150  Biso   1.000  Cl
  Cl16     1.0000 0.65540  0.71310  0.38850  Biso   1.000  Cl
  O1       1.0000 0.01690  0.61350  0.45400  Biso   1.000  O
  O2       1.0000 0.98310  0.11350  0.04600  Biso   1.000  O
  O3       1.0000 0.98310  0.38650  0.54600  Biso   1.000  O
  O4       1.0000 0.01690  0.88650  0.95400  Biso   1.000  O
  O5       1.0000 0.94590  0.67280  0.29860  Biso   1.000  O
  O6       1.0000 0.05410  0.17280  0.20140  Biso   1.000  O
  O7       1.0000 0.05410  0.32720  0.70140  Biso   1.000  O
  O8       1.0000 0.94590  0.82720  0.79860  Biso   1.000  O
  O9       1.0000 0.24470  0.68660  0.50290  Biso   1.000  O
  O10      1.0000 0.75530  0.18660  0.99710  Biso   1.000  O
  O11      1.0000 0.75530  0.31340  0.49710  Biso   1.000  O
  O12      1.0000 0.24470  0.81340  0.00290  Biso   1.000  O
