data_image0
_cell_length_a       10.1695
_cell_length_b       11.7943
_cell_length_c       16.2736
_cell_angle_alpha    81.66
_cell_angle_beta     82.604
_cell_angle_gamma    64.616

_symmetry_space_group_name_H-M    "P 1"
_symmetry_int_tables_number       1

loop_
  _symmetry_equiv_pos_as_xyz
  'x, y, z'

loop_
  _atom_site_label
  _atom_site_occupancy
  _atom_site_fract_x
  _atom_site_fract_y
  _atom_site_fract_z
  _atom_site_thermal_displace_type
  _atom_site_B_iso_or_equiv
  _atom_site_type_symbol
  W1       1.0000 0.22761  0.59605  0.29708  Biso   1.000  W
  W2       1.0000 0.77239  0.40395  0.70292  Biso   1.000  W
  Br1      1.0000 0.27878  0.89853  0.52955  Biso   1.000  Br
  Br2      1.0000 0.72122  0.10147  0.47045  Biso   1.000  Br
  Br3      1.0000 0.89619  0.70700  0.91827  Biso   1.000  Br
  Br4      1.0000 0.10381  0.29300  0.08173  Biso   1.000  Br
  Br5      1.0000 0.85706  0.08912  0.19084  Biso   1.000  Br
  Br6      1.0000 0.14294  0.91088  0.80916  Biso   1.000  Br
  Br7      1.0000 0.53506  0.99334  0.85130  Biso   1.000  Br
  Br8      1.0000 0.46494  0.00666  0.14870  Biso   1.000  Br
  Cu1      1.0000 0.75276  0.51233  0.36814  Biso   1.000  Cu
  Cu2      1.0000 0.24724  0.48767  0.63186  Biso   1.000  Cu
  Cu3      1.0000 0.50000  0.50000  0.00000  Biso   1.000  Cu
  N1       1.0000 0.39220  0.51090  0.11160  Biso   1.000  N
  N2       1.0000 0.60780  0.48910  0.88840  Biso   1.000  N
  N3       1.0000 0.56950  0.51610  0.33450  Biso   1.000  N
  N4       1.0000 0.43050  0.48390  0.66550  Biso   1.000  N
  N5       1.0000 0.99160  0.75030  0.15430  Biso   1.000  N
  N6       1.0000 0.00840  0.24970  0.84570  Biso   1.000  N
  N7       1.0000 0.98320  0.84390  0.38690  Biso   1.000  N
  N8       1.0000 0.01680  0.15610  0.61310  Biso   1.000  N
  N9       1.0000 0.35580  0.28470  0.32540  Biso   1.000  N
  N10      1.0000 0.64420  0.71530  0.67460  Biso   1.000  N
  N11      1.0000 0.25120  0.53540  0.50030  Biso   1.000  N
  N12      1.0000 0.74880  0.46460  0.49970  Biso   1.000  N
  N13      1.0000 0.93730  0.53590  0.34380  Biso   1.000  N
  N14      1.0000 0.06270  0.46410  0.65620  Biso   1.000  N
  N15      1.0000 0.39320  0.73210  0.97820  Biso   1.000  N
  N16      1.0000 0.60680  0.26790  0.02180  Biso   1.000  N
  N17      1.0000 0.33160  0.49020  0.94440  Biso   1.000  N
  N18      1.0000 0.66840  0.50980  0.05560  Biso   1.000  N
  N19      1.0000 0.64120  0.69870  0.38260  Biso   1.000  N
  N20      1.0000 0.35880  0.30130  0.61740  Biso   1.000  N
  N21      1.0000 0.86620  0.33310  0.34220  Biso   1.000  N
  N22      1.0000 0.13380  0.66690  0.65780  Biso   1.000  N
  N23      1.0000 0.32750  0.82670  0.22720  Biso   1.000  N
  N24      1.0000 0.67250  0.17330  0.77280  Biso   1.000  N
  C1       1.0000 0.11370  0.47840  0.86510  Biso   1.000  C
  C2       1.0000 0.88630  0.52160  0.13490  Biso   1.000  C
  C3       1.0000 0.08650  0.57270  0.91140  Biso   1.000  C
  C4       1.0000 0.91350  0.42730  0.08860  Biso   1.000  C
  C5       1.0000 0.19500  0.57700  0.95090  Biso   1.000  C
  C6       1.0000 0.80500  0.42300  0.04910  Biso   1.000  C
  C7       1.0000 0.21850  0.93790  0.01420  Biso   1.000  C
  C8       1.0000 0.78150  0.06210  0.98580  Biso   1.000  C
  C9       1.0000 0.36210  0.39510  0.89690  Biso   1.000  C
  C10      1.0000 0.63790  0.60490  0.10310  Biso   1.000  C
  C11      1.0000 0.25640  0.38530  0.85810  Biso   1.000  C
  C12      1.0000 0.74360  0.61470  0.14190  Biso   1.000  C
  C13      1.0000 0.04340  0.08960  0.30560  Biso   1.000  C
  C14      1.0000 0.95660  0.91040  0.69440  Biso   1.000  C
  C15      1.0000 0.91630  0.15750  0.26700  Biso   1.000  C
  C16      1.0000 0.08370  0.84250  0.73300  Biso   1.000  C
  C17      1.0000 0.83020  0.27980  0.28760  Biso   1.000  C
  C18      1.0000 0.16980  0.72020  0.71240  Biso   1.000  C
  C19      1.0000 0.98940  0.26370  0.38200  Biso   1.000  C
  C20      1.0000 0.01060  0.73630  0.61800  Biso   1.000  C
  C21      1.0000 0.44290  0.85860  0.45120  Biso   1.000  C
  C22      1.0000 0.55710  0.14140  0.54880  Biso   1.000  C
  C23      1.0000 0.48060  0.94930  0.40890  Biso   1.000  C
  C24      1.0000 0.51940  0.05070  0.59110  Biso   1.000  C
  C25      1.0000 0.52160  0.73390  0.43700  Biso   1.000  C
  C26      1.0000 0.47840  0.26610  0.56300  Biso   1.000  C
  C27      1.0000 0.68030  0.78740  0.34130  Biso   1.000  C
  C28      1.0000 0.31970  0.21260  0.65870  Biso   1.000  C
  C29      1.0000 0.33470  0.53610  0.17710  Biso   1.000  C
  C30      1.0000 0.66530  0.46390  0.82290  Biso   1.000  C
  C31      1.0000 0.45300  0.53870  0.31970  Biso   1.000  C
  C32      1.0000 0.54700  0.46130  0.68030  Biso   1.000  C
  C33      1.0000 0.07340  0.69890  0.20380  Biso   1.000  C
  C34      1.0000 0.92660  0.30110  0.79620  Biso   1.000  C
  C35      1.0000 0.07020  0.75700  0.35470  Biso   1.000  C
  C36      1.0000 0.92980  0.24300  0.64530  Biso   1.000  C
  C37      1.0000 0.31130  0.39340  0.31500  Biso   1.000  C
  C38      1.0000 0.68870  0.60660  0.68500  Biso   1.000  C
  C39      1.0000 0.03970  0.55240  0.32980  Biso   1.000  C
  C40      1.0000 0.96030  0.44760  0.67020  Biso   1.000  C
  C41      1.0000 0.24060  0.55800  0.43060  Biso   1.000  C
  C42      1.0000 0.75940  0.44200  0.56940  Biso   1.000  C
  C43      1.0000 0.29070  0.74940  0.25060  Biso   1.000  C
  C44      1.0000 0.70930  0.25060  0.74940  Biso   1.000  C
  C45      1.0000 0.29180  0.99890  0.96140  Biso   1.000  C
  C46      1.0000 0.70820  0.00110  0.03860  Biso   1.000  C
  C47      1.0000 0.46430  0.79180  0.92800  Biso   1.000  C
  C48      1.0000 0.53570  0.20820  0.07200  Biso   1.000  C
  C49      1.0000 0.26950  0.81070  0.02150  Biso   1.000  C
  C50      1.0000 0.73050  0.18930  0.97850  Biso   1.000  C
  C51      1.0000 0.08200  0.14460  0.36160  Biso   1.000  C
  C52      1.0000 0.91800  0.85540  0.63840  Biso   1.000  C
  C53      1.0000 0.59950  0.91520  0.35360  Biso   1.000  C
  C54      1.0000 0.40050  0.08480  0.64640  Biso   1.000  C
  C55      1.0000 0.42190  0.91960  0.91820  Biso   1.000  C
  C56      1.0000 0.57810  0.08040  0.08180  Biso   1.000  C
  H1       1.0000 0.03980  0.47530  0.83860  Biso   1.000  H
  H2       1.0000 0.96020  0.52470  0.16140  Biso   1.000  H
  H3       1.0000 0.17240  0.64270  0.98320  Biso   1.000  H
  H4       1.0000 0.82760  0.35730  0.01680  Biso   1.000  H
  H5       1.0000 0.13330  0.98500  0.04490  Biso   1.000  H
  H6       1.0000 0.86670  0.01500  0.95510  Biso   1.000  H
  H7       1.0000 0.45780  0.33490  0.89050  Biso   1.000  H
  H8       1.0000 0.54220  0.66510  0.10950  Biso   1.000  H
  H9       1.0000 0.27910  0.31770  0.82750  Biso   1.000  H
  H10      1.0000 0.72090  0.68230  0.17250  Biso   1.000  H
  H11      1.0000 0.10280  0.00720  0.29400  Biso   1.000  H
  H12      1.0000 0.89720  0.99280  0.70600  Biso   1.000  H
  H13      1.0000 0.74370  0.32630  0.26180  Biso   1.000  H
  H14      1.0000 0.25630  0.67370  0.73820  Biso   1.000  H
  H15      1.0000 0.01180  0.29710  0.42390  Biso   1.000  H
  H16      1.0000 0.98820  0.70290  0.57610  Biso   1.000  H
  H17      1.0000 0.42590  0.03360  0.41770  Biso   1.000  H
  H18      1.0000 0.57410  0.96640  0.58230  Biso   1.000  H
  H19      1.0000 0.49210  0.67320  0.46510  Biso   1.000  H
  H20      1.0000 0.50790  0.32680  0.53490  Biso   1.000  H
  H21      1.0000 0.76240  0.76410  0.30380  Biso   1.000  H
  H22      1.0000 0.23760  0.23590  0.69620  Biso   1.000  H
  H23      1.0000 0.25770  0.08630  0.95480  Biso   1.000  H
  H24      1.0000 0.74230  0.91370  0.04520  Biso   1.000  H
  H25      1.0000 0.54870  0.74260  0.89760  Biso   1.000  H
  H26      1.0000 0.45130  0.25740  0.10240  Biso   1.000  H
  H27      1.0000 0.21770  0.77380  0.05830  Biso   1.000  H
  H28      1.0000 0.78230  0.22620  0.94170  Biso   1.000  H
  H29      1.0000 0.17060  0.10130  0.38570  Biso   1.000  H
  H30      1.0000 0.82940  0.89870  0.61430  Biso   1.000  H
  H31      1.0000 0.62710  0.97610  0.32400  Biso   1.000  H
  H32      1.0000 0.37290  0.02390  0.67600  Biso   1.000  H
