data_image0
_cell_length_a       10.1924
_cell_length_b       11.706
_cell_length_c       16.9698
_cell_angle_alpha    80.3176
_cell_angle_beta     82.9188
_cell_angle_gamma    64.7791

_symmetry_space_group_name_H-M    "P 1"
_symmetry_int_tables_number       1

loop_
  _symmetry_equiv_pos_as_xyz
  'x, y, z'

loop_
  _atom_site_label
  _atom_site_occupancy
  _atom_site_fract_x
  _atom_site_fract_y
  _atom_site_fract_z
  _atom_site_thermal_displace_type
  _atom_site_B_iso_or_equiv
  _atom_site_type_symbol
  W1       1.0000 0.77099  0.40070  0.19712  Biso   1.000  W
  W2       1.0000 0.22901  0.59930  0.80288  Biso   1.000  W
  I1       1.0000 0.51782  0.99829  0.36167  Biso   1.000  I
  I2       1.0000 0.48218  0.00171  0.63833  Biso   1.000  I
  I3       1.0000 0.12238  0.29368  0.58650  Biso   1.000  I
  I4       1.0000 0.87762  0.70632  0.41350  Biso   1.000  I
  I5       1.0000 0.73953  0.09014  0.96915  Biso   1.000  I
  I6       1.0000 0.26047  0.90986  0.03085  Biso   1.000  I
  I7       1.0000 0.15249  0.90414  0.31070  Biso   1.000  I
  I8       1.0000 0.84751  0.09586  0.68930  Biso   1.000  I
  Cu1      1.0000 0.50000  0.50000  0.50000  Biso   1.000  Cu
  Cu2      1.0000 0.24581  0.48563  0.12611  Biso   1.000  Cu
  Cu3      1.0000 0.75419  0.51437  0.87389  Biso   1.000  Cu
  N1       1.0000 0.66190  0.17560  0.27960  Biso   1.000  N
  N2       1.0000 0.33810  0.82440  0.72040  Biso   1.000  N
  N3       1.0000 0.00170  0.13810  0.12440  Biso   1.000  N
  N4       1.0000 0.99830  0.86190  0.87560  Biso   1.000  N
  N5       1.0000 0.00360  0.24840  0.33900  Biso   1.000  N
  N6       1.0000 0.99640  0.75160  0.66100  Biso   1.000  N
  N7       1.0000 0.64900  0.71490  0.15420  Biso   1.000  N
  N8       1.0000 0.35100  0.28510  0.84580  Biso   1.000  N
  N9       1.0000 0.66280  0.51240  0.55820  Biso   1.000  N
  N10      1.0000 0.33720  0.48760  0.44180  Biso   1.000  N
  N11      1.0000 0.40010  0.69840  0.48580  Biso   1.000  N
  N12      1.0000 0.59990  0.30160  0.51420  Biso   1.000  N
  N13      1.0000 0.36030  0.29850  0.11350  Biso   1.000  N
  N14      1.0000 0.63970  0.70150  0.88650  Biso   1.000  N
  N15      1.0000 0.12630  0.66360  0.15530  Biso   1.000  N
  N16      1.0000 0.87370  0.33640  0.84470  Biso   1.000  N
  N17      1.0000 0.06440  0.45580  0.15000  Biso   1.000  N
  N18      1.0000 0.93560  0.54420  0.85000  Biso   1.000  N
  N19      1.0000 0.75590  0.45690  0.99970  Biso   1.000  N
  N20      1.0000 0.24410  0.54310  0.00030  Biso   1.000  N
  N21      1.0000 0.61770  0.50570  0.37020  Biso   1.000  N
  N22      1.0000 0.38230  0.49430  0.62980  Biso   1.000  N
  N23      1.0000 0.42880  0.48440  0.15740  Biso   1.000  N
  N24      1.0000 0.57120  0.51560  0.84260  Biso   1.000  N
  C1       1.0000 0.55810  0.13850  0.05030  Biso   1.000  C
  C2       1.0000 0.44190  0.86150  0.94970  Biso   1.000  C
  C3       1.0000 0.47640  0.26410  0.06190  Biso   1.000  C
  C4       1.0000 0.52360  0.73590  0.93810  Biso   1.000  C
  C5       1.0000 0.76390  0.43610  0.06780  Biso   1.000  C
  C6       1.0000 0.23610  0.56390  0.93220  Biso   1.000  C
  C7       1.0000 0.32360  0.20690  0.15530  Biso   1.000  C
  C8       1.0000 0.67640  0.79310  0.84470  Biso   1.000  C
  C9       1.0000 0.39910  0.08200  0.14480  Biso   1.000  C
  C10      1.0000 0.60090  0.91800  0.85520  Biso   1.000  C
  C11      1.0000 0.51920  0.04560  0.09100  Biso   1.000  C
  C12      1.0000 0.48080  0.95440  0.90900  Biso   1.000  C
  C13      1.0000 0.92040  0.22990  0.15000  Biso   1.000  C
  C14      1.0000 0.07960  0.77010  0.85000  Biso   1.000  C
  C15      1.0000 0.92410  0.29880  0.29080  Biso   1.000  C
  C16      1.0000 0.07590  0.70120  0.70920  Biso   1.000  C
  C17      1.0000 0.96210  0.43930  0.16540  Biso   1.000  C
  C18      1.0000 0.03790  0.56070  0.83460  Biso   1.000  C
  C19      1.0000 0.66700  0.47510  0.30790  Biso   1.000  C
  C20      1.0000 0.33300  0.52490  0.69210  Biso   1.000  C
  C21      1.0000 0.54560  0.46020  0.17220  Biso   1.000  C
  C22      1.0000 0.45440  0.53980  0.82780  Biso   1.000  C
  C23      1.0000 0.70330  0.25170  0.25170  Biso   1.000  C
  C24      1.0000 0.29670  0.74830  0.74830  Biso   1.000  C
  C25      1.0000 0.69150  0.60580  0.17050  Biso   1.000  C
  C26      1.0000 0.30850  0.39420  0.82950  Biso   1.000  C
  C27      1.0000 0.46170  0.76630  0.43820  Biso   1.000  C
  C28      1.0000 0.53830  0.23370  0.56180  Biso   1.000  C
  C29      1.0000 0.40730  0.89960  0.43350  Biso   1.000  C
  C30      1.0000 0.59270  0.10040  0.56650  Biso   1.000  C
  C31      1.0000 0.28100  0.96360  0.47730  Biso   1.000  C
  C32      1.0000 0.71900  0.03640  0.52270  Biso   1.000  C
  C33      1.0000 0.21260  0.89520  0.52610  Biso   1.000  C
  C34      1.0000 0.78740  0.10480  0.47390  Biso   1.000  C
  C35      1.0000 0.27630  0.76400  0.53030  Biso   1.000  C
  C36      1.0000 0.72370  0.23600  0.46970  Biso   1.000  C
  C37      1.0000 0.62570  0.60000  0.60740  Biso   1.000  C
  C38      1.0000 0.37430  0.40000  0.39260  Biso   1.000  C
  C39      1.0000 0.72830  0.60950  0.65100  Biso   1.000  C
  C40      1.0000 0.27170  0.39050  0.34900  Biso   1.000  C
  C41      1.0000 0.87060  0.52780  0.64450  Biso   1.000  C
  C42      1.0000 0.12940  0.47220  0.35550  Biso   1.000  C
  C43      1.0000 0.90800  0.43470  0.59520  Biso   1.000  C
  C44      1.0000 0.09200  0.56530  0.40480  Biso   1.000  C
  C45      1.0000 0.80310  0.43160  0.55170  Biso   1.000  C
  C46      1.0000 0.19690  0.56840  0.44830  Biso   1.000  C
  C47      1.0000 0.16690  0.71430  0.20730  Biso   1.000  C
  C48      1.0000 0.83310  0.28570  0.79270  Biso   1.000  C
  C49      1.0000 0.07740  0.83150  0.23150  Biso   1.000  C
  C50      1.0000 0.92260  0.16850  0.76850  Biso   1.000  C
  C51      1.0000 0.94240  0.89650  0.20370  Biso   1.000  C
  C52      1.0000 0.05760  0.10350  0.79630  Biso   1.000  C
  C53      1.0000 0.99430  0.72930  0.12680  Biso   1.000  C
  C54      1.0000 0.00570  0.27070  0.87320  Biso   1.000  C
  C55      1.0000 0.90060  0.84370  0.14920  Biso   1.000  C
  C56      1.0000 0.09940  0.15630  0.85080  Biso   1.000  C
  H1       1.0000 0.50290  0.32660  0.03300  Biso   1.000  H
  H2       1.0000 0.49710  0.67340  0.96700  Biso   1.000  H
  H3       1.0000 0.24440  0.22960  0.19230  Biso   1.000  H
  H4       1.0000 0.75560  0.77040  0.80770  Biso   1.000  H
  H5       1.0000 0.37010  0.02100  0.17380  Biso   1.000  H
  H6       1.0000 0.62990  0.97900  0.82620  Biso   1.000  H
  H7       1.0000 0.57140  0.96080  0.08300  Biso   1.000  H
  H8       1.0000 0.42860  0.03920  0.91700  Biso   1.000  H
  H9       1.0000 0.54440  0.72390  0.40670  Biso   1.000  H
  H10      1.0000 0.45560  0.27610  0.59330  Biso   1.000  H
  H11      1.0000 0.24210  0.05180  0.47410  Biso   1.000  H
  H12      1.0000 0.75790  0.94820  0.52590  Biso   1.000  H
  H13      1.0000 0.12620  0.93660  0.55530  Biso   1.000  H
  H14      1.0000 0.87380  0.06340  0.44470  Biso   1.000  H
  H15      1.0000 0.23320  0.71780  0.56510  Biso   1.000  H
  H16      1.0000 0.76680  0.28220  0.43490  Biso   1.000  H
  H17      1.0000 0.52870  0.65670  0.61310  Biso   1.000  H
  H18      1.0000 0.47130  0.34330  0.38690  Biso   1.000  H
  H19      1.0000 0.69860  0.67240  0.68450  Biso   1.000  H
  H20      1.0000 0.30140  0.32760  0.31550  Biso   1.000  H
  H21      1.0000 0.93990  0.53420  0.67220  Biso   1.000  H
  H22      1.0000 0.06010  0.46580  0.32780  Biso   1.000  H
  H23      1.0000 0.83130  0.37100  0.51670  Biso   1.000  H
  H24      1.0000 0.16870  0.62900  0.48330  Biso   1.000  H
  H25      1.0000 0.25810  0.66960  0.22800  Biso   1.000  H
  H26      1.0000 0.74190  0.33040  0.77200  Biso   1.000  H
  H27      1.0000 0.87960  0.97410  0.22060  Biso   1.000  H
  H28      1.0000 0.12040  0.02590  0.77940  Biso   1.000  H
  H29      1.0000 0.96540  0.69500  0.09010  Biso   1.000  H
  H30      1.0000 0.03460  0.30500  0.90990  Biso   1.000  H
  H31      1.0000 0.80940  0.88630  0.12830  Biso   1.000  H
  H32      1.0000 0.19060  0.11370  0.87170  Biso   1.000  H
