data_image0
_cell_length_a       15.6547
_cell_length_b       15.6547
_cell_length_c       15.6547
_cell_angle_alpha    90
_cell_angle_beta     90
_cell_angle_gamma    90

_symmetry_space_group_name_H-M    "P 1"
_symmetry_int_tables_number       1

loop_
  _symmetry_equiv_pos_as_xyz
  'x, y, z'

loop_
  _atom_site_label
  _atom_site_occupancy
  _atom_site_fract_x
  _atom_site_fract_y
  _atom_site_fract_z
  _atom_site_thermal_displace_type
  _atom_site_B_iso_or_equiv
  _atom_site_type_symbol
  Cu1      1.0000 0.37500  0.62500  0.12500  Biso   1.000  Cu
  Cu2      1.0000 0.87500  0.87500  0.87500  Biso   1.000  Cu
  Cu3      1.0000 0.12500  0.37500  0.62500  Biso   1.000  Cu
  Cu4      1.0000 0.62500  0.12500  0.37500  Biso   1.000  Cu
  N1       1.0000 0.38960  0.63040  0.25961  Biso   1.000  N
  N2       1.0000 0.88960  0.86960  0.74039  Biso   1.000  N
  N3       1.0000 0.11040  0.36960  0.75961  Biso   1.000  N
  N4       1.0000 0.61040  0.13040  0.24039  Biso   1.000  N
  N5       1.0000 0.61960  0.13960  0.50961  Biso   1.000  N
  N6       1.0000 0.38040  0.63960  0.99039  Biso   1.000  N
  N7       1.0000 0.88040  0.86040  0.00961  Biso   1.000  N
  N8       1.0000 0.11960  0.36040  0.49039  Biso   1.000  N
  N9       1.0000 0.63040  0.25961  0.38960  Biso   1.000  N
  N10      1.0000 0.86960  0.74039  0.88960  Biso   1.000  N
  N11      1.0000 0.13040  0.24039  0.61040  Biso   1.000  N
  N12      1.0000 0.36960  0.75961  0.11040  Biso   1.000  N
  N13      1.0000 0.99039  0.38040  0.63960  Biso   1.000  N
  N14      1.0000 0.49039  0.11960  0.36040  Biso   1.000  N
  N15      1.0000 0.50961  0.61960  0.13960  Biso   1.000  N
  N16      1.0000 0.00961  0.88040  0.86040  Biso   1.000  N
  N17      1.0000 0.25961  0.38960  0.63040  Biso   1.000  N
  N18      1.0000 0.74039  0.88960  0.86960  Biso   1.000  N
  N19      1.0000 0.24039  0.61040  0.13040  Biso   1.000  N
  N20      1.0000 0.75961  0.11040  0.36960  Biso   1.000  N
  N21      1.0000 0.36040  0.49039  0.11960  Biso   1.000  N
  N22      1.0000 0.86040  0.00961  0.88040  Biso   1.000  N
  N23      1.0000 0.63960  0.99039  0.38040  Biso   1.000  N
  N24      1.0000 0.13960  0.50961  0.61960  Biso   1.000  N
  C1       1.0000 0.32620  0.63710  0.31580  Biso   1.000  C
  C2       1.0000 0.82620  0.86290  0.68420  Biso   1.000  C
  C3       1.0000 0.17380  0.36290  0.81580  Biso   1.000  C
  C4       1.0000 0.67380  0.13710  0.18420  Biso   1.000  C
  C5       1.0000 0.61290  0.07620  0.56580  Biso   1.000  C
  C6       1.0000 0.38710  0.57620  0.93420  Biso   1.000  C
  C7       1.0000 0.88710  0.92380  0.06580  Biso   1.000  C
  C8       1.0000 0.11290  0.42380  0.43420  Biso   1.000  C
  C9       1.0000 0.63710  0.31580  0.32620  Biso   1.000  C
  C10      1.0000 0.86290  0.68420  0.82620  Biso   1.000  C
  C11      1.0000 0.13710  0.18420  0.67380  Biso   1.000  C
  C12      1.0000 0.36290  0.81580  0.17380  Biso   1.000  C
  C13      1.0000 0.93420  0.38710  0.57620  Biso   1.000  C
  C14      1.0000 0.43420  0.11290  0.42380  Biso   1.000  C
  C15      1.0000 0.56580  0.61290  0.07620  Biso   1.000  C
  C16      1.0000 0.06580  0.88710  0.92380  Biso   1.000  C
  C17      1.0000 0.31580  0.32620  0.63710  Biso   1.000  C
  C18      1.0000 0.68420  0.82620  0.86290  Biso   1.000  C
  C19      1.0000 0.18420  0.67380  0.13710  Biso   1.000  C
  C20      1.0000 0.81580  0.17380  0.36290  Biso   1.000  C
  C21      1.0000 0.42380  0.43420  0.11290  Biso   1.000  C
  C22      1.0000 0.92380  0.06580  0.88710  Biso   1.000  C
  C23      1.0000 0.57620  0.93420  0.38710  Biso   1.000  C
  C24      1.0000 0.07620  0.56580  0.61290  Biso   1.000  C
  H1       1.0000 0.27030  0.63880  0.29560  Biso   1.000  H
  H2       1.0000 0.77030  0.86120  0.70440  Biso   1.000  H
  H3       1.0000 0.22970  0.36120  0.79560  Biso   1.000  H
  H4       1.0000 0.72970  0.13880  0.20440  Biso   1.000  H
  H5       1.0000 0.61120  0.02030  0.54560  Biso   1.000  H
  H6       1.0000 0.38880  0.52030  0.95440  Biso   1.000  H
  H7       1.0000 0.88880  0.97970  0.04560  Biso   1.000  H
  H8       1.0000 0.11120  0.47970  0.45440  Biso   1.000  H
  H9       1.0000 0.63880  0.29560  0.27030  Biso   1.000  H
  H10      1.0000 0.86120  0.70440  0.77030  Biso   1.000  H
  H11      1.0000 0.13880  0.20440  0.72970  Biso   1.000  H
  H12      1.0000 0.36120  0.79560  0.22970  Biso   1.000  H
  H13      1.0000 0.95440  0.38880  0.52030  Biso   1.000  H
  H14      1.0000 0.45440  0.11120  0.47970  Biso   1.000  H
  H15      1.0000 0.54560  0.61120  0.02030  Biso   1.000  H
  H16      1.0000 0.04560  0.88880  0.97970  Biso   1.000  H
  H17      1.0000 0.29560  0.27030  0.63880  Biso   1.000  H
  H18      1.0000 0.70440  0.77030  0.86120  Biso   1.000  H
  H19      1.0000 0.20440  0.72970  0.13880  Biso   1.000  H
  H20      1.0000 0.79560  0.22970  0.36120  Biso   1.000  H
  H21      1.0000 0.47970  0.45440  0.11120  Biso   1.000  H
  H22      1.0000 0.97970  0.04560  0.88880  Biso   1.000  H
  H23      1.0000 0.52030  0.95440  0.38880  Biso   1.000  H
  H24      1.0000 0.02030  0.54560  0.61120  Biso   1.000  H
  C25      1.0000 0.33950  0.64180  0.40190  Biso   1.000  C
  C26      1.0000 0.83950  0.85820  0.59810  Biso   1.000  C
  C27      1.0000 0.16050  0.35820  0.90190  Biso   1.000  C
  C28      1.0000 0.66050  0.14180  0.09810  Biso   1.000  C
  C29      1.0000 0.60820  0.08950  0.65190  Biso   1.000  C
  C30      1.0000 0.39180  0.58950  0.84810  Biso   1.000  C
  C31      1.0000 0.89180  0.91050  0.15190  Biso   1.000  C
  C32      1.0000 0.10820  0.41050  0.34810  Biso   1.000  C
  C33      1.0000 0.64180  0.40190  0.33950  Biso   1.000  C
  C34      1.0000 0.85820  0.59810  0.83950  Biso   1.000  C
  C35      1.0000 0.14180  0.09810  0.66050  Biso   1.000  C
  C36      1.0000 0.35820  0.90190  0.16050  Biso   1.000  C
  C37      1.0000 0.84810  0.39180  0.58950  Biso   1.000  C
  C38      1.0000 0.34810  0.10820  0.41050  Biso   1.000  C
  C39      1.0000 0.65190  0.60820  0.08950  Biso   1.000  C
  C40      1.0000 0.15190  0.89180  0.91050  Biso   1.000  C
  C41      1.0000 0.40190  0.33950  0.64180  Biso   1.000  C
  C42      1.0000 0.59810  0.83950  0.85820  Biso   1.000  C
  C43      1.0000 0.09810  0.66050  0.14180  Biso   1.000  C
  C44      1.0000 0.90190  0.16050  0.35820  Biso   1.000  C
  C45      1.0000 0.41050  0.34810  0.10820  Biso   1.000  C
  C46      1.0000 0.91050  0.15190  0.89180  Biso   1.000  C
  C47      1.0000 0.58950  0.84810  0.39180  Biso   1.000  C
  C48      1.0000 0.08950  0.65190  0.60820  Biso   1.000  C
  H25      1.0000 0.29380  0.64740  0.43940  Biso   1.000  H
  H26      1.0000 0.79380  0.85260  0.56060  Biso   1.000  H
  H27      1.0000 0.20620  0.35260  0.93940  Biso   1.000  H
  H28      1.0000 0.70620  0.14740  0.06060  Biso   1.000  H
  H29      1.0000 0.60260  0.04380  0.68940  Biso   1.000  H
  H30      1.0000 0.39740  0.54380  0.81060  Biso   1.000  H
  H31      1.0000 0.89740  0.95620  0.18940  Biso   1.000  H
  H32      1.0000 0.10260  0.45620  0.31060  Biso   1.000  H
  H33      1.0000 0.64740  0.43940  0.29380  Biso   1.000  H
  H34      1.0000 0.85260  0.56060  0.79380  Biso   1.000  H
  H35      1.0000 0.14740  0.06060  0.70620  Biso   1.000  H
  H36      1.0000 0.35260  0.93940  0.20620  Biso   1.000  H
  H37      1.0000 0.81060  0.39740  0.54380  Biso   1.000  H
  H38      1.0000 0.31060  0.10260  0.45620  Biso   1.000  H
  H39      1.0000 0.68940  0.60260  0.04380  Biso   1.000  H
  H40      1.0000 0.18940  0.89740  0.95620  Biso   1.000  H
  H41      1.0000 0.43940  0.29380  0.64740  Biso   1.000  H
  H42      1.0000 0.56060  0.79380  0.85260  Biso   1.000  H
  H43      1.0000 0.06060  0.70620  0.14740  Biso   1.000  H
  H44      1.0000 0.93940  0.20620  0.35260  Biso   1.000  H
  H45      1.0000 0.45620  0.31060  0.10260  Biso   1.000  H
  H46      1.0000 0.95620  0.18940  0.89740  Biso   1.000  H
  H47      1.0000 0.54380  0.81060  0.39740  Biso   1.000  H
  H48      1.0000 0.04380  0.68940  0.60260  Biso   1.000  H
  C49      1.0000 0.42160  0.63810  0.43180  Biso   1.000  C
  C50      1.0000 0.92160  0.86190  0.56820  Biso   1.000  C
  C51      1.0000 0.07840  0.36190  0.93180  Biso   1.000  C
  C52      1.0000 0.57840  0.13810  0.06820  Biso   1.000  C
  C53      1.0000 0.61190  0.17160  0.68180  Biso   1.000  C
  C54      1.0000 0.38810  0.67160  0.81820  Biso   1.000  C
  C55      1.0000 0.88810  0.82840  0.18180  Biso   1.000  C
  C56      1.0000 0.11190  0.32840  0.31820  Biso   1.000  C
  C57      1.0000 0.63810  0.43180  0.42160  Biso   1.000  C
  C58      1.0000 0.86190  0.56820  0.92160  Biso   1.000  C
  C59      1.0000 0.13810  0.06820  0.57840  Biso   1.000  C
  C60      1.0000 0.36190  0.93180  0.07840  Biso   1.000  C
  C61      1.0000 0.81820  0.38810  0.67160  Biso   1.000  C
  C62      1.0000 0.31820  0.11190  0.32840  Biso   1.000  C
  C63      1.0000 0.68180  0.61190  0.17160  Biso   1.000  C
  C64      1.0000 0.18180  0.88810  0.82840  Biso   1.000  C
  C65      1.0000 0.43180  0.42160  0.63810  Biso   1.000  C
  C66      1.0000 0.56820  0.92160  0.86190  Biso   1.000  C
  C67      1.0000 0.06820  0.57840  0.13810  Biso   1.000  C
  C68      1.0000 0.93180  0.07840  0.36190  Biso   1.000  C
  C69      1.0000 0.32840  0.31820  0.11190  Biso   1.000  C
  C70      1.0000 0.82840  0.18180  0.88810  Biso   1.000  C
  C71      1.0000 0.67160  0.81820  0.38810  Biso   1.000  C
  C72      1.0000 0.17160  0.68180  0.61190  Biso   1.000  C
  H49      1.0000 0.43220  0.64010  0.49020  Biso   1.000  H
  H50      1.0000 0.93220  0.85990  0.50980  Biso   1.000  H
  H51      1.0000 0.06780  0.35990  0.99020  Biso   1.000  H
  H52      1.0000 0.56780  0.14010  0.00980  Biso   1.000  H
  H53      1.0000 0.60990  0.18220  0.74020  Biso   1.000  H
  H54      1.0000 0.39010  0.68220  0.75980  Biso   1.000  H
  H55      1.0000 0.89010  0.81780  0.24020  Biso   1.000  H
  H56      1.0000 0.10990  0.31780  0.25980  Biso   1.000  H
  H57      1.0000 0.64010  0.49020  0.43220  Biso   1.000  H
  H58      1.0000 0.85990  0.50980  0.93220  Biso   1.000  H
  H59      1.0000 0.14010  0.00980  0.56780  Biso   1.000  H
  H60      1.0000 0.35990  0.99020  0.06780  Biso   1.000  H
  H61      1.0000 0.75980  0.39010  0.68220  Biso   1.000  H
  H62      1.0000 0.25980  0.10990  0.31780  Biso   1.000  H
  H63      1.0000 0.74020  0.60990  0.18220  Biso   1.000  H
  H64      1.0000 0.24020  0.89010  0.81780  Biso   1.000  H
  H65      1.0000 0.49020  0.43220  0.64010  Biso   1.000  H
  H66      1.0000 0.50980  0.93220  0.85990  Biso   1.000  H
  H67      1.0000 0.00980  0.56780  0.14010  Biso   1.000  H
  H68      1.0000 0.99020  0.06780  0.35990  Biso   1.000  H
  H69      1.0000 0.31780  0.25980  0.10990  Biso   1.000  H
  H70      1.0000 0.81780  0.24020  0.89010  Biso   1.000  H
  H71      1.0000 0.68220  0.75980  0.39010  Biso   1.000  H
  H72      1.0000 0.18220  0.74020  0.60990  Biso   1.000  H
  C73      1.0000 0.48950  0.63120  0.37390  Biso   1.000  C
  C74      1.0000 0.98950  0.86880  0.62610  Biso   1.000  C
  C75      1.0000 0.01050  0.36880  0.87390  Biso   1.000  C
  C76      1.0000 0.51050  0.13120  0.12610  Biso   1.000  C
  C77      1.0000 0.61880  0.23950  0.62390  Biso   1.000  C
  C78      1.0000 0.38120  0.73950  0.87610  Biso   1.000  C
  C79      1.0000 0.88120  0.76050  0.12390  Biso   1.000  C
  C80      1.0000 0.11880  0.26050  0.37610  Biso   1.000  C
  C81      1.0000 0.63120  0.37390  0.48950  Biso   1.000  C
  C82      1.0000 0.86880  0.62610  0.98950  Biso   1.000  C
  C83      1.0000 0.13120  0.12610  0.51050  Biso   1.000  C
  C84      1.0000 0.36880  0.87390  0.01050  Biso   1.000  C
  C85      1.0000 0.87610  0.38120  0.73950  Biso   1.000  C
  C86      1.0000 0.37610  0.11880  0.26050  Biso   1.000  C
  C87      1.0000 0.62390  0.61880  0.23950  Biso   1.000  C
  C88      1.0000 0.12390  0.88120  0.76050  Biso   1.000  C
  C89      1.0000 0.37390  0.48950  0.63120  Biso   1.000  C
  C90      1.0000 0.62610  0.98950  0.86880  Biso   1.000  C
  C91      1.0000 0.12610  0.51050  0.13120  Biso   1.000  C
  C92      1.0000 0.87390  0.01050  0.36880  Biso   1.000  C
  C93      1.0000 0.26050  0.37610  0.11880  Biso   1.000  C
  C94      1.0000 0.76050  0.12390  0.88120  Biso   1.000  C
  C95      1.0000 0.73950  0.87610  0.38120  Biso   1.000  C
  C96      1.0000 0.23950  0.62390  0.61880  Biso   1.000  C
  H73      1.0000 0.54560  0.62880  0.39320  Biso   1.000  H
  H74      1.0000 0.04560  0.87120  0.60680  Biso   1.000  H
  H75      1.0000 0.95440  0.37120  0.89320  Biso   1.000  H
  H76      1.0000 0.45440  0.12880  0.10680  Biso   1.000  H
  H77      1.0000 0.62120  0.29560  0.64320  Biso   1.000  H
  H78      1.0000 0.37880  0.79560  0.85680  Biso   1.000  H
  H79      1.0000 0.87880  0.70440  0.14320  Biso   1.000  H
  H80      1.0000 0.12120  0.20440  0.35680  Biso   1.000  H
  H81      1.0000 0.62880  0.39320  0.54560  Biso   1.000  H
  H82      1.0000 0.87120  0.60680  0.04560  Biso   1.000  H
  H83      1.0000 0.12880  0.10680  0.45440  Biso   1.000  H
  H84      1.0000 0.37120  0.89320  0.95440  Biso   1.000  H
  H85      1.0000 0.85680  0.37880  0.79560  Biso   1.000  H
  H86      1.0000 0.35680  0.12120  0.20440  Biso   1.000  H
  H87      1.0000 0.64320  0.62120  0.29560  Biso   1.000  H
  H88      1.0000 0.14320  0.87880  0.70440  Biso   1.000  H
  H89      1.0000 0.39320  0.54560  0.62880  Biso   1.000  H
  H90      1.0000 0.60680  0.04560  0.87120  Biso   1.000  H
  H91      1.0000 0.10680  0.45440  0.12880  Biso   1.000  H
  H92      1.0000 0.89320  0.95440  0.37120  Biso   1.000  H
  H93      1.0000 0.20440  0.35680  0.12120  Biso   1.000  H
  H94      1.0000 0.70440  0.14320  0.87880  Biso   1.000  H
  H95      1.0000 0.79560  0.85680  0.37880  Biso   1.000  H
  H96      1.0000 0.29560  0.64320  0.62120  Biso   1.000  H
  C97      1.0000 0.47140  0.62790  0.28770  Biso   1.000  C
  C98      1.0000 0.97140  0.87210  0.71230  Biso   1.000  C
  C99      1.0000 0.02860  0.37210  0.78770  Biso   1.000  C
  C100     1.0000 0.52860  0.12790  0.21230  Biso   1.000  C
  C101     1.0000 0.62210  0.22140  0.53770  Biso   1.000  C
  C102     1.0000 0.37790  0.72140  0.96230  Biso   1.000  C
  C103     1.0000 0.87790  0.77860  0.03770  Biso   1.000  C
  C104     1.0000 0.12210  0.27860  0.46230  Biso   1.000  C
  C105     1.0000 0.62790  0.28770  0.47140  Biso   1.000  C
  C106     1.0000 0.87210  0.71230  0.97140  Biso   1.000  C
  C107     1.0000 0.12790  0.21230  0.52860  Biso   1.000  C
  C108     1.0000 0.37210  0.78770  0.02860  Biso   1.000  C
  C109     1.0000 0.96230  0.37790  0.72140  Biso   1.000  C
  C110     1.0000 0.46230  0.12210  0.27860  Biso   1.000  C
  C111     1.0000 0.53770  0.62210  0.22140  Biso   1.000  C
  C112     1.0000 0.03770  0.87790  0.77860  Biso   1.000  C
  C113     1.0000 0.28770  0.47140  0.62790  Biso   1.000  C
  C114     1.0000 0.71230  0.97140  0.87210  Biso   1.000  C
  C115     1.0000 0.21230  0.52860  0.12790  Biso   1.000  C
  C116     1.0000 0.78770  0.02860  0.37210  Biso   1.000  C
  C117     1.0000 0.27860  0.46230  0.12210  Biso   1.000  C
  C118     1.0000 0.77860  0.03770  0.87790  Biso   1.000  C
  C119     1.0000 0.72140  0.96230  0.37790  Biso   1.000  C
  C120     1.0000 0.22140  0.53770  0.62210  Biso   1.000  C
  O1       1.0000 0.14134  0.86585  0.21374  Biso   1.000  O
  O2       1.0000 0.64134  0.63415  0.78626  Biso   1.000  O
  O3       1.0000 0.35866  0.13415  0.71374  Biso   1.000  O
  O4       1.0000 0.85866  0.36585  0.28626  Biso   1.000  O
  O5       1.0000 0.38415  0.89134  0.46374  Biso   1.000  O
  O6       1.0000 0.61585  0.39134  0.03626  Biso   1.000  O
  O7       1.0000 0.11585  0.10866  0.96374  Biso   1.000  O
  O8       1.0000 0.88415  0.60866  0.53626  Biso   1.000  O
  O9       1.0000 0.86585  0.21374  0.14134  Biso   1.000  O
  O10      1.0000 0.63415  0.78626  0.64134  Biso   1.000  O
  O11      1.0000 0.36585  0.28626  0.85866  Biso   1.000  O
  O12      1.0000 0.13415  0.71374  0.35866  Biso   1.000  O
  O13      1.0000 0.03626  0.61585  0.39134  Biso   1.000  O
  O14      1.0000 0.53626  0.88415  0.60866  Biso   1.000  O
  O15      1.0000 0.46374  0.38415  0.89134  Biso   1.000  O
  O16      1.0000 0.96374  0.11585  0.10866  Biso   1.000  O
  O17      1.0000 0.21374  0.14134  0.86585  Biso   1.000  O
  O18      1.0000 0.78626  0.64134  0.63415  Biso   1.000  O
  O19      1.0000 0.28626  0.85866  0.36585  Biso   1.000  O
  O20      1.0000 0.71374  0.35866  0.13415  Biso   1.000  O
  O21      1.0000 0.60866  0.53626  0.88415  Biso   1.000  O
  O22      1.0000 0.10866  0.96374  0.11585  Biso   1.000  O
  O23      1.0000 0.39134  0.03626  0.61585  Biso   1.000  O
  O24      1.0000 0.89134  0.46374  0.38415  Biso   1.000  O
  O25      1.0000 0.13431  0.98786  0.33641  Biso   1.000  O
  O26      1.0000 0.63431  0.51214  0.66359  Biso   1.000  O
  O27      1.0000 0.36569  0.01214  0.83641  Biso   1.000  O
  O28      1.0000 0.86569  0.48786  0.16359  Biso   1.000  O
  O29      1.0000 0.26214  0.88431  0.58641  Biso   1.000  O
  O30      1.0000 0.73786  0.38431  0.91359  Biso   1.000  O
  O31      1.0000 0.23786  0.11569  0.08641  Biso   1.000  O
  O32      1.0000 0.76214  0.61569  0.41359  Biso   1.000  O
  O33      1.0000 0.98786  0.33641  0.13431  Biso   1.000  O
  O34      1.0000 0.51214  0.66359  0.63431  Biso   1.000  O
  O35      1.0000 0.48786  0.16359  0.86569  Biso   1.000  O
  O36      1.0000 0.01214  0.83641  0.36569  Biso   1.000  O
  O37      1.0000 0.91359  0.73786  0.38431  Biso   1.000  O
  O38      1.0000 0.41359  0.76214  0.61569  Biso   1.000  O
  O39      1.0000 0.58641  0.26214  0.88431  Biso   1.000  O
  O40      1.0000 0.08641  0.23786  0.11569  Biso   1.000  O
  O41      1.0000 0.33641  0.13431  0.98786  Biso   1.000  O
  O42      1.0000 0.66359  0.63431  0.51214  Biso   1.000  O
  O43      1.0000 0.16359  0.86569  0.48786  Biso   1.000  O
  O44      1.0000 0.83641  0.36569  0.01214  Biso   1.000  O
  O45      1.0000 0.61569  0.41359  0.76214  Biso   1.000  O
  O46      1.0000 0.11569  0.08641  0.23786  Biso   1.000  O
  O47      1.0000 0.38431  0.91359  0.73786  Biso   1.000  O
  O48      1.0000 0.88431  0.58641  0.26214  Biso   1.000  O
  C121     1.0000 0.12500  0.94020  0.19020  Biso   1.000  C
  C122     1.0000 0.62500  0.55980  0.80980  Biso   1.000  C
  C123     1.0000 0.37500  0.05980  0.69020  Biso   1.000  C
  C124     1.0000 0.87500  0.44020  0.30980  Biso   1.000  C
  C125     1.0000 0.30980  0.87500  0.44020  Biso   1.000  C
  C126     1.0000 0.69020  0.37500  0.05980  Biso   1.000  C
  C127     1.0000 0.19020  0.12500  0.94020  Biso   1.000  C
  C128     1.0000 0.80980  0.62500  0.55980  Biso   1.000  C
  C129     1.0000 0.94020  0.19020  0.12500  Biso   1.000  C
  C130     1.0000 0.55980  0.80980  0.62500  Biso   1.000  C
  C131     1.0000 0.44020  0.30980  0.87500  Biso   1.000  C
  C132     1.0000 0.05980  0.69020  0.37500  Biso   1.000  C
  C133     1.0000 0.12500  0.01140  0.26140  Biso   1.000  C
  C134     1.0000 0.62500  0.48860  0.73860  Biso   1.000  C
  C135     1.0000 0.37500  0.98860  0.76140  Biso   1.000  C
  C136     1.0000 0.87500  0.51140  0.23860  Biso   1.000  C
  C137     1.0000 0.23860  0.87500  0.51140  Biso   1.000  C
  C138     1.0000 0.76140  0.37500  0.98860  Biso   1.000  C
  C139     1.0000 0.26140  0.12500  0.01140  Biso   1.000  C
  C140     1.0000 0.73860  0.62500  0.48860  Biso   1.000  C
  C141     1.0000 0.01140  0.26140  0.12500  Biso   1.000  C
  C142     1.0000 0.48860  0.73860  0.62500  Biso   1.000  C
  C143     1.0000 0.51140  0.23860  0.87500  Biso   1.000  C
  C144     1.0000 0.98860  0.76140  0.37500  Biso   1.000  C
  Mn1      1.0000 0.14929  0.85071  0.35071  Biso   1.000  Mn
  Mn2      1.0000 0.64929  0.64929  0.64929  Biso   1.000  Mn
  Mn3      1.0000 0.35071  0.14929  0.85071  Biso   1.000  Mn
  Mn4      1.0000 0.85071  0.35071  0.14929  Biso   1.000  Mn
  Mn5      1.0000 0.39929  0.89929  0.60071  Biso   1.000  Mn
  Mn6      1.0000 0.60071  0.39929  0.89929  Biso   1.000  Mn
  Mn7      1.0000 0.10071  0.10071  0.10071  Biso   1.000  Mn
  Mn8      1.0000 0.89929  0.60071  0.39929  Biso   1.000  Mn
  O49      1.0000 0.37500  0.37500  0.37500  Biso   1.000  O
  O50      1.0000 0.87500  0.12500  0.62500  Biso   1.000  O
  O51      1.0000 0.12500  0.62500  0.87500  Biso   1.000  O
  O52      1.0000 0.62500  0.87500  0.12500  Biso   1.000  O
