data_image0
_cell_length_a       5.7847
_cell_length_b       17.012
_cell_length_c       11.2798
_cell_angle_alpha    90
_cell_angle_beta     104.402
_cell_angle_gamma    90

_symmetry_space_group_name_H-M    "P 1"
_symmetry_int_tables_number       1

loop_
  _symmetry_equiv_pos_as_xyz
  'x, y, z'

loop_
  _atom_site_label
  _atom_site_occupancy
  _atom_site_fract_x
  _atom_site_fract_y
  _atom_site_fract_z
  _atom_site_thermal_displace_type
  _atom_site_B_iso_or_equiv
  _atom_site_type_symbol
  Cu1      1.0000 0.00000  0.50000  0.00000  Biso   1.000  Cu
  Cu2      1.0000 0.50000  0.00000  0.50000  Biso   1.000  Cu
  Cl1      1.0000 0.13960  0.57512  0.86821  Biso   1.000  Cl
  Cl2      1.0000 0.36040  0.07512  0.63179  Biso   1.000  Cl
  Cl3      1.0000 0.86040  0.42488  0.13179  Biso   1.000  Cl
  Cl4      1.0000 0.63960  0.92488  0.36821  Biso   1.000  Cl
  N1       1.0000 0.27880  0.67920  0.23870  Biso   1.000  N
  N2       1.0000 0.22120  0.17920  0.26130  Biso   1.000  N
  N3       1.0000 0.72120  0.32080  0.76130  Biso   1.000  N
  N4       1.0000 0.77880  0.82080  0.73870  Biso   1.000  N
  N5       1.0000 0.06170  0.58920  0.11860  Biso   1.000  N
  N6       1.0000 0.43830  0.08920  0.38140  Biso   1.000  N
  N7       1.0000 0.93830  0.41080  0.88140  Biso   1.000  N
  N8       1.0000 0.56170  0.91080  0.61860  Biso   1.000  N
  C1       1.0000 0.26580  0.60400  0.19910  Biso   1.000  C
  C2       1.0000 0.23420  0.10400  0.30090  Biso   1.000  C
  C3       1.0000 0.73420  0.39600  0.80090  Biso   1.000  C
  C4       1.0000 0.76580  0.89600  0.69910  Biso   1.000  C
  C5       1.0000 0.06870  0.71600  0.17940  Biso   1.000  C
  C6       1.0000 0.43130  0.21600  0.32060  Biso   1.000  C
  C7       1.0000 0.93130  0.28400  0.82060  Biso   1.000  C
  C8       1.0000 0.56870  0.78400  0.67940  Biso   1.000  C
  C9       1.0000 0.93290  0.65810  0.10480  Biso   1.000  C
  C10      1.0000 0.56710  0.15810  0.39520  Biso   1.000  C
  C11      1.0000 0.06710  0.34190  0.89520  Biso   1.000  C
  C12      1.0000 0.43290  0.84190  0.60480  Biso   1.000  C
  C13      1.0000 0.70490  0.67590  0.03320  Biso   1.000  C
  C14      1.0000 0.79510  0.17590  0.46680  Biso   1.000  C
  C15      1.0000 0.29510  0.32410  0.96680  Biso   1.000  C
  C16      1.0000 0.20490  0.82410  0.53320  Biso   1.000  C
  H1       1.0000 0.61080  0.63840  0.98360  Biso   1.000  H
  H2       1.0000 0.88920  0.13840  0.51640  Biso   1.000  H
  H3       1.0000 0.38920  0.36160  0.01640  Biso   1.000  H
  H4       1.0000 0.11080  0.86160  0.48360  Biso   1.000  H
  C17      1.0000 0.62640  0.75230  0.04000  Biso   1.000  C
  C18      1.0000 0.87360  0.25230  0.46000  Biso   1.000  C
  C19      1.0000 0.37360  0.24770  0.96000  Biso   1.000  C
  C20      1.0000 0.12640  0.74770  0.54000  Biso   1.000  C
  H5       1.0000 0.47480  0.76590  0.99410  Biso   1.000  H
  H6       1.0000 0.02520  0.26590  0.50590  Biso   1.000  H
  H7       1.0000 0.52520  0.23410  0.00590  Biso   1.000  H
  H8       1.0000 0.97480  0.73410  0.49410  Biso   1.000  H
  C21      1.0000 0.76500  0.80930  0.11240  Biso   1.000  C
  C22      1.0000 0.73500  0.30930  0.38760  Biso   1.000  C
  C23      1.0000 0.23500  0.19070  0.88760  Biso   1.000  C
  C24      1.0000 0.26500  0.69070  0.61240  Biso   1.000  C
  H9       1.0000 0.70520  0.86010  0.11210  Biso   1.000  H
  H10      1.0000 0.79480  0.36010  0.38790  Biso   1.000  H
  H11      1.0000 0.29480  0.13990  0.88790  Biso   1.000  H
  H12      1.0000 0.20520  0.63990  0.61210  Biso   1.000  H
  C25      1.0000 0.98810  0.79270  0.18450  Biso   1.000  C
  C26      1.0000 0.51190  0.29270  0.31550  Biso   1.000  C
  C27      1.0000 0.01190  0.20730  0.81550  Biso   1.000  C
  C28      1.0000 0.48810  0.70730  0.68450  Biso   1.000  C
  H13      1.0000 0.08040  0.83070  0.23390  Biso   1.000  H
  H14      1.0000 0.41960  0.33070  0.26610  Biso   1.000  H
  H15      1.0000 0.91960  0.16930  0.76610  Biso   1.000  H
  H16      1.0000 0.58040  0.66930  0.73390  Biso   1.000  H
  C29      1.0000 0.48060  0.71510  0.32540  Biso   1.000  C
  C30      1.0000 0.01940  0.21510  0.17460  Biso   1.000  C
  C31      1.0000 0.51940  0.28490  0.67460  Biso   1.000  C
  C32      1.0000 0.98060  0.78490  0.82540  Biso   1.000  C
  H17      1.0000 0.44420  0.76900  0.33840  Biso   1.000  H
  H18      1.0000 0.05580  0.26900  0.16160  Biso   1.000  H
  H19      1.0000 0.55580  0.23100  0.66160  Biso   1.000  H
  H20      1.0000 0.94420  0.73100  0.83840  Biso   1.000  H
  H21      1.0000 0.61920  0.71280  0.29320  Biso   1.000  H
  H22      1.0000 0.88080  0.21280  0.20680  Biso   1.000  H
  H23      1.0000 0.38080  0.28720  0.70680  Biso   1.000  H
  H24      1.0000 0.11920  0.78720  0.79320  Biso   1.000  H
  H25      1.0000 0.51120  0.68720  0.40170  Biso   1.000  H
  H26      1.0000 0.98880  0.18720  0.09830  Biso   1.000  H
  H27      1.0000 0.48880  0.31280  0.59830  Biso   1.000  H
  H28      1.0000 0.01120  0.81280  0.90170  Biso   1.000  H
  C33      1.0000 0.47900  0.52170  0.37760  Biso   1.000  C
  C34      1.0000 0.02100  0.02170  0.12240  Biso   1.000  C
  C35      1.0000 0.52100  0.47830  0.62240  Biso   1.000  C
  C36      1.0000 0.97900  0.97830  0.87760  Biso   1.000  C
  C37      1.0000 0.68950  0.53380  0.46660  Biso   1.000  C
  C38      1.0000 0.81050  0.03380  0.03340  Biso   1.000  C
  C39      1.0000 0.31050  0.46620  0.53340  Biso   1.000  C
  C40      1.0000 0.18950  0.96620  0.96660  Biso   1.000  C
  H29      1.0000 0.81880  0.55710  0.44520  Biso   1.000  H
  H30      1.0000 0.68120  0.05710  0.05480  Biso   1.000  H
  H31      1.0000 0.18120  0.44290  0.55480  Biso   1.000  H
  H32      1.0000 0.31880  0.94290  0.94520  Biso   1.000  H
  C41      1.0000 0.29010  0.48840  0.41270  Biso   1.000  C
  C42      1.0000 0.20990  0.98840  0.08730  Biso   1.000  C
  C43      1.0000 0.70990  0.51160  0.58730  Biso   1.000  C
  C44      1.0000 0.79010  0.01160  0.91270  Biso   1.000  C
  H33      1.0000 0.14640  0.48070  0.35480  Biso   1.000  H
  H34      1.0000 0.35360  0.98070  0.14520  Biso   1.000  H
  H35      1.0000 0.85360  0.51930  0.64520  Biso   1.000  H
  H36      1.0000 0.64640  0.01930  0.85480  Biso   1.000  H
  C45      1.0000 0.45770  0.54570  0.24560  Biso   1.000  C
  C46      1.0000 0.04230  0.04570  0.25440  Biso   1.000  C
  C47      1.0000 0.54230  0.45430  0.75440  Biso   1.000  C
  C48      1.0000 0.95770  0.95430  0.74560  Biso   1.000  C
  H37      1.0000 0.60870  0.56770  0.23900  Biso   1.000  H
  H38      1.0000 0.89130  0.06770  0.26100  Biso   1.000  H
  H39      1.0000 0.39130  0.43230  0.76100  Biso   1.000  H
  H40      1.0000 0.10870  0.93230  0.73900  Biso   1.000  H
  H41      1.0000 0.42680  0.49920  0.19430  Biso   1.000  H
  H42      1.0000 0.07320  0.99920  0.30570  Biso   1.000  H
  H43      1.0000 0.57320  0.50080  0.80570  Biso   1.000  H
  H44      1.0000 0.92680  0.00080  0.69430  Biso   1.000  H
