data_image0
_cell_length_a       11.368
_cell_length_b       9.844
_cell_length_c       18.639
_cell_angle_alpha    90
_cell_angle_beta     90
_cell_angle_gamma    90

_symmetry_space_group_name_H-M    "P 1"
_symmetry_int_tables_number       1

loop_
  _symmetry_equiv_pos_as_xyz
  'x, y, z'

loop_
  _atom_site_label
  _atom_site_occupancy
  _atom_site_fract_x
  _atom_site_fract_y
  _atom_site_fract_z
  _atom_site_thermal_displace_type
  _atom_site_B_iso_or_equiv
  _atom_site_type_symbol
  Cu1      1.0000 0.87393  0.19581  0.39731  Biso   1.000  Cu
  Cu2      1.0000 0.37393  0.30419  0.60269  Biso   1.000  Cu
  Cu3      1.0000 0.12607  0.69581  0.10269  Biso   1.000  Cu
  Cu4      1.0000 0.62607  0.80419  0.89731  Biso   1.000  Cu
  Cu5      1.0000 0.12607  0.80419  0.60269  Biso   1.000  Cu
  Cu6      1.0000 0.62607  0.69581  0.39731  Biso   1.000  Cu
  Cu7      1.0000 0.87393  0.30419  0.89731  Biso   1.000  Cu
  Cu8      1.0000 0.37393  0.19581  0.10269  Biso   1.000  Cu
  O1       1.0000 0.75573  0.30393  0.45481  Biso   1.000  O
  O2       1.0000 0.25573  0.19607  0.54519  Biso   1.000  O
  O3       1.0000 0.24427  0.80393  0.04519  Biso   1.000  O
  O4       1.0000 0.74427  0.69607  0.95481  Biso   1.000  O
  O5       1.0000 0.24427  0.69607  0.54519  Biso   1.000  O
  O6       1.0000 0.74427  0.80393  0.45481  Biso   1.000  O
  O7       1.0000 0.75573  0.19607  0.95481  Biso   1.000  O
  O8       1.0000 0.25573  0.30393  0.04519  Biso   1.000  O
  O9       1.0000 0.85635  0.40739  0.33656  Biso   1.000  O
  O10      1.0000 0.35635  0.09261  0.66344  Biso   1.000  O
  O11      1.0000 0.14365  0.90739  0.16344  Biso   1.000  O
  O12      1.0000 0.64365  0.59261  0.83656  Biso   1.000  O
  O13      1.0000 0.14365  0.59261  0.66344  Biso   1.000  O
  O14      1.0000 0.64365  0.90739  0.33656  Biso   1.000  O
  O15      1.0000 0.85635  0.09261  0.83656  Biso   1.000  O
  O16      1.0000 0.35635  0.40739  0.16344  Biso   1.000  O
  O17      1.0000 0.75847  0.60059  0.35027  Biso   1.000  O
  O18      1.0000 0.25847  0.89941  0.64973  Biso   1.000  O
  O19      1.0000 0.24153  0.10059  0.14973  Biso   1.000  O
  O20      1.0000 0.74153  0.39941  0.85027  Biso   1.000  O
  O21      1.0000 0.24153  0.39941  0.64973  Biso   1.000  O
  O22      1.0000 0.74153  0.10059  0.35027  Biso   1.000  O
  O23      1.0000 0.75847  0.89941  0.85027  Biso   1.000  O
  O24      1.0000 0.25847  0.60059  0.14973  Biso   1.000  O
  O25      1.0000 0.64935  0.49254  0.46657  Biso   1.000  O
  O26      1.0000 0.14935  0.00746  0.53343  Biso   1.000  O
  O27      1.0000 0.35065  0.99254  0.03343  Biso   1.000  O
  O28      1.0000 0.85065  0.50746  0.96657  Biso   1.000  O
  O29      1.0000 0.35065  0.50746  0.53343  Biso   1.000  O
  O30      1.0000 0.85065  0.99254  0.46657  Biso   1.000  O
  O31      1.0000 0.64935  0.00746  0.96657  Biso   1.000  O
  O32      1.0000 0.14935  0.49254  0.03343  Biso   1.000  O
  N1       1.0000 0.00863  0.24150  0.46346  Biso   1.000  N
  N2       1.0000 0.50863  0.25850  0.53654  Biso   1.000  N
  N3       1.0000 0.99137  0.74150  0.03654  Biso   1.000  N
  N4       1.0000 0.49137  0.75850  0.96346  Biso   1.000  N
  N5       1.0000 0.99137  0.75850  0.53654  Biso   1.000  N
  N6       1.0000 0.49137  0.74150  0.46346  Biso   1.000  N
  N7       1.0000 0.00863  0.25850  0.96346  Biso   1.000  N
  N8       1.0000 0.50863  0.24150  0.03654  Biso   1.000  N
  N9       1.0000 0.99044  0.13390  0.31671  Biso   1.000  N
  N10      1.0000 0.49044  0.36610  0.68329  Biso   1.000  N
  N11      1.0000 0.00956  0.63390  0.18329  Biso   1.000  N
  N12      1.0000 0.50956  0.86610  0.81671  Biso   1.000  N
  N13      1.0000 0.00956  0.86610  0.68329  Biso   1.000  N
  N14      1.0000 0.50956  0.63390  0.31671  Biso   1.000  N
  N15      1.0000 0.99044  0.36610  0.81671  Biso   1.000  N
  N16      1.0000 0.49044  0.13390  0.18329  Biso   1.000  N
  C1       1.0000 0.78530  0.48070  0.36795  Biso   1.000  C
  C2       1.0000 0.28530  0.01930  0.63205  Biso   1.000  C
  C3       1.0000 0.21470  0.98070  0.13205  Biso   1.000  C
  C4       1.0000 0.71470  0.51930  0.86795  Biso   1.000  C
  C5       1.0000 0.21470  0.51930  0.63205  Biso   1.000  C
  C6       1.0000 0.71470  0.98070  0.36795  Biso   1.000  C
  C7       1.0000 0.78530  0.01930  0.86795  Biso   1.000  C
  C8       1.0000 0.28530  0.48070  0.13205  Biso   1.000  C
  C9       1.0000 0.72436  0.42140  0.43614  Biso   1.000  C
  C10      1.0000 0.22436  0.07860  0.56386  Biso   1.000  C
  C11      1.0000 0.27564  0.92140  0.06386  Biso   1.000  C
  C12      1.0000 0.77564  0.57860  0.93614  Biso   1.000  C
  C13      1.0000 0.27564  0.57860  0.56386  Biso   1.000  C
  C14      1.0000 0.77564  0.92140  0.43614  Biso   1.000  C
  C15      1.0000 0.72436  0.07860  0.93614  Biso   1.000  C
  C16      1.0000 0.22436  0.42140  0.06386  Biso   1.000  C
  C17      1.0000 0.09660  0.33380  0.43089  Biso   1.000  C
  C18      1.0000 0.59660  0.16620  0.56911  Biso   1.000  C
  C19      1.0000 0.90340  0.83380  0.06911  Biso   1.000  C
  C20      1.0000 0.40340  0.66620  0.93089  Biso   1.000  C
  C21      1.0000 0.90340  0.66620  0.56911  Biso   1.000  C
  C22      1.0000 0.40340  0.83380  0.43089  Biso   1.000  C
  C23      1.0000 0.09660  0.16620  0.93089  Biso   1.000  C
  C24      1.0000 0.59660  0.33380  0.06911  Biso   1.000  C
  H1       1.0000 0.15240  0.36220  0.46730  Biso   1.000  H
  H2       1.0000 0.65240  0.13780  0.53270  Biso   1.000  H
  H3       1.0000 0.84760  0.86220  0.03270  Biso   1.000  H
  H4       1.0000 0.34760  0.63780  0.96730  Biso   1.000  H
  H5       1.0000 0.84760  0.63780  0.53270  Biso   1.000  H
  H6       1.0000 0.34760  0.86220  0.46730  Biso   1.000  H
  H7       1.0000 0.15240  0.13780  0.96730  Biso   1.000  H
  H8       1.0000 0.65240  0.36220  0.03270  Biso   1.000  H
  H9       1.0000 0.05720  0.41430  0.41280  Biso   1.000  H
  H10      1.0000 0.55720  0.08570  0.58720  Biso   1.000  H
  H11      1.0000 0.94280  0.91430  0.08720  Biso   1.000  H
  H12      1.0000 0.44280  0.58570  0.91280  Biso   1.000  H
  H13      1.0000 0.94280  0.58570  0.58720  Biso   1.000  H
  H14      1.0000 0.44280  0.91430  0.41280  Biso   1.000  H
  H15      1.0000 0.05720  0.08570  0.91280  Biso   1.000  H
  H16      1.0000 0.55720  0.41430  0.08720  Biso   1.000  H
  C25      1.0000 0.08740  0.23460  0.30522  Biso   1.000  C
  C26      1.0000 0.58740  0.26540  0.69478  Biso   1.000  C
  C27      1.0000 0.91260  0.73460  0.19478  Biso   1.000  C
  C28      1.0000 0.41260  0.76540  0.80522  Biso   1.000  C
  C29      1.0000 0.91260  0.76540  0.69478  Biso   1.000  C
  C30      1.0000 0.41260  0.73460  0.30522  Biso   1.000  C
  C31      1.0000 0.08740  0.26540  0.80522  Biso   1.000  C
  C32      1.0000 0.58740  0.23460  0.19478  Biso   1.000  C
  H17      1.0000 0.05300  0.31880  0.28820  Biso   1.000  H
  H18      1.0000 0.55300  0.18120  0.71180  Biso   1.000  H
  H19      1.0000 0.94700  0.81880  0.21180  Biso   1.000  H
  H20      1.0000 0.44700  0.68120  0.78820  Biso   1.000  H
  H21      1.0000 0.94700  0.68120  0.71180  Biso   1.000  H
  H22      1.0000 0.44700  0.81880  0.28820  Biso   1.000  H
  H23      1.0000 0.05300  0.18120  0.78820  Biso   1.000  H
  H24      1.0000 0.55300  0.31880  0.21180  Biso   1.000  H
  H25      1.0000 0.13860  0.20060  0.26770  Biso   1.000  H
  H26      1.0000 0.63860  0.29940  0.73230  Biso   1.000  H
  H27      1.0000 0.86140  0.70060  0.23230  Biso   1.000  H
  H28      1.0000 0.36140  0.79940  0.76770  Biso   1.000  H
  H29      1.0000 0.86140  0.79940  0.73230  Biso   1.000  H
  H30      1.0000 0.36140  0.70060  0.26770  Biso   1.000  H
  H31      1.0000 0.13860  0.29940  0.76770  Biso   1.000  H
  H32      1.0000 0.63860  0.20060  0.23230  Biso   1.000  H
  C33      1.0000 0.16130  0.26530  0.37048  Biso   1.000  C
  C34      1.0000 0.66130  0.23470  0.62952  Biso   1.000  C
  C35      1.0000 0.83870  0.76530  0.12952  Biso   1.000  C
  C36      1.0000 0.33870  0.73470  0.87048  Biso   1.000  C
  C37      1.0000 0.83870  0.73470  0.62952  Biso   1.000  C
  C38      1.0000 0.33870  0.76530  0.37048  Biso   1.000  C
  C39      1.0000 0.16130  0.23470  0.87048  Biso   1.000  C
  C40      1.0000 0.66130  0.26530  0.12952  Biso   1.000  C
  H33      1.0000 0.19430  0.18090  0.38820  Biso   1.000  H
  H34      1.0000 0.69430  0.31910  0.61180  Biso   1.000  H
  H35      1.0000 0.80570  0.68090  0.11180  Biso   1.000  H
  H36      1.0000 0.30570  0.81910  0.88820  Biso   1.000  H
  H37      1.0000 0.80570  0.81910  0.61180  Biso   1.000  H
  H38      1.0000 0.30570  0.68090  0.38820  Biso   1.000  H
  H39      1.0000 0.19430  0.31910  0.88820  Biso   1.000  H
  H40      1.0000 0.69430  0.18090  0.11180  Biso   1.000  H
  H41      1.0000 0.22630  0.32300  0.35600  Biso   1.000  H
  H42      1.0000 0.72630  0.17700  0.64400  Biso   1.000  H
  H43      1.0000 0.77370  0.82300  0.14400  Biso   1.000  H
  H44      1.0000 0.27370  0.67700  0.85600  Biso   1.000  H
  H45      1.0000 0.77370  0.67700  0.64400  Biso   1.000  H
  H46      1.0000 0.27370  0.82300  0.35600  Biso   1.000  H
  H47      1.0000 0.22630  0.17700  0.85600  Biso   1.000  H
  H48      1.0000 0.72630  0.32300  0.14400  Biso   1.000  H
  C41      1.0000 0.04080  0.99870  0.33357  Biso   1.000  C
  C42      1.0000 0.54080  0.50130  0.66643  Biso   1.000  C
  C43      1.0000 0.95920  0.49870  0.16643  Biso   1.000  C
  C44      1.0000 0.45920  0.00130  0.83357  Biso   1.000  C
  C45      1.0000 0.95920  0.00130  0.66643  Biso   1.000  C
  C46      1.0000 0.45920  0.49870  0.33357  Biso   1.000  C
  C47      1.0000 0.04080  0.50130  0.83357  Biso   1.000  C
  C48      1.0000 0.54080  0.99870  0.16643  Biso   1.000  C
  H49      1.0000 0.97840  0.93360  0.33820  Biso   1.000  H
  H50      1.0000 0.47840  0.56640  0.66180  Biso   1.000  H
  H51      1.0000 0.02160  0.43360  0.16180  Biso   1.000  H
  H52      1.0000 0.52160  0.06640  0.83820  Biso   1.000  H
  H53      1.0000 0.02160  0.06640  0.66180  Biso   1.000  H
  H54      1.0000 0.52160  0.43360  0.33820  Biso   1.000  H
  H55      1.0000 0.97840  0.56640  0.83820  Biso   1.000  H
  H56      1.0000 0.47840  0.93360  0.16180  Biso   1.000  H
  H57      1.0000 0.08390  0.00370  0.37780  Biso   1.000  H
  H58      1.0000 0.58390  0.49630  0.62220  Biso   1.000  H
  H59      1.0000 0.91610  0.50370  0.12220  Biso   1.000  H
  H60      1.0000 0.41610  0.99630  0.87780  Biso   1.000  H
  H61      1.0000 0.91610  0.99630  0.62220  Biso   1.000  H
  H62      1.0000 0.41610  0.50370  0.37780  Biso   1.000  H
  H63      1.0000 0.08390  0.49630  0.87780  Biso   1.000  H
  H64      1.0000 0.58390  0.00370  0.12220  Biso   1.000  H
  H65      1.0000 0.09280  0.97140  0.29560  Biso   1.000  H
  H66      1.0000 0.59280  0.52860  0.70440  Biso   1.000  H
  H67      1.0000 0.90720  0.47140  0.20440  Biso   1.000  H
  H68      1.0000 0.40720  0.02860  0.79560  Biso   1.000  H
  H69      1.0000 0.90720  0.02860  0.70440  Biso   1.000  H
  H70      1.0000 0.40720  0.47140  0.29560  Biso   1.000  H
  H71      1.0000 0.09280  0.52860  0.79560  Biso   1.000  H
  H72      1.0000 0.59280  0.97140  0.20440  Biso   1.000  H
  C49      1.0000 0.97100  0.29170  0.53487  Biso   1.000  C
  C50      1.0000 0.47100  0.20830  0.46513  Biso   1.000  C
  C51      1.0000 0.02900  0.79170  0.96513  Biso   1.000  C
  C52      1.0000 0.52900  0.70830  0.03487  Biso   1.000  C
  C53      1.0000 0.02900  0.70830  0.46513  Biso   1.000  C
  C54      1.0000 0.52900  0.79170  0.53487  Biso   1.000  C
  C55      1.0000 0.97100  0.20830  0.03487  Biso   1.000  C
  C56      1.0000 0.47100  0.29170  0.96513  Biso   1.000  C
  H73      1.0000 0.03850  0.30060  0.56550  Biso   1.000  H
  H74      1.0000 0.53850  0.19940  0.43450  Biso   1.000  H
  H75      1.0000 0.96150  0.80060  0.93450  Biso   1.000  H
  H76      1.0000 0.46150  0.69940  0.06550  Biso   1.000  H
  H77      1.0000 0.96150  0.69940  0.43450  Biso   1.000  H
  H78      1.0000 0.46150  0.80060  0.56550  Biso   1.000  H
  H79      1.0000 0.03850  0.19940  0.06550  Biso   1.000  H
  H80      1.0000 0.53850  0.30060  0.93450  Biso   1.000  H
  H81      1.0000 0.91660  0.22840  0.55570  Biso   1.000  H
  H82      1.0000 0.41660  0.27160  0.44430  Biso   1.000  H
  H83      1.0000 0.08340  0.72840  0.94430  Biso   1.000  H
  H84      1.0000 0.58340  0.77160  0.05570  Biso   1.000  H
  H85      1.0000 0.08340  0.77160  0.44430  Biso   1.000  H
  H86      1.0000 0.58340  0.72840  0.55570  Biso   1.000  H
  H87      1.0000 0.91660  0.27160  0.05570  Biso   1.000  H
  H88      1.0000 0.41660  0.22840  0.94430  Biso   1.000  H
  H89      1.0000 0.93360  0.37850  0.52960  Biso   1.000  H
  H90      1.0000 0.43360  0.12150  0.47040  Biso   1.000  H
  H91      1.0000 0.06640  0.87850  0.97040  Biso   1.000  H
  H92      1.0000 0.56640  0.62150  0.02960  Biso   1.000  H
  H93      1.0000 0.06640  0.62150  0.47040  Biso   1.000  H
  H94      1.0000 0.56640  0.87850  0.52960  Biso   1.000  H
  H95      1.0000 0.93360  0.12150  0.02960  Biso   1.000  H
  H96      1.0000 0.43360  0.37850  0.97040  Biso   1.000  H
  C57      1.0000 0.92780  0.12420  0.24652  Biso   1.000  C
  C58      1.0000 0.42780  0.37580  0.75348  Biso   1.000  C
  C59      1.0000 0.07220  0.62420  0.25348  Biso   1.000  C
  C60      1.0000 0.57220  0.87580  0.74652  Biso   1.000  C
  C61      1.0000 0.07220  0.87580  0.75348  Biso   1.000  C
  C62      1.0000 0.57220  0.62420  0.24652  Biso   1.000  C
  C63      1.0000 0.92780  0.37580  0.74652  Biso   1.000  C
  C64      1.0000 0.42780  0.12420  0.25348  Biso   1.000  C
  H97      1.0000 0.98320  0.10280  0.20940  Biso   1.000  H
  H98      1.0000 0.48320  0.39720  0.79060  Biso   1.000  H
  H99      1.0000 0.01680  0.60280  0.29060  Biso   1.000  H
  H100     1.0000 0.51680  0.89720  0.70940  Biso   1.000  H
  H101     1.0000 0.01680  0.89720  0.79060  Biso   1.000  H
  H102     1.0000 0.51680  0.60280  0.20940  Biso   1.000  H
  H103     1.0000 0.98320  0.39720  0.70940  Biso   1.000  H
  H104     1.0000 0.48320  0.10280  0.29060  Biso   1.000  H
  H105     1.0000 0.89060  0.20950  0.23600  Biso   1.000  H
  H106     1.0000 0.39060  0.29050  0.76400  Biso   1.000  H
  H107     1.0000 0.10940  0.70950  0.26400  Biso   1.000  H
  H108     1.0000 0.60940  0.79050  0.73600  Biso   1.000  H
  H109     1.0000 0.10940  0.79050  0.76400  Biso   1.000  H
  H110     1.0000 0.60940  0.70950  0.23600  Biso   1.000  H
  H111     1.0000 0.89060  0.29050  0.73600  Biso   1.000  H
  H112     1.0000 0.39060  0.20950  0.26400  Biso   1.000  H
  H113     1.0000 0.86920  0.05410  0.24910  Biso   1.000  H
  H114     1.0000 0.36920  0.44590  0.75090  Biso   1.000  H
  H115     1.0000 0.13080  0.55410  0.25090  Biso   1.000  H
  H116     1.0000 0.63080  0.94590  0.74910  Biso   1.000  H
  H117     1.0000 0.13080  0.94590  0.75090  Biso   1.000  H
  H118     1.0000 0.63080  0.55410  0.24910  Biso   1.000  H
  H119     1.0000 0.86920  0.44590  0.74910  Biso   1.000  H
  H120     1.0000 0.36920  0.05410  0.25090  Biso   1.000  H
  H121     1.0000 0.04500  0.16700  0.46710  Biso   1.000  H
  H122     1.0000 0.54500  0.33300  0.53290  Biso   1.000  H
  H123     1.0000 0.95500  0.66700  0.03290  Biso   1.000  H
  H124     1.0000 0.45500  0.83300  0.96710  Biso   1.000  H
  H125     1.0000 0.95500  0.83300  0.53290  Biso   1.000  H
  H126     1.0000 0.45500  0.66700  0.46710  Biso   1.000  H
  H127     1.0000 0.04500  0.33300  0.96710  Biso   1.000  H
  H128     1.0000 0.54500  0.16700  0.03290  Biso   1.000  H
