data_image0
_cell_length_a       12.197
_cell_length_b       7.061
_cell_length_c       13.3
_cell_angle_alpha    90
_cell_angle_beta     98.83
_cell_angle_gamma    90

_symmetry_space_group_name_H-M    "P 1"
_symmetry_int_tables_number       1

loop_
  _symmetry_equiv_pos_as_xyz
  'x, y, z'

loop_
  _atom_site_label
  _atom_site_occupancy
  _atom_site_fract_x
  _atom_site_fract_y
  _atom_site_fract_z
  _atom_site_thermal_displace_type
  _atom_site_B_iso_or_equiv
  _atom_site_type_symbol
  Cu1      1.0000 0.90000  0.13280  0.50600  Biso   1.000  Cu
  Cu2      1.0000 0.60000  0.63280  0.99400  Biso   1.000  Cu
  Cu3      1.0000 0.10000  0.86720  0.49400  Biso   1.000  Cu
  Cu4      1.0000 0.40000  0.36720  0.00600  Biso   1.000  Cu
  O1       1.0000 0.95160  0.98720  0.40250  Biso   1.000  O
  O2       1.0000 0.54840  0.48720  0.09750  Biso   1.000  O
  O3       1.0000 0.04840  0.01280  0.59750  Biso   1.000  O
  O4       1.0000 0.45160  0.51280  0.90250  Biso   1.000  O
  N1       1.0000 0.92350  0.37890  0.43330  Biso   1.000  N
  N2       1.0000 0.57650  0.87890  0.06670  Biso   1.000  N
  N3       1.0000 0.07650  0.62110  0.56670  Biso   1.000  N
  N4       1.0000 0.42350  0.12110  0.93330  Biso   1.000  N
  C1       1.0000 0.03910  0.41340  0.41600  Biso   1.000  C
  C2       1.0000 0.46090  0.91340  0.08400  Biso   1.000  C
  C3       1.0000 0.96090  0.58660  0.58400  Biso   1.000  C
  C4       1.0000 0.53910  0.08660  0.91600  Biso   1.000  C
  C5       1.0000 0.88610  0.54650  0.48560  Biso   1.000  C
  C6       1.0000 0.61390  0.04650  0.01440  Biso   1.000  C
  C7       1.0000 0.11390  0.45350  0.51440  Biso   1.000  C
  C8       1.0000 0.38610  0.95350  0.98560  Biso   1.000  C
  C9       1.0000 0.84800  0.35240  0.33480  Biso   1.000  C
  C10      1.0000 0.65200  0.85240  0.16520  Biso   1.000  C
  C11      1.0000 0.15200  0.64760  0.66520  Biso   1.000  C
  C12      1.0000 0.34800  0.14760  0.83480  Biso   1.000  C
  C13      1.0000 0.88660  0.20420  0.26690  Biso   1.000  C
  C14      1.0000 0.61340  0.70420  0.23310  Biso   1.000  C
  C15      1.0000 0.11340  0.79580  0.73310  Biso   1.000  C
  C16      1.0000 0.38660  0.29580  0.76690  Biso   1.000  C
  C17      1.0000 0.93420  0.03080  0.30270  Biso   1.000  C
  C18      1.0000 0.56580  0.53080  0.19730  Biso   1.000  C
  C19      1.0000 0.06580  0.96920  0.69730  Biso   1.000  C
  C20      1.0000 0.43420  0.46920  0.80270  Biso   1.000  C
  C21      1.0000 0.96510  0.90230  0.23340  Biso   1.000  C
  C22      1.0000 0.53490  0.40230  0.26660  Biso   1.000  C
  C23      1.0000 0.03490  0.09770  0.76660  Biso   1.000  C
  C24      1.0000 0.46510  0.59770  0.73340  Biso   1.000  C
  C25      1.0000 0.94790  0.93980  0.12970  Biso   1.000  C
  C26      1.0000 0.55210  0.43980  0.37030  Biso   1.000  C
  C27      1.0000 0.05210  0.06020  0.87030  Biso   1.000  C
  C28      1.0000 0.44790  0.56020  0.62970  Biso   1.000  C
  C29      1.0000 0.90120  0.10840  0.09460  Biso   1.000  C
  C30      1.0000 0.59880  0.60840  0.40540  Biso   1.000  C
  C31      1.0000 0.09880  0.89160  0.90540  Biso   1.000  C
  C32      1.0000 0.40120  0.39160  0.59460  Biso   1.000  C
  C33      1.0000 0.87130  0.23870  0.16220  Biso   1.000  C
  C34      1.0000 0.62870  0.73870  0.33780  Biso   1.000  C
  C35      1.0000 0.12870  0.76130  0.83780  Biso   1.000  C
  C36      1.0000 0.37130  0.26130  0.66220  Biso   1.000  C
  O5       1.0000 0.81160  0.23210  0.60520  Biso   1.000  O
  O6       1.0000 0.68840  0.73210  0.89480  Biso   1.000  O
  O7       1.0000 0.18840  0.76790  0.39480  Biso   1.000  O
  O8       1.0000 0.31160  0.26790  0.10520  Biso   1.000  O
  O9       1.0000 0.78360  0.94210  0.55780  Biso   1.000  O
  O10      1.0000 0.71640  0.44210  0.94220  Biso   1.000  O
  O11      1.0000 0.21640  0.05790  0.44220  Biso   1.000  O
  O12      1.0000 0.28360  0.55790  0.05780  Biso   1.000  O
  C37      1.0000 0.76090  0.07720  0.61100  Biso   1.000  C
  C38      1.0000 0.73910  0.57720  0.88900  Biso   1.000  C
  C39      1.0000 0.23910  0.92280  0.38900  Biso   1.000  C
  C40      1.0000 0.26090  0.42280  0.11100  Biso   1.000  C
  C41      1.0000 0.67710  0.06160  0.68250  Biso   1.000  C
  C42      1.0000 0.82290  0.56160  0.81750  Biso   1.000  C
  C43      1.0000 0.32290  0.93840  0.31750  Biso   1.000  C
  C44      1.0000 0.17710  0.43840  0.18250  Biso   1.000  C
