data_image0
_cell_length_a       9.6073
_cell_length_b       13.1029
_cell_length_c       15.144
_cell_angle_alpha    90
_cell_angle_beta     100.668
_cell_angle_gamma    90

_symmetry_space_group_name_H-M    "P 1"
_symmetry_int_tables_number       1

loop_
  _symmetry_equiv_pos_as_xyz
  'x, y, z'

loop_
  _atom_site_label
  _atom_site_occupancy
  _atom_site_fract_x
  _atom_site_fract_y
  _atom_site_fract_z
  _atom_site_thermal_displace_type
  _atom_site_B_iso_or_equiv
  _atom_site_type_symbol
  Cu1      1.0000 0.42936  0.15696  0.84566  Biso   1.000  Cu
  Cu2      1.0000 0.07064  0.65696  0.65434  Biso   1.000  Cu
  Cu3      1.0000 0.57064  0.84304  0.15434  Biso   1.000  Cu
  Cu4      1.0000 0.92936  0.34304  0.34566  Biso   1.000  Cu
  O1       1.0000 0.28040  0.09750  0.90790  Biso   1.000  O
  O2       1.0000 0.21960  0.59750  0.59210  Biso   1.000  O
  O3       1.0000 0.71960  0.90250  0.09210  Biso   1.000  O
  O4       1.0000 0.78040  0.40250  0.40790  Biso   1.000  O
  O5       1.0000 0.27530  0.25260  0.85670  Biso   1.000  O
  O6       1.0000 0.22470  0.75260  0.64330  Biso   1.000  O
  O7       1.0000 0.72470  0.74740  0.14330  Biso   1.000  O
  O8       1.0000 0.77530  0.24740  0.35670  Biso   1.000  O
  O9       1.0000 0.09630  0.19890  0.92260  Biso   1.000  O
  O10      1.0000 0.40370  0.69890  0.57740  Biso   1.000  O
  O11      1.0000 0.90370  0.80110  0.07740  Biso   1.000  O
  O12      1.0000 0.59630  0.30110  0.42260  Biso   1.000  O
  O13      1.0000 0.51260  0.14240  0.52090  Biso   1.000  O
  O14      1.0000 0.98740  0.64240  0.97910  Biso   1.000  O
  O15      1.0000 0.48740  0.85760  0.47910  Biso   1.000  O
  O16      1.0000 0.01260  0.35760  0.02090  Biso   1.000  O
  O17      1.0000 0.71530  0.98760  0.53700  Biso   1.000  O
  O18      1.0000 0.78470  0.48760  0.96300  Biso   1.000  O
  O19      1.0000 0.28470  0.01240  0.46300  Biso   1.000  O
  O20      1.0000 0.21530  0.51240  0.03700  Biso   1.000  O
  O21      1.0000 0.93950  0.99740  0.67760  Biso   1.000  O
  O22      1.0000 0.56050  0.49740  0.82240  Biso   1.000  O
  O23      1.0000 0.06050  0.00260  0.32240  Biso   1.000  O
  O24      1.0000 0.43950  0.50260  0.17760  Biso   1.000  O
  O25      1.0000 0.81980  0.03530  0.38740  Biso   1.000  O
  O26      1.0000 0.68020  0.53530  0.11260  Biso   1.000  O
  O27      1.0000 0.18020  0.96470  0.61260  Biso   1.000  O
  O28      1.0000 0.31980  0.46470  0.88740  Biso   1.000  O
  O29      1.0000 0.86650  0.09220  0.83100  Biso   1.000  O
  O30      1.0000 0.63350  0.59220  0.66900  Biso   1.000  O
  O31      1.0000 0.13350  0.90780  0.16900  Biso   1.000  O
  O32      1.0000 0.36650  0.40780  0.33100  Biso   1.000  O
  N1       1.0000 0.50570  0.23820  0.75220  Biso   1.000  N
  N2       1.0000 0.99430  0.73820  0.74780  Biso   1.000  N
  N3       1.0000 0.49430  0.76180  0.24780  Biso   1.000  N
  N4       1.0000 0.00570  0.26180  0.25220  Biso   1.000  N
  N5       1.0000 0.64450  0.21950  0.74310  Biso   1.000  N
  N6       1.0000 0.85550  0.71950  0.75690  Biso   1.000  N
  N7       1.0000 0.35550  0.78050  0.25690  Biso   1.000  N
  N8       1.0000 0.14450  0.28050  0.24310  Biso   1.000  N
  N9       1.0000 0.55480  0.33680  0.64610  Biso   1.000  N
  N10      1.0000 0.94520  0.83680  0.85390  Biso   1.000  N
  N11      1.0000 0.44520  0.66320  0.35390  Biso   1.000  N
  N12      1.0000 0.05480  0.16320  0.14610  Biso   1.000  N
  N13      1.0000 0.53310  0.40970  0.57640  Biso   1.000  N
  N14      1.0000 0.96690  0.90970  0.92360  Biso   1.000  N
  N15      1.0000 0.46690  0.59030  0.42360  Biso   1.000  N
  N16      1.0000 0.03310  0.09030  0.07640  Biso   1.000  N
  N17      1.0000 0.21620  0.31070  0.60020  Biso   1.000  N
  N18      1.0000 0.28380  0.81070  0.89980  Biso   1.000  N
  N19      1.0000 0.78380  0.68930  0.39980  Biso   1.000  N
  N20      1.0000 0.71620  0.18930  0.10020  Biso   1.000  N
  N21      1.0000 0.08250  0.29850  0.46590  Biso   1.000  N
  N22      1.0000 0.41750  0.79850  0.03410  Biso   1.000  N
  N23      1.0000 0.91750  0.70150  0.53410  Biso   1.000  N
  N24      1.0000 0.58250  0.20150  0.96590  Biso   1.000  N
  N25      1.0000 0.88780  0.37540  0.68290  Biso   1.000  N
  N26      1.0000 0.61220  0.87540  0.81710  Biso   1.000  N
  N27      1.0000 0.11220  0.62460  0.31710  Biso   1.000  N
  N28      1.0000 0.38780  0.12460  0.18290  Biso   1.000  N
  N29      1.0000 0.98990  0.52550  0.68740  Biso   1.000  N
  N30      1.0000 0.51010  0.02550  0.81260  Biso   1.000  N
  N31      1.0000 0.01010  0.47450  0.31260  Biso   1.000  N
  N32      1.0000 0.48990  0.97450  0.18740  Biso   1.000  N
  N33      1.0000 0.21250  0.18260  0.89640  Biso   1.000  N
  N34      1.0000 0.28750  0.68260  0.60360  Biso   1.000  N
  N35      1.0000 0.78750  0.81740  0.10360  Biso   1.000  N
  N36      1.0000 0.71250  0.31740  0.39640  Biso   1.000  N
  C1       1.0000 0.45330  0.30910  0.69250  Biso   1.000  C
  C2       1.0000 0.04670  0.80910  0.80750  Biso   1.000  C
  C3       1.0000 0.54670  0.69090  0.30750  Biso   1.000  C
  C4       1.0000 0.95330  0.19090  0.19250  Biso   1.000  C
  C5       1.0000 0.67080  0.27910  0.67890  Biso   1.000  C
  C6       1.0000 0.82920  0.77910  0.82110  Biso   1.000  C
  C7       1.0000 0.32920  0.72090  0.32110  Biso   1.000  C
  C8       1.0000 0.17080  0.22090  0.17890  Biso   1.000  C
  C9       1.0000 0.30960  0.35540  0.67720  Biso   1.000  C
  C10      1.0000 0.19040  0.85540  0.82280  Biso   1.000  C
  C11      1.0000 0.69040  0.64460  0.32280  Biso   1.000  C
  C12      1.0000 0.80960  0.14460  0.17720  Biso   1.000  C
  H1       1.0000 0.26800  0.34590  0.73100  Biso   1.000  H
  H2       1.0000 0.23200  0.84590  0.76900  Biso   1.000  H
  H3       1.0000 0.73200  0.65410  0.26900  Biso   1.000  H
  H4       1.0000 0.76800  0.15410  0.23100  Biso   1.000  H
  H5       1.0000 0.31760  0.42900  0.66740  Biso   1.000  H
  H6       1.0000 0.18240  0.92900  0.83260  Biso   1.000  H
  H7       1.0000 0.68240  0.57100  0.33260  Biso   1.000  H
  H8       1.0000 0.81760  0.07100  0.16740  Biso   1.000  H
  C13      1.0000 0.80890  0.28420  0.64790  Biso   1.000  C
  C14      1.0000 0.69110  0.78420  0.85210  Biso   1.000  C
  C15      1.0000 0.19110  0.71580  0.35210  Biso   1.000  C
  C16      1.0000 0.30890  0.21580  0.14790  Biso   1.000  C
  H9       1.0000 0.86500  0.22330  0.66830  Biso   1.000  H
  H10      1.0000 0.63500  0.72330  0.83170  Biso   1.000  H
  H11      1.0000 0.13500  0.77670  0.33170  Biso   1.000  H
  H12      1.0000 0.36500  0.27670  0.16830  Biso   1.000  H
  H13      1.0000 0.79220  0.28530  0.58210  Biso   1.000  H
  H14      1.0000 0.70780  0.78530  0.91790  Biso   1.000  H
  H15      1.0000 0.20780  0.71470  0.41790  Biso   1.000  H
  H16      1.0000 0.29220  0.21470  0.08210  Biso   1.000  H
  C17      1.0000 0.17480  0.35470  0.51960  Biso   1.000  C
  C18      1.0000 0.32520  0.85470  0.98040  Biso   1.000  C
  C19      1.0000 0.82520  0.64530  0.48040  Biso   1.000  C
  C20      1.0000 0.67480  0.14530  0.01960  Biso   1.000  C
  H17      1.0000 0.20800  0.41820  0.50350  Biso   1.000  H
  H18      1.0000 0.29200  0.91820  0.99650  Biso   1.000  H
  H19      1.0000 0.79200  0.58180  0.49650  Biso   1.000  H
  H20      1.0000 0.70800  0.08180  0.00350  Biso   1.000  H
  C21      1.0000 0.06520  0.21300  0.51510  Biso   1.000  C
  C22      1.0000 0.43480  0.71300  0.98490  Biso   1.000  C
  C23      1.0000 0.93480  0.78700  0.48490  Biso   1.000  C
  C24      1.0000 0.56520  0.28700  0.01510  Biso   1.000  C
  H21      1.0000 0.00560  0.15790  0.49410  Biso   1.000  H
  H22      1.0000 0.49440  0.65790  0.00590  Biso   1.000  H
  H23      1.0000 0.99440  0.84210  0.50590  Biso   1.000  H
  H24      1.0000 0.50560  0.34210  0.99410  Biso   1.000  H
  C25      1.0000 0.14610  0.21950  0.59840  Biso   1.000  C
  C26      1.0000 0.35390  0.71950  0.90160  Biso   1.000  C
  C27      1.0000 0.85390  0.78050  0.40160  Biso   1.000  C
  C28      1.0000 0.64610  0.28050  0.09840  Biso   1.000  C
  H25      1.0000 0.15280  0.17140  0.64500  Biso   1.000  H
  H26      1.0000 0.34720  0.67140  0.85500  Biso   1.000  H
  H27      1.0000 0.84720  0.82860  0.35500  Biso   1.000  H
  H28      1.0000 0.65280  0.32860  0.14500  Biso   1.000  H
  C29      1.0000 0.92830  0.45220  0.63430  Biso   1.000  C
  C30      1.0000 0.57170  0.95220  0.86570  Biso   1.000  C
  C31      1.0000 0.07170  0.54780  0.36570  Biso   1.000  C
  C32      1.0000 0.42830  0.04780  0.13430  Biso   1.000  C
  H29      1.0000 0.91460  0.45340  0.57120  Biso   1.000  H
  H30      1.0000 0.58540  0.95340  0.92880  Biso   1.000  H
  H31      1.0000 0.08540  0.54660  0.42880  Biso   1.000  H
  H32      1.0000 0.41460  0.04660  0.07120  Biso   1.000  H
  C33      1.0000 0.98840  0.49420  0.77360  Biso   1.000  C
  C34      1.0000 0.51160  0.99420  0.72640  Biso   1.000  C
  C35      1.0000 0.01160  0.50580  0.22640  Biso   1.000  C
  C36      1.0000 0.48840  0.00580  0.27360  Biso   1.000  C
  H33      1.0000 0.02860  0.53040  0.82570  Biso   1.000  H
  H34      1.0000 0.47140  0.03040  0.67430  Biso   1.000  H
  H35      1.0000 0.97140  0.46960  0.17430  Biso   1.000  H
  H36      1.0000 0.52860  0.96960  0.32570  Biso   1.000  H
  C37      1.0000 0.92060  0.40380  0.77260  Biso   1.000  C
  C38      1.0000 0.57940  0.90380  0.72740  Biso   1.000  C
  C39      1.0000 0.07940  0.59620  0.22740  Biso   1.000  C
  C40      1.0000 0.42060  0.09620  0.27260  Biso   1.000  C
  H37      1.0000 0.90000  0.36780  0.82230  Biso   1.000  H
  H38      1.0000 0.60000  0.86780  0.67770  Biso   1.000  H
  H39      1.0000 0.10000  0.63220  0.17770  Biso   1.000  H
  H40      1.0000 0.40000  0.13220  0.32230  Biso   1.000  H
  H41      1.0000 0.50180  0.18220  0.49100  Biso   1.000  H
  H42      1.0000 0.99820  0.68220  0.00900  Biso   1.000  H
  H43      1.0000 0.49820  0.81780  0.50900  Biso   1.000  H
  H44      1.0000 0.00180  0.31780  0.99100  Biso   1.000  H
  H45      1.0000 0.57710  0.13130  0.50990  Biso   1.000  H
  H46      1.0000 0.92290  0.63130  0.99010  Biso   1.000  H
  H47      1.0000 0.42290  0.86870  0.49010  Biso   1.000  H
  H48      1.0000 0.07710  0.36870  0.00990  Biso   1.000  H
  H49      1.0000 0.66540  0.95360  0.52710  Biso   1.000  H
  H50      1.0000 0.83460  0.45360  0.97290  Biso   1.000  H
  H51      1.0000 0.33460  0.04640  0.47290  Biso   1.000  H
  H52      1.0000 0.16540  0.54640  0.02710  Biso   1.000  H
  H53      1.0000 0.72070  0.97250  0.47300  Biso   1.000  H
  H54      1.0000 0.77930  0.47250  0.02700  Biso   1.000  H
  H55      1.0000 0.27930  0.02750  0.52700  Biso   1.000  H
  H56      1.0000 0.22070  0.52750  0.97300  Biso   1.000  H
  H57      1.0000 0.92880  0.01900  0.70680  Biso   1.000  H
  H58      1.0000 0.57120  0.51900  0.79320  Biso   1.000  H
  H59      1.0000 0.07120  0.98100  0.29320  Biso   1.000  H
  H60      1.0000 0.42880  0.48100  0.20680  Biso   1.000  H
  H61      1.0000 0.87880  0.00460  0.63240  Biso   1.000  H
  H62      1.0000 0.62120  0.50460  0.86760  Biso   1.000  H
  H63      1.0000 0.12120  0.99540  0.36760  Biso   1.000  H
  H64      1.0000 0.37880  0.49540  0.13240  Biso   1.000  H
  H65      1.0000 0.80740  0.08750  0.37910  Biso   1.000  H
  H66      1.0000 0.69260  0.58750  0.12090  Biso   1.000  H
  H67      1.0000 0.19260  0.91250  0.62090  Biso   1.000  H
  H68      1.0000 0.30740  0.41250  0.87910  Biso   1.000  H
  H69      1.0000 0.88170  0.02370  0.36200  Biso   1.000  H
  H70      1.0000 0.61830  0.52370  0.13800  Biso   1.000  H
  H71      1.0000 0.11830  0.97630  0.63800  Biso   1.000  H
  H72      1.0000 0.38170  0.47630  0.86200  Biso   1.000  H
  H73      1.0000 0.80760  0.12650  0.82240  Biso   1.000  H
  H74      1.0000 0.69240  0.62650  0.67760  Biso   1.000  H
  H75      1.0000 0.19240  0.87350  0.17760  Biso   1.000  H
  H76      1.0000 0.30760  0.37350  0.32240  Biso   1.000  H
  H77      1.0000 0.93720  0.13540  0.85560  Biso   1.000  H
  H78      1.0000 0.56280  0.63540  0.64440  Biso   1.000  H
  H79      1.0000 0.06280  0.86460  0.14440  Biso   1.000  H
  H80      1.0000 0.43720  0.36460  0.35560  Biso   1.000  H
  H81      1.0000 0.55500  0.38600  0.52900  Biso   1.000  H
  H82      1.0000 0.94500  0.88600  0.97100  Biso   1.000  H
  H83      1.0000 0.44500  0.61400  0.47100  Biso   1.000  H
  H84      1.0000 0.05500  0.11400  0.02900  Biso   1.000  H
