data_image0
_cell_length_a       27.912
_cell_length_b       16.272
_cell_length_c       33.504
_cell_angle_alpha    90
_cell_angle_beta     139.655
_cell_angle_gamma    90

_symmetry_space_group_name_H-M    "P 1"
_symmetry_int_tables_number       1

loop_
  _symmetry_equiv_pos_as_xyz
  'x, y, z'

loop_
  _atom_site_label
  _atom_site_occupancy
  _atom_site_fract_x
  _atom_site_fract_y
  _atom_site_fract_z
  _atom_site_thermal_displace_type
  _atom_site_B_iso_or_equiv
  _atom_site_type_symbol
  Cu1      1.0000 0.94467  0.25234  0.18678  Biso   1.000  Cu
  Cu2      1.0000 0.05533  0.25234  0.31322  Biso   1.000  Cu
  Cu3      1.0000 0.44467  0.75234  0.18678  Biso   1.000  Cu
  Cu4      1.0000 0.55533  0.75234  0.31322  Biso   1.000  Cu
  Cu5      1.0000 0.05533  0.74766  0.81322  Biso   1.000  Cu
  Cu6      1.0000 0.94467  0.74766  0.68678  Biso   1.000  Cu
  Cu7      1.0000 0.55533  0.24766  0.81322  Biso   1.000  Cu
  Cu8      1.0000 0.44467  0.24766  0.68678  Biso   1.000  Cu
  Cu9      1.0000 0.54406  0.50960  0.49488  Biso   1.000  Cu
  Cu10     1.0000 0.45594  0.50960  0.00512  Biso   1.000  Cu
  Cu11     1.0000 0.04406  0.00960  0.49488  Biso   1.000  Cu
  Cu12     1.0000 0.95594  0.00960  0.00512  Biso   1.000  Cu
  Cu13     1.0000 0.45594  0.49040  0.50512  Biso   1.000  Cu
  Cu14     1.0000 0.54406  0.49040  0.99488  Biso   1.000  Cu
  Cu15     1.0000 0.95594  0.99040  0.50512  Biso   1.000  Cu
  Cu16     1.0000 0.04406  0.99040  0.99488  Biso   1.000  Cu
  O1       1.0000 0.47320  0.60100  0.43520  Biso   1.000  O
  O2       1.0000 0.52680  0.60100  0.06480  Biso   1.000  O
  O3       1.0000 0.97320  0.10100  0.43520  Biso   1.000  O
  O4       1.0000 0.02680  0.10100  0.06480  Biso   1.000  O
  O5       1.0000 0.52680  0.39900  0.56480  Biso   1.000  O
  O6       1.0000 0.47320  0.39900  0.93520  Biso   1.000  O
  O7       1.0000 0.02680  0.89900  0.56480  Biso   1.000  O
  O8       1.0000 0.97320  0.89900  0.93520  Biso   1.000  O
  O9       1.0000 0.39860  0.58440  0.44440  Biso   1.000  O
  O10      1.0000 0.60140  0.58440  0.05560  Biso   1.000  O
  O11      1.0000 0.89860  0.08440  0.44440  Biso   1.000  O
  O12      1.0000 0.10140  0.08440  0.05560  Biso   1.000  O
  O13      1.0000 0.60140  0.41560  0.55560  Biso   1.000  O
  O14      1.0000 0.39860  0.41560  0.94440  Biso   1.000  O
  O15      1.0000 0.10140  0.91560  0.55560  Biso   1.000  O
  O16      1.0000 0.89860  0.91560  0.94440  Biso   1.000  O
  O17      1.0000 0.00350  0.34440  0.19990  Biso   1.000  O
  O18      1.0000 0.99650  0.34440  0.30010  Biso   1.000  O
  O19      1.0000 0.50350  0.84440  0.19990  Biso   1.000  O
  O20      1.0000 0.49650  0.84440  0.30010  Biso   1.000  O
  O21      1.0000 0.99650  0.65560  0.80010  Biso   1.000  O
  O22      1.0000 0.00350  0.65560  0.69990  Biso   1.000  O
  O23      1.0000 0.49650  0.15560  0.80010  Biso   1.000  O
  O24      1.0000 0.50350  0.15560  0.69990  Biso   1.000  O
  O25      1.0000 0.10650  0.33350  0.30690  Biso   1.000  O
  O26      1.0000 0.89350  0.33350  0.19310  Biso   1.000  O
  O27      1.0000 0.60650  0.83350  0.30690  Biso   1.000  O
  O28      1.0000 0.39350  0.83350  0.19310  Biso   1.000  O
  O29      1.0000 0.89350  0.66650  0.69310  Biso   1.000  O
  O30      1.0000 0.10650  0.66650  0.80690  Biso   1.000  O
  O31      1.0000 0.39350  0.16650  0.69310  Biso   1.000  O
  O32      1.0000 0.60650  0.16650  0.80690  Biso   1.000  O
  O33      1.0000 0.21830  0.60900  0.25060  Biso   1.000  O
  O34      1.0000 0.78170  0.60900  0.24940  Biso   1.000  O
  O35      1.0000 0.71830  0.10900  0.25060  Biso   1.000  O
  O36      1.0000 0.28170  0.10900  0.24940  Biso   1.000  O
  O37      1.0000 0.78170  0.39100  0.74940  Biso   1.000  O
  O38      1.0000 0.21830  0.39100  0.75060  Biso   1.000  O
  O39      1.0000 0.28170  0.89100  0.74940  Biso   1.000  O
  O40      1.0000 0.71830  0.89100  0.75060  Biso   1.000  O
  O41      1.0000 0.10160  0.90900  0.06470  Biso   1.000  O
  O42      1.0000 0.89840  0.90900  0.43530  Biso   1.000  O
  O43      1.0000 0.60160  0.40900  0.06470  Biso   1.000  O
  O44      1.0000 0.39840  0.40900  0.43530  Biso   1.000  O
  O45      1.0000 0.89840  0.09100  0.93530  Biso   1.000  O
  O46      1.0000 0.10160  0.09100  0.56470  Biso   1.000  O
  O47      1.0000 0.39840  0.59100  0.93530  Biso   1.000  O
  O48      1.0000 0.60160  0.59100  0.56470  Biso   1.000  O
  O49      1.0000 0.02630  0.92520  0.07290  Biso   1.000  O
  O50      1.0000 0.97370  0.92520  0.42710  Biso   1.000  O
  O51      1.0000 0.52630  0.42520  0.07290  Biso   1.000  O
  O52      1.0000 0.47370  0.42520  0.42710  Biso   1.000  O
  O53      1.0000 0.97370  0.07480  0.92710  Biso   1.000  O
  O54      1.0000 0.02630  0.07480  0.57290  Biso   1.000  O
  O55      1.0000 0.47370  0.57480  0.92710  Biso   1.000  O
  O56      1.0000 0.52630  0.57480  0.57290  Biso   1.000  O
  O57      1.0000 0.02260  0.17230  0.21150  Biso   1.000  O
  O58      1.0000 0.97740  0.17230  0.28850  Biso   1.000  O
  O59      1.0000 0.52260  0.67230  0.21150  Biso   1.000  O
  O60      1.0000 0.47740  0.67230  0.28850  Biso   1.000  O
  O61      1.0000 0.97740  0.82770  0.78850  Biso   1.000  O
  O62      1.0000 0.02260  0.82770  0.71150  Biso   1.000  O
  O63      1.0000 0.47740  0.32770  0.78850  Biso   1.000  O
  O64      1.0000 0.52260  0.32770  0.71150  Biso   1.000  O
  O65      1.0000 0.10380  0.16180  0.31450  Biso   1.000  O
  O66      1.0000 0.89620  0.16180  0.18550  Biso   1.000  O
  O67      1.0000 0.60380  0.66180  0.31450  Biso   1.000  O
  O68      1.0000 0.39620  0.66180  0.18550  Biso   1.000  O
  O69      1.0000 0.89620  0.83820  0.68550  Biso   1.000  O
  O70      1.0000 0.10380  0.83820  0.81450  Biso   1.000  O
  O71      1.0000 0.39620  0.33820  0.68550  Biso   1.000  O
  O72      1.0000 0.60380  0.33820  0.81450  Biso   1.000  O
  O73      1.0000 0.26400  0.92150  0.28450  Biso   1.000  O
  O74      1.0000 0.73600  0.92150  0.21550  Biso   1.000  O
  O75      1.0000 0.76400  0.42150  0.28450  Biso   1.000  O
  O76      1.0000 0.23600  0.42150  0.21550  Biso   1.000  O
  O77      1.0000 0.73600  0.07850  0.71550  Biso   1.000  O
  O78      1.0000 0.26400  0.07850  0.78450  Biso   1.000  O
  O79      1.0000 0.23600  0.57850  0.71550  Biso   1.000  O
  O80      1.0000 0.76400  0.57850  0.78450  Biso   1.000  O
  O81      1.0000 0.87020  0.25110  0.08540  Biso   1.000  O
  O82      1.0000 0.12980  0.25110  0.41460  Biso   1.000  O
  O83      1.0000 0.37020  0.75110  0.08540  Biso   1.000  O
  O84      1.0000 0.62980  0.75110  0.41460  Biso   1.000  O
  O85      1.0000 0.12980  0.74890  0.91460  Biso   1.000  O
  O86      1.0000 0.87020  0.74890  0.58540  Biso   1.000  O
  O87      1.0000 0.62980  0.24890  0.91460  Biso   1.000  O
  O88      1.0000 0.37020  0.24890  0.58540  Biso   1.000  O
  C1       1.0000 0.10810  0.43090  0.25280  Biso   1.000  C
  C2       1.0000 0.89190  0.43090  0.24720  Biso   1.000  C
  C3       1.0000 0.60810  0.93090  0.25280  Biso   1.000  C
  C4       1.0000 0.39190  0.93090  0.24720  Biso   1.000  C
  C5       1.0000 0.89190  0.56910  0.74720  Biso   1.000  C
  C6       1.0000 0.10810  0.56910  0.75280  Biso   1.000  C
  C7       1.0000 0.39190  0.06910  0.74720  Biso   1.000  C
  C8       1.0000 0.60810  0.06910  0.75280  Biso   1.000  C
  C9       1.0000 0.06960  0.36510  0.25350  Biso   1.000  C
  C10      1.0000 0.93040  0.36510  0.24650  Biso   1.000  C
  C11      1.0000 0.56960  0.86510  0.25350  Biso   1.000  C
  C12      1.0000 0.43040  0.86510  0.24650  Biso   1.000  C
  C13      1.0000 0.93040  0.63490  0.74650  Biso   1.000  C
  C14      1.0000 0.06960  0.63490  0.75350  Biso   1.000  C
  C15      1.0000 0.43040  0.13490  0.74650  Biso   1.000  C
  C16      1.0000 0.56960  0.13490  0.75350  Biso   1.000  C
  H1       1.0000 0.09250  0.34010  0.29100  Biso   1.000  H
  H2       1.0000 0.90750  0.34010  0.20900  Biso   1.000  H
  H3       1.0000 0.59250  0.84010  0.29100  Biso   1.000  H
  H4       1.0000 0.40750  0.84010  0.20900  Biso   1.000  H
  H5       1.0000 0.90750  0.65990  0.70900  Biso   1.000  H
  H6       1.0000 0.09250  0.65990  0.79100  Biso   1.000  H
  H7       1.0000 0.40750  0.15990  0.70900  Biso   1.000  H
  H8       1.0000 0.59250  0.15990  0.79100  Biso   1.000  H
  C17      1.0000 0.13120  0.08160  0.27250  Biso   1.000  C
  C18      1.0000 0.86880  0.08160  0.22750  Biso   1.000  C
  C19      1.0000 0.63120  0.58160  0.27250  Biso   1.000  C
  C20      1.0000 0.36880  0.58160  0.22750  Biso   1.000  C
  C21      1.0000 0.86880  0.91840  0.72750  Biso   1.000  C
  C22      1.0000 0.13120  0.91840  0.77250  Biso   1.000  C
  C23      1.0000 0.36880  0.41840  0.72750  Biso   1.000  C
  C24      1.0000 0.63120  0.41840  0.77250  Biso   1.000  C
  C25      1.0000 0.17600  0.77410  0.14890  Biso   1.000  C
  C26      1.0000 0.82400  0.77410  0.35110  Biso   1.000  C
  C27      1.0000 0.67600  0.27410  0.14890  Biso   1.000  C
  C28      1.0000 0.32400  0.27410  0.35110  Biso   1.000  C
  C29      1.0000 0.82400  0.22590  0.85110  Biso   1.000  C
  C30      1.0000 0.17600  0.22590  0.64890  Biso   1.000  C
  C31      1.0000 0.32400  0.72590  0.85110  Biso   1.000  C
  C32      1.0000 0.67600  0.72590  0.64890  Biso   1.000  C
  H9       1.0000 0.19240  0.79300  0.13350  Biso   1.000  H
  H10      1.0000 0.80760  0.79300  0.36650  Biso   1.000  H
  H11      1.0000 0.69240  0.29300  0.13350  Biso   1.000  H
  H12      1.0000 0.30760  0.29300  0.36650  Biso   1.000  H
  H13      1.0000 0.80760  0.20700  0.86650  Biso   1.000  H
  H14      1.0000 0.19240  0.20700  0.63350  Biso   1.000  H
  H15      1.0000 0.30760  0.70700  0.86650  Biso   1.000  H
  H16      1.0000 0.69240  0.70700  0.63350  Biso   1.000  H
  C33      1.0000 0.42070  0.62300  0.42630  Biso   1.000  C
  C34      1.0000 0.57930  0.62300  0.07370  Biso   1.000  C
  C35      1.0000 0.92070  0.12300  0.42630  Biso   1.000  C
  C36      1.0000 0.07930  0.12300  0.07370  Biso   1.000  C
  C37      1.0000 0.57930  0.37700  0.57370  Biso   1.000  C
  C38      1.0000 0.42070  0.37700  0.92630  Biso   1.000  C
  C39      1.0000 0.07930  0.87700  0.57370  Biso   1.000  C
  C40      1.0000 0.92070  0.87700  0.92630  Biso   1.000  C
  C41      1.0000 0.20930  0.70290  0.18880  Biso   1.000  C
  C42      1.0000 0.79070  0.70290  0.31120  Biso   1.000  C
  C43      1.0000 0.70930  0.20290  0.18880  Biso   1.000  C
  C44      1.0000 0.29070  0.20290  0.31120  Biso   1.000  C
  C45      1.0000 0.79070  0.29710  0.81120  Biso   1.000  C
  C46      1.0000 0.20930  0.29710  0.68880  Biso   1.000  C
  C47      1.0000 0.29070  0.79710  0.81120  Biso   1.000  C
  C48      1.0000 0.70930  0.79710  0.68880  Biso   1.000  C
  H17      1.0000 0.26150  0.71280  0.22420  Biso   1.000  H
  H18      1.0000 0.73850  0.71280  0.27580  Biso   1.000  H
  H19      1.0000 0.76150  0.21280  0.22420  Biso   1.000  H
  H20      1.0000 0.23850  0.21280  0.27580  Biso   1.000  H
  H21      1.0000 0.73850  0.28720  0.77580  Biso   1.000  H
  H22      1.0000 0.26150  0.28720  0.72420  Biso   1.000  H
  H23      1.0000 0.23850  0.78720  0.77580  Biso   1.000  H
  H24      1.0000 0.76150  0.78720  0.72420  Biso   1.000  H
  H25      1.0000 0.20270  0.65740  0.16720  Biso   1.000  H
  H26      1.0000 0.79730  0.65740  0.33280  Biso   1.000  H
  H27      1.0000 0.70270  0.15740  0.16720  Biso   1.000  H
  H28      1.0000 0.29730  0.15740  0.33280  Biso   1.000  H
  H29      1.0000 0.79730  0.34260  0.83280  Biso   1.000  H
  H30      1.0000 0.20270  0.34260  0.66720  Biso   1.000  H
  H31      1.0000 0.29730  0.84260  0.83280  Biso   1.000  H
  H32      1.0000 0.70270  0.84260  0.66720  Biso   1.000  H
  C49      1.0000 0.39420  0.74410  0.36240  Biso   1.000  C
  C50      1.0000 0.60580  0.74410  0.13760  Biso   1.000  C
  C51      1.0000 0.89420  0.24410  0.36240  Biso   1.000  C
  C52      1.0000 0.10580  0.24410  0.13760  Biso   1.000  C
  C53      1.0000 0.60580  0.25590  0.63760  Biso   1.000  C
  C54      1.0000 0.39420  0.25590  0.86240  Biso   1.000  C
  C55      1.0000 0.10580  0.75590  0.63760  Biso   1.000  C
  C56      1.0000 0.89420  0.75590  0.86240  Biso   1.000  C
  H33      1.0000 0.43040  0.72270  0.36720  Biso   1.000  H
  H34      1.0000 0.56960  0.72270  0.13280  Biso   1.000  H
  H35      1.0000 0.93040  0.22270  0.36720  Biso   1.000  H
  H36      1.0000 0.06960  0.22270  0.13280  Biso   1.000  H
  H37      1.0000 0.56960  0.27730  0.63280  Biso   1.000  H
  H38      1.0000 0.43040  0.27730  0.86720  Biso   1.000  H
  H39      1.0000 0.06960  0.77730  0.63280  Biso   1.000  H
  H40      1.0000 0.93040  0.77730  0.86720  Biso   1.000  H
  C57      1.0000 0.18070  0.55250  0.25140  Biso   1.000  C
  C58      1.0000 0.81930  0.55250  0.24860  Biso   1.000  C
  C59      1.0000 0.68070  0.05250  0.25140  Biso   1.000  C
  C60      1.0000 0.31930  0.05250  0.24860  Biso   1.000  C
  C61      1.0000 0.81930  0.44750  0.74860  Biso   1.000  C
  C62      1.0000 0.18070  0.44750  0.75140  Biso   1.000  C
  C63      1.0000 0.31930  0.94750  0.74860  Biso   1.000  C
  C64      1.0000 0.68070  0.94750  0.75140  Biso   1.000  C
  C65      1.0000 0.11830  0.81750  0.13160  Biso   1.000  C
  C66      1.0000 0.88170  0.81750  0.36840  Biso   1.000  C
  C67      1.0000 0.61830  0.31750  0.13160  Biso   1.000  C
  C68      1.0000 0.38170  0.31750  0.36840  Biso   1.000  C
  C69      1.0000 0.88170  0.18250  0.86840  Biso   1.000  C
  C70      1.0000 0.11830  0.18250  0.63160  Biso   1.000  C
  C71      1.0000 0.38170  0.68250  0.86840  Biso   1.000  C
  C72      1.0000 0.61830  0.68250  0.63160  Biso   1.000  C
  C73      1.0000 0.12690  0.72330  0.19580  Biso   1.000  C
  C74      1.0000 0.87310  0.72330  0.30420  Biso   1.000  C
  C75      1.0000 0.62690  0.22330  0.19580  Biso   1.000  C
  C76      1.0000 0.37310  0.22330  0.30420  Biso   1.000  C
  C77      1.0000 0.87310  0.27670  0.80420  Biso   1.000  C
  C78      1.0000 0.12690  0.27670  0.69580  Biso   1.000  C
  C79      1.0000 0.37310  0.77670  0.80420  Biso   1.000  C
  C80      1.0000 0.62690  0.77670  0.69580  Biso   1.000  C
  H41      1.0000 0.11050  0.70410  0.21120  Biso   1.000  H
  H42      1.0000 0.88950  0.70410  0.28880  Biso   1.000  H
  H43      1.0000 0.61050  0.20410  0.21120  Biso   1.000  H
  H44      1.0000 0.38950  0.20410  0.28880  Biso   1.000  H
  H45      1.0000 0.88950  0.29590  0.78880  Biso   1.000  H
  H46      1.0000 0.11050  0.29590  0.71120  Biso   1.000  H
  H47      1.0000 0.38950  0.79590  0.78880  Biso   1.000  H
  H48      1.0000 0.61050  0.79590  0.71120  Biso   1.000  H
  O89      1.0000 0.61750  0.51730  0.48450  Biso   1.000  O
  O90      1.0000 0.38250  0.51730  0.01550  Biso   1.000  O
  O91      1.0000 0.11750  0.01730  0.48450  Biso   1.000  O
  O92      1.0000 0.88250  0.01730  0.01550  Biso   1.000  O
  O93      1.0000 0.38250  0.48270  0.51550  Biso   1.000  O
  O94      1.0000 0.61750  0.48270  0.98450  Biso   1.000  O
  O95      1.0000 0.88250  0.98270  0.51550  Biso   1.000  O
  O96      1.0000 0.11750  0.98270  0.98450  Biso   1.000  O
  C81      1.0000 0.18270  0.67870  0.21040  Biso   1.000  C
  C82      1.0000 0.81730  0.67870  0.28960  Biso   1.000  C
  C83      1.0000 0.68270  0.17870  0.21040  Biso   1.000  C
  C84      1.0000 0.31730  0.17870  0.28960  Biso   1.000  C
  C85      1.0000 0.81730  0.32130  0.78960  Biso   1.000  C
  C86      1.0000 0.18270  0.32130  0.71040  Biso   1.000  C
  C87      1.0000 0.31730  0.82130  0.78960  Biso   1.000  C
  C88      1.0000 0.68270  0.82130  0.71040  Biso   1.000  C
  C89      1.0000 0.37660  0.69900  0.38740  Biso   1.000  C
  C90      1.0000 0.62340  0.69900  0.11260  Biso   1.000  C
  C91      1.0000 0.87660  0.19900  0.38740  Biso   1.000  C
  C92      1.0000 0.12340  0.19900  0.11260  Biso   1.000  C
  C93      1.0000 0.62340  0.30100  0.61260  Biso   1.000  C
  C94      1.0000 0.37660  0.30100  0.88740  Biso   1.000  C
  C95      1.0000 0.12340  0.80100  0.61260  Biso   1.000  C
  C96      1.0000 0.87660  0.80100  0.88740  Biso   1.000  C
  C97      1.0000 0.10790  0.05750  0.21810  Biso   1.000  C
  C98      1.0000 0.89210  0.05750  0.28190  Biso   1.000  C
  C99      1.0000 0.60790  0.55750  0.21810  Biso   1.000  C
  C100     1.0000 0.39210  0.55750  0.28190  Biso   1.000  C
  C101     1.0000 0.89210  0.94250  0.78190  Biso   1.000  C
  C102     1.0000 0.10790  0.94250  0.71810  Biso   1.000  C
  C103     1.0000 0.39210  0.44250  0.78190  Biso   1.000  C
  C104     1.0000 0.60790  0.44250  0.71810  Biso   1.000  C
  H49      1.0000 0.06270  0.07940  0.17850  Biso   1.000  H
  H50      1.0000 0.93730  0.07940  0.32150  Biso   1.000  H
  H51      1.0000 0.56270  0.57940  0.17850  Biso   1.000  H
  H52      1.0000 0.43730  0.57940  0.32150  Biso   1.000  H
  H53      1.0000 0.93730  0.92060  0.82150  Biso   1.000  H
  H54      1.0000 0.06270  0.92060  0.67850  Biso   1.000  H
  H55      1.0000 0.43730  0.42060  0.82150  Biso   1.000  H
  H56      1.0000 0.56270  0.42060  0.67850  Biso   1.000  H
  C105     1.0000 0.15030  0.00300  0.22200  Biso   1.000  C
  C106     1.0000 0.84970  0.00300  0.27800  Biso   1.000  C
  C107     1.0000 0.65030  0.50300  0.22200  Biso   1.000  C
  C108     1.0000 0.34970  0.50300  0.27800  Biso   1.000  C
  C109     1.0000 0.84970  0.99700  0.77800  Biso   1.000  C
  C110     1.0000 0.15030  0.99700  0.72200  Biso   1.000  C
  C111     1.0000 0.34970  0.49700  0.77800  Biso   1.000  C
  C112     1.0000 0.65030  0.49700  0.72200  Biso   1.000  C
  H57      1.0000 0.13510  0.98780  0.18600  Biso   1.000  H
  H58      1.0000 0.86490  0.98780  0.31400  Biso   1.000  H
  H59      1.0000 0.63510  0.48780  0.18600  Biso   1.000  H
  H60      1.0000 0.36490  0.48780  0.31400  Biso   1.000  H
  H61      1.0000 0.86490  0.01220  0.81400  Biso   1.000  H
  H62      1.0000 0.13510  0.01220  0.68600  Biso   1.000  H
  H63      1.0000 0.36490  0.51220  0.81400  Biso   1.000  H
  H64      1.0000 0.63510  0.51220  0.68600  Biso   1.000  H
  C113     1.0000 0.18690  0.45080  0.30760  Biso   1.000  C
  C114     1.0000 0.81310  0.45080  0.19240  Biso   1.000  C
  C115     1.0000 0.68690  0.95080  0.30760  Biso   1.000  C
  C116     1.0000 0.31310  0.95080  0.19240  Biso   1.000  C
  C117     1.0000 0.81310  0.54920  0.69240  Biso   1.000  C
  C118     1.0000 0.18690  0.54920  0.80760  Biso   1.000  C
  C119     1.0000 0.31310  0.04920  0.69240  Biso   1.000  C
  C120     1.0000 0.68690  0.04920  0.80760  Biso   1.000  C
  H65      1.0000 0.21630  0.42080  0.34540  Biso   1.000  H
  H66      1.0000 0.78370  0.42080  0.15460  Biso   1.000  H
  H67      1.0000 0.71630  0.92080  0.34540  Biso   1.000  H
  H68      1.0000 0.28370  0.92080  0.15460  Biso   1.000  H
  H69      1.0000 0.78370  0.57920  0.65460  Biso   1.000  H
  H70      1.0000 0.21630  0.57920  0.84540  Biso   1.000  H
  H71      1.0000 0.28370  0.07920  0.65460  Biso   1.000  H
  H72      1.0000 0.71630  0.07920  0.84540  Biso   1.000  H
  C121     1.0000 0.21860  0.97020  0.28280  Biso   1.000  C
  C122     1.0000 0.78140  0.97020  0.21720  Biso   1.000  C
  C123     1.0000 0.71860  0.47020  0.28280  Biso   1.000  C
  C124     1.0000 0.28140  0.47020  0.21720  Biso   1.000  C
  C125     1.0000 0.78140  0.02980  0.71720  Biso   1.000  C
  C126     1.0000 0.21860  0.02980  0.78280  Biso   1.000  C
  C127     1.0000 0.28140  0.52980  0.71720  Biso   1.000  C
  C128     1.0000 0.71860  0.52980  0.78280  Biso   1.000  C
  C129     1.0000 0.06940  0.47100  0.19770  Biso   1.000  C
  C130     1.0000 0.93060  0.47100  0.30230  Biso   1.000  C
  C131     1.0000 0.56940  0.97100  0.19770  Biso   1.000  C
  C132     1.0000 0.43060  0.97100  0.30230  Biso   1.000  C
  C133     1.0000 0.93060  0.52900  0.80230  Biso   1.000  C
  C134     1.0000 0.06940  0.52900  0.69770  Biso   1.000  C
  C135     1.0000 0.43060  0.02900  0.80230  Biso   1.000  C
  C136     1.0000 0.56940  0.02900  0.69770  Biso   1.000  C
  H73      1.0000 0.01940  0.45450  0.16060  Biso   1.000  H
  H74      1.0000 0.98060  0.45450  0.33940  Biso   1.000  H
  H75      1.0000 0.51940  0.95450  0.16060  Biso   1.000  H
  H76      1.0000 0.48060  0.95450  0.33940  Biso   1.000  H
  H77      1.0000 0.98060  0.54550  0.83940  Biso   1.000  H
  H78      1.0000 0.01940  0.54550  0.66060  Biso   1.000  H
  H79      1.0000 0.48060  0.04550  0.83940  Biso   1.000  H
  H80      1.0000 0.51940  0.04550  0.66060  Biso   1.000  H
  C137     1.0000 0.08480  0.14350  0.26890  Biso   1.000  C
  C138     1.0000 0.91520  0.14350  0.23110  Biso   1.000  C
  C139     1.0000 0.58480  0.64350  0.26890  Biso   1.000  C
  C140     1.0000 0.41520  0.64350  0.23110  Biso   1.000  C
  C141     1.0000 0.91520  0.85650  0.73110  Biso   1.000  C
  C142     1.0000 0.08480  0.85650  0.76890  Biso   1.000  C
  C143     1.0000 0.41520  0.35650  0.73110  Biso   1.000  C
  C144     1.0000 0.58480  0.35650  0.76890  Biso   1.000  C
  C145     1.0000 0.19770  0.05050  0.32980  Biso   1.000  C
  C146     1.0000 0.80230  0.05050  0.17020  Biso   1.000  C
  C147     1.0000 0.69770  0.55050  0.32980  Biso   1.000  C
  C148     1.0000 0.30230  0.55050  0.17020  Biso   1.000  C
  C149     1.0000 0.80230  0.94950  0.67020  Biso   1.000  C
  C150     1.0000 0.19770  0.94950  0.82980  Biso   1.000  C
  C151     1.0000 0.30230  0.44950  0.67020  Biso   1.000  C
  C152     1.0000 0.69770  0.44950  0.82980  Biso   1.000  C
  H81      1.0000 0.21420  0.06710  0.36620  Biso   1.000  H
  H82      1.0000 0.78580  0.06710  0.13380  Biso   1.000  H
  H83      1.0000 0.71420  0.56710  0.36620  Biso   1.000  H
  H84      1.0000 0.28580  0.56710  0.13380  Biso   1.000  H
  H85      1.0000 0.78580  0.93290  0.63380  Biso   1.000  H
  H86      1.0000 0.21420  0.93290  0.86620  Biso   1.000  H
  H87      1.0000 0.28580  0.43290  0.63380  Biso   1.000  H
  H88      1.0000 0.71420  0.43290  0.86620  Biso   1.000  H
  C153     1.0000 0.09500  0.79380  0.15790  Biso   1.000  C
  C154     1.0000 0.90500  0.79380  0.34210  Biso   1.000  C
  C155     1.0000 0.59500  0.29380  0.15790  Biso   1.000  C
  C156     1.0000 0.40500  0.29380  0.34210  Biso   1.000  C
  C157     1.0000 0.90500  0.20620  0.84210  Biso   1.000  C
  C158     1.0000 0.09500  0.20620  0.65790  Biso   1.000  C
  C159     1.0000 0.40500  0.70620  0.84210  Biso   1.000  C
  C160     1.0000 0.59500  0.70620  0.65790  Biso   1.000  C
  H89      1.0000 0.05970  0.82660  0.14950  Biso   1.000  H
  H90      1.0000 0.94030  0.82660  0.35050  Biso   1.000  H
  H91      1.0000 0.55970  0.32660  0.14950  Biso   1.000  H
  H92      1.0000 0.44030  0.32660  0.35050  Biso   1.000  H
  H93      1.0000 0.94030  0.17340  0.85050  Biso   1.000  H
  H94      1.0000 0.05970  0.17340  0.64950  Biso   1.000  H
  H95      1.0000 0.44030  0.67340  0.85050  Biso   1.000  H
  H96      1.0000 0.55970  0.67340  0.64950  Biso   1.000  H
  N1       1.0000 0.86200  0.26730  0.01110  Biso   1.000  N
  N2       1.0000 0.13800  0.26730  0.48890  Biso   1.000  N
  N3       1.0000 0.36200  0.76730  0.01110  Biso   1.000  N
  N4       1.0000 0.63800  0.76730  0.48890  Biso   1.000  N
  N5       1.0000 0.13800  0.73270  0.98890  Biso   1.000  N
  N6       1.0000 0.86200  0.73270  0.51110  Biso   1.000  N
  N7       1.0000 0.63800  0.23270  0.98890  Biso   1.000  N
  N8       1.0000 0.36200  0.23270  0.51110  Biso   1.000  N
  C161     1.0000 0.35580  0.82050  0.32910  Biso   1.000  C
  C162     1.0000 0.64420  0.82050  0.17090  Biso   1.000  C
  C163     1.0000 0.85580  0.32050  0.32910  Biso   1.000  C
  C164     1.0000 0.14420  0.32050  0.17090  Biso   1.000  C
  C165     1.0000 0.64420  0.17950  0.67090  Biso   1.000  C
  C166     1.0000 0.35580  0.17950  0.82910  Biso   1.000  C
  C167     1.0000 0.14420  0.67950  0.67090  Biso   1.000  C
  C168     1.0000 0.85580  0.67950  0.82910  Biso   1.000  C
  H97      1.0000 0.36800  0.85160  0.31310  Biso   1.000  H
  H98      1.0000 0.63200  0.85160  0.18690  Biso   1.000  H
  H99      1.0000 0.86800  0.35160  0.31310  Biso   1.000  H
  H100     1.0000 0.13200  0.35160  0.18690  Biso   1.000  H
  H101     1.0000 0.63200  0.14840  0.68690  Biso   1.000  H
  H102     1.0000 0.36800  0.14840  0.81310  Biso   1.000  H
  H103     1.0000 0.13200  0.64840  0.68690  Biso   1.000  H
  H104     1.0000 0.86800  0.64840  0.81310  Biso   1.000  H
  C169     1.0000 0.29950  0.85230  0.32100  Biso   1.000  C
  C170     1.0000 0.70050  0.85230  0.17900  Biso   1.000  C
  C171     1.0000 0.79950  0.35230  0.32100  Biso   1.000  C
  C172     1.0000 0.20050  0.35230  0.17900  Biso   1.000  C
  C173     1.0000 0.70050  0.14770  0.67900  Biso   1.000  C
  C174     1.0000 0.29950  0.14770  0.82100  Biso   1.000  C
  C175     1.0000 0.20050  0.64770  0.67900  Biso   1.000  C
  C176     1.0000 0.79950  0.64770  0.82100  Biso   1.000  C
  C177     1.0000 0.07740  0.89050  0.08510  Biso   1.000  C
  C178     1.0000 0.92260  0.89050  0.41490  Biso   1.000  C
  C179     1.0000 0.57740  0.39050  0.08510  Biso   1.000  C
  C180     1.0000 0.42260  0.39050  0.41490  Biso   1.000  C
  C181     1.0000 0.92260  0.10950  0.91490  Biso   1.000  C
  C182     1.0000 0.07740  0.10950  0.58510  Biso   1.000  C
  C183     1.0000 0.42260  0.60950  0.91490  Biso   1.000  C
  C184     1.0000 0.57740  0.60950  0.58510  Biso   1.000  C
  C185     1.0000 0.24060  0.99440  0.33510  Biso   1.000  C
  C186     1.0000 0.75940  0.99440  0.16490  Biso   1.000  C
  C187     1.0000 0.74060  0.49440  0.33510  Biso   1.000  C
  C188     1.0000 0.25940  0.49440  0.16490  Biso   1.000  C
  C189     1.0000 0.75940  0.00560  0.66490  Biso   1.000  C
  C190     1.0000 0.24060  0.00560  0.83510  Biso   1.000  C
  C191     1.0000 0.25940  0.50560  0.66490  Biso   1.000  C
  C192     1.0000 0.74060  0.50560  0.83510  Biso   1.000  C
  H105     1.0000 0.28510  0.97190  0.37480  Biso   1.000  H
  H106     1.0000 0.71490  0.97190  0.12520  Biso   1.000  H
  H107     1.0000 0.78510  0.47190  0.37480  Biso   1.000  H
  H108     1.0000 0.21490  0.47190  0.12520  Biso   1.000  H
  H109     1.0000 0.71490  0.02810  0.62520  Biso   1.000  H
  H110     1.0000 0.28510  0.02810  0.87480  Biso   1.000  H
  H111     1.0000 0.21490  0.52810  0.62520  Biso   1.000  H
  H112     1.0000 0.78510  0.52810  0.87480  Biso   1.000  H
  C193     1.0000 0.21910  0.51450  0.30480  Biso   1.000  C
  C194     1.0000 0.78090  0.51450  0.19520  Biso   1.000  C
  C195     1.0000 0.71910  0.01450  0.30480  Biso   1.000  C
  C196     1.0000 0.28090  0.01450  0.19520  Biso   1.000  C
  C197     1.0000 0.78090  0.48550  0.69520  Biso   1.000  C
  C198     1.0000 0.21910  0.48550  0.80480  Biso   1.000  C
  C199     1.0000 0.28090  0.98550  0.69520  Biso   1.000  C
  C200     1.0000 0.71910  0.98550  0.80480  Biso   1.000  C
  H113     1.0000 0.26940  0.53070  0.34140  Biso   1.000  H
  H114     1.0000 0.73060  0.53070  0.15860  Biso   1.000  H
  H115     1.0000 0.76940  0.03070  0.34140  Biso   1.000  H
  H116     1.0000 0.23060  0.03070  0.15860  Biso   1.000  H
  H117     1.0000 0.73060  0.46930  0.65860  Biso   1.000  H
  H118     1.0000 0.26940  0.46930  0.84140  Biso   1.000  H
  H119     1.0000 0.23060  0.96930  0.65860  Biso   1.000  H
  H120     1.0000 0.76940  0.96930  0.84140  Biso   1.000  H
  C201     1.0000 0.32000  0.73160  0.37720  Biso   1.000  C
  C202     1.0000 0.68000  0.73160  0.12280  Biso   1.000  C
  C203     1.0000 0.82000  0.23160  0.37720  Biso   1.000  C
  C204     1.0000 0.18000  0.23160  0.12280  Biso   1.000  C
  C205     1.0000 0.68000  0.26840  0.62280  Biso   1.000  C
  C206     1.0000 0.32000  0.26840  0.87720  Biso   1.000  C
  C207     1.0000 0.18000  0.76840  0.62280  Biso   1.000  C
  C208     1.0000 0.82000  0.76840  0.87720  Biso   1.000  C
  H121     1.0000 0.30890  0.70260  0.39460  Biso   1.000  H
  H122     1.0000 0.69110  0.70260  0.10540  Biso   1.000  H
  H123     1.0000 0.80890  0.20260  0.39460  Biso   1.000  H
  H124     1.0000 0.19110  0.20260  0.10540  Biso   1.000  H
  H125     1.0000 0.69110  0.29740  0.60540  Biso   1.000  H
  H126     1.0000 0.30890  0.29740  0.89460  Biso   1.000  H
  H127     1.0000 0.19110  0.79740  0.60540  Biso   1.000  H
  H128     1.0000 0.80890  0.79740  0.89460  Biso   1.000  H
  C209     1.0000 0.28020  0.80600  0.34230  Biso   1.000  C
  C210     1.0000 0.71980  0.80600  0.15770  Biso   1.000  C
  C211     1.0000 0.78020  0.30600  0.34230  Biso   1.000  C
  C212     1.0000 0.21980  0.30600  0.15770  Biso   1.000  C
  C213     1.0000 0.71980  0.19400  0.65770  Biso   1.000  C
  C214     1.0000 0.28020  0.19400  0.84230  Biso   1.000  C
  C215     1.0000 0.21980  0.69400  0.65770  Biso   1.000  C
  C216     1.0000 0.78020  0.69400  0.84230  Biso   1.000  C
  H129     1.0000 0.24030  0.82410  0.33360  Biso   1.000  H
  H130     1.0000 0.75970  0.82410  0.16640  Biso   1.000  H
  H131     1.0000 0.74030  0.32410  0.33360  Biso   1.000  H
  H132     1.0000 0.25970  0.32410  0.16640  Biso   1.000  H
  H133     1.0000 0.75970  0.17590  0.66640  Biso   1.000  H
  H134     1.0000 0.24030  0.17590  0.83360  Biso   1.000  H
  H135     1.0000 0.25970  0.67590  0.66640  Biso   1.000  H
  H136     1.0000 0.74030  0.67590  0.83360  Biso   1.000  H
  C217     1.0000 0.10120  0.53430  0.19530  Biso   1.000  C
  C218     1.0000 0.89880  0.53430  0.30470  Biso   1.000  C
  C219     1.0000 0.60120  0.03430  0.19530  Biso   1.000  C
  C220     1.0000 0.39880  0.03430  0.30470  Biso   1.000  C
  C221     1.0000 0.89880  0.46570  0.80470  Biso   1.000  C
  C222     1.0000 0.10120  0.46570  0.69530  Biso   1.000  C
  C223     1.0000 0.39880  0.96570  0.80470  Biso   1.000  C
  C224     1.0000 0.60120  0.96570  0.69530  Biso   1.000  C
  H137     1.0000 0.07220  0.56570  0.15810  Biso   1.000  H
  H138     1.0000 0.92780  0.56570  0.34190  Biso   1.000  H
  H139     1.0000 0.57220  0.06570  0.15810  Biso   1.000  H
  H140     1.0000 0.42780  0.06570  0.34190  Biso   1.000  H
  H141     1.0000 0.92780  0.43430  0.84190  Biso   1.000  H
  H142     1.0000 0.07220  0.43430  0.65810  Biso   1.000  H
  H143     1.0000 0.42780  0.93430  0.84190  Biso   1.000  H
  H144     1.0000 0.57220  0.93430  0.65810  Biso   1.000  H
  C225     1.0000 0.89710  0.27240  0.07030  Biso   1.000  C
  C226     1.0000 0.10290  0.27240  0.42970  Biso   1.000  C
  C227     1.0000 0.39710  0.77240  0.07030  Biso   1.000  C
  C228     1.0000 0.60290  0.77240  0.42970  Biso   1.000  C
  C229     1.0000 0.10290  0.72760  0.92970  Biso   1.000  C
  C230     1.0000 0.89710  0.72760  0.57030  Biso   1.000  C
  C231     1.0000 0.60290  0.22760  0.92970  Biso   1.000  C
  C232     1.0000 0.39710  0.22760  0.57030  Biso   1.000  C
  H145     1.0000 0.94640  0.29430  0.10200  Biso   1.000  H
  H146     1.0000 0.05360  0.29430  0.39800  Biso   1.000  H
  H147     1.0000 0.44640  0.79430  0.10200  Biso   1.000  H
  H148     1.0000 0.55360  0.79430  0.39800  Biso   1.000  H
  H149     1.0000 0.05360  0.70570  0.89800  Biso   1.000  H
  H150     1.0000 0.94640  0.70570  0.60200  Biso   1.000  H
  H151     1.0000 0.55360  0.20570  0.89800  Biso   1.000  H
  H152     1.0000 0.44640  0.20570  0.60200  Biso   1.000  H
  C233     1.0000 0.79240  0.24400  0.96190  Biso   1.000  C
  C234     1.0000 0.20760  0.24400  0.53810  Biso   1.000  C
  C235     1.0000 0.29240  0.74400  0.96190  Biso   1.000  C
  C236     1.0000 0.70760  0.74400  0.53810  Biso   1.000  C
  C237     1.0000 0.20760  0.75600  0.03810  Biso   1.000  C
  C238     1.0000 0.79240  0.75600  0.46190  Biso   1.000  C
  C239     1.0000 0.70760  0.25600  0.03810  Biso   1.000  C
  C240     1.0000 0.29240  0.25600  0.46190  Biso   1.000  C
  H153     1.0000 0.77340  0.22670  0.97540  Biso   1.000  H
  H154     1.0000 0.22660  0.22670  0.52460  Biso   1.000  H
  H155     1.0000 0.27340  0.72670  0.97540  Biso   1.000  H
  H156     1.0000 0.72660  0.72670  0.52460  Biso   1.000  H
  H157     1.0000 0.22660  0.77330  0.02460  Biso   1.000  H
  H158     1.0000 0.77340  0.77330  0.47540  Biso   1.000  H
  H159     1.0000 0.72660  0.27330  0.02460  Biso   1.000  H
  H160     1.0000 0.27340  0.27330  0.47540  Biso   1.000  H
  H161     1.0000 0.76000  0.28430  0.92960  Biso   1.000  H
  H162     1.0000 0.24000  0.28430  0.57040  Biso   1.000  H
  H163     1.0000 0.26000  0.78430  0.92960  Biso   1.000  H
  H164     1.0000 0.74000  0.78430  0.57040  Biso   1.000  H
  H165     1.0000 0.24000  0.71570  0.07040  Biso   1.000  H
  H166     1.0000 0.76000  0.71570  0.42960  Biso   1.000  H
  H167     1.0000 0.74000  0.21570  0.07040  Biso   1.000  H
  H168     1.0000 0.26000  0.21570  0.42960  Biso   1.000  H
  H169     1.0000 0.79540  0.19730  0.94670  Biso   1.000  H
  H170     1.0000 0.20460  0.19730  0.55330  Biso   1.000  H
  H171     1.0000 0.29540  0.69730  0.94670  Biso   1.000  H
  H172     1.0000 0.70460  0.69730  0.55330  Biso   1.000  H
  H173     1.0000 0.20460  0.80270  0.05330  Biso   1.000  H
  H174     1.0000 0.79540  0.80270  0.44670  Biso   1.000  H
  H175     1.0000 0.70460  0.30270  0.05330  Biso   1.000  H
  H176     1.0000 0.29540  0.30270  0.44670  Biso   1.000  H
  C241     1.0000 0.90110  0.29800  0.99720  Biso   1.000  C
  C242     1.0000 0.09890  0.29800  0.50280  Biso   1.000  C
  C243     1.0000 0.40110  0.79800  0.99720  Biso   1.000  C
  C244     1.0000 0.59890  0.79800  0.50280  Biso   1.000  C
  C245     1.0000 0.09890  0.70200  0.00280  Biso   1.000  C
  C246     1.0000 0.90110  0.70200  0.49720  Biso   1.000  C
  C247     1.0000 0.59890  0.20200  0.00280  Biso   1.000  C
  C248     1.0000 0.40110  0.20200  0.49720  Biso   1.000  C
  H177     1.0000 0.87030  0.29070  0.95460  Biso   1.000  H
  H178     1.0000 0.12970  0.29070  0.54540  Biso   1.000  H
  H179     1.0000 0.37030  0.79070  0.95460  Biso   1.000  H
  H180     1.0000 0.62970  0.79070  0.54540  Biso   1.000  H
  H181     1.0000 0.12970  0.70930  0.04540  Biso   1.000  H
  H182     1.0000 0.87030  0.70930  0.45460  Biso   1.000  H
  H183     1.0000 0.62970  0.20930  0.04540  Biso   1.000  H
  H184     1.0000 0.37030  0.20930  0.45460  Biso   1.000  H
  H185     1.0000 0.91220  0.35540  0.00700  Biso   1.000  H
  H186     1.0000 0.08780  0.35540  0.49300  Biso   1.000  H
  H187     1.0000 0.41220  0.85540  0.00700  Biso   1.000  H
  H188     1.0000 0.58780  0.85540  0.49300  Biso   1.000  H
  H189     1.0000 0.08780  0.64460  0.99300  Biso   1.000  H
  H190     1.0000 0.91220  0.64460  0.50700  Biso   1.000  H
  H191     1.0000 0.58780  0.14460  0.99300  Biso   1.000  H
  H192     1.0000 0.41220  0.14460  0.50700  Biso   1.000  H
  H193     1.0000 0.94630  0.26790  0.02270  Biso   1.000  H
  H194     1.0000 0.05370  0.26790  0.47730  Biso   1.000  H
  H195     1.0000 0.44630  0.76790  0.02270  Biso   1.000  H
  H196     1.0000 0.55370  0.76790  0.47730  Biso   1.000  H
  H197     1.0000 0.05370  0.73210  0.97730  Biso   1.000  H
  H198     1.0000 0.94630  0.73210  0.52270  Biso   1.000  H
  H199     1.0000 0.55370  0.23210  0.97730  Biso   1.000  H
  H200     1.0000 0.44630  0.23210  0.52270  Biso   1.000  H
  O97      1.0000 0.70000  0.52890  0.48000  Biso   1.000  O
  O98      1.0000 0.30000  0.52890  0.02000  Biso   1.000  O
  O99      1.0000 0.20000  0.02890  0.48000  Biso   1.000  O
  O100     1.0000 0.80000  0.02890  0.02000  Biso   1.000  O
  O101     1.0000 0.30000  0.47110  0.52000  Biso   1.000  O
  O102     1.0000 0.70000  0.47110  0.98000  Biso   1.000  O
  O103     1.0000 0.80000  0.97110  0.52000  Biso   1.000  O
  O104     1.0000 0.20000  0.97110  0.98000  Biso   1.000  O
