data_image0
_cell_length_a       39.7575
_cell_length_b       10.3307
_cell_length_c       11.1347
_cell_angle_alpha    90
_cell_angle_beta     90
_cell_angle_gamma    90

_symmetry_space_group_name_H-M    "P 1"
_symmetry_int_tables_number       1

loop_
  _symmetry_equiv_pos_as_xyz
  'x, y, z'

loop_
  _atom_site_label
  _atom_site_occupancy
  _atom_site_fract_x
  _atom_site_fract_y
  _atom_site_fract_z
  _atom_site_thermal_displace_type
  _atom_site_B_iso_or_equiv
  _atom_site_type_symbol
  Cu1      1.0000 0.00000  0.00000  0.99691  Biso   1.000  Cu
  Cu2      1.0000 0.25000  0.25000  0.24691  Biso   1.000  Cu
  Cu3      1.0000 0.00000  0.50000  0.49691  Biso   1.000  Cu
  Cu4      1.0000 0.25000  0.75000  0.74691  Biso   1.000  Cu
  Cu5      1.0000 0.50000  0.00000  0.49691  Biso   1.000  Cu
  Cu6      1.0000 0.75000  0.25000  0.74691  Biso   1.000  Cu
  Cu7      1.0000 0.50000  0.50000  0.99691  Biso   1.000  Cu
  Cu8      1.0000 0.75000  0.75000  0.24691  Biso   1.000  Cu
  C1       1.0000 0.00000  0.00000  0.43170  Biso   1.000  C
  C2       1.0000 0.25000  0.25000  0.68170  Biso   1.000  C
  C3       1.0000 0.00000  0.50000  0.93170  Biso   1.000  C
  C4       1.0000 0.25000  0.75000  0.18170  Biso   1.000  C
  C5       1.0000 0.50000  0.00000  0.93170  Biso   1.000  C
  C6       1.0000 0.75000  0.25000  0.18170  Biso   1.000  C
  C7       1.0000 0.50000  0.50000  0.43170  Biso   1.000  C
  C8       1.0000 0.75000  0.75000  0.68170  Biso   1.000  C
  O1       1.0000 0.96110  0.88285  0.98800  Biso   1.000  O
  O2       1.0000 0.03890  0.11715  0.98800  Biso   1.000  O
  O3       1.0000 0.21110  0.36715  0.23800  Biso   1.000  O
  O4       1.0000 0.28890  0.13285  0.23800  Biso   1.000  O
  O5       1.0000 0.96110  0.38285  0.48800  Biso   1.000  O
  O6       1.0000 0.03890  0.61715  0.48800  Biso   1.000  O
  O7       1.0000 0.21110  0.86715  0.73800  Biso   1.000  O
  O8       1.0000 0.28890  0.63285  0.73800  Biso   1.000  O
  O9       1.0000 0.46110  0.88285  0.48800  Biso   1.000  O
  O10      1.0000 0.53890  0.11715  0.48800  Biso   1.000  O
  O11      1.0000 0.71110  0.36715  0.73800  Biso   1.000  O
  O12      1.0000 0.78890  0.13285  0.73800  Biso   1.000  O
  O13      1.0000 0.46110  0.38285  0.98800  Biso   1.000  O
  O14      1.0000 0.53890  0.61715  0.98800  Biso   1.000  O
  O15      1.0000 0.71110  0.86715  0.23800  Biso   1.000  O
  O16      1.0000 0.78890  0.63285  0.23800  Biso   1.000  O
  O17      1.0000 0.93954  0.07970  0.98850  Biso   1.000  O
  O18      1.0000 0.06046  0.92030  0.98850  Biso   1.000  O
  O19      1.0000 0.18954  0.17030  0.23850  Biso   1.000  O
  O20      1.0000 0.31046  0.32970  0.23850  Biso   1.000  O
  O21      1.0000 0.93954  0.57970  0.48850  Biso   1.000  O
  O22      1.0000 0.06046  0.42030  0.48850  Biso   1.000  O
  O23      1.0000 0.18954  0.67030  0.73850  Biso   1.000  O
  O24      1.0000 0.31046  0.82970  0.73850  Biso   1.000  O
  O25      1.0000 0.43954  0.07970  0.48850  Biso   1.000  O
  O26      1.0000 0.56046  0.92030  0.48850  Biso   1.000  O
  O27      1.0000 0.68954  0.17030  0.73850  Biso   1.000  O
  O28      1.0000 0.81046  0.32970  0.73850  Biso   1.000  O
  O29      1.0000 0.43954  0.57970  0.98850  Biso   1.000  O
  O30      1.0000 0.56046  0.42030  0.98850  Biso   1.000  O
  O31      1.0000 0.68954  0.67030  0.23850  Biso   1.000  O
  O32      1.0000 0.81046  0.82970  0.23850  Biso   1.000  O
  C9       1.0000 0.99770  0.88540  0.62880  Biso   1.000  C
  C10      1.0000 0.00230  0.11460  0.62880  Biso   1.000  C
  C11      1.0000 0.24770  0.36460  0.87880  Biso   1.000  C
  C12      1.0000 0.25230  0.13540  0.87880  Biso   1.000  C
  C13      1.0000 0.99770  0.38540  0.12880  Biso   1.000  C
  C14      1.0000 0.00230  0.61460  0.12880  Biso   1.000  C
  C15      1.0000 0.24770  0.86460  0.37880  Biso   1.000  C
  C16      1.0000 0.25230  0.63540  0.37880  Biso   1.000  C
  C17      1.0000 0.49770  0.88540  0.12880  Biso   1.000  C
  C18      1.0000 0.50230  0.11460  0.12880  Biso   1.000  C
  C19      1.0000 0.74770  0.36460  0.37880  Biso   1.000  C
  C20      1.0000 0.75230  0.13540  0.37880  Biso   1.000  C
  C21      1.0000 0.49770  0.38540  0.62880  Biso   1.000  C
  C22      1.0000 0.50230  0.61460  0.62880  Biso   1.000  C
  C23      1.0000 0.74770  0.86460  0.87880  Biso   1.000  C
  C24      1.0000 0.75230  0.63540  0.87880  Biso   1.000  C
  H1       1.0000 0.99630  0.80670  0.58850  Biso   1.000  H
  H2       1.0000 0.00370  0.19330  0.58850  Biso   1.000  H
  H3       1.0000 0.24630  0.44330  0.83850  Biso   1.000  H
  H4       1.0000 0.25370  0.05670  0.83850  Biso   1.000  H
  H5       1.0000 0.99630  0.30670  0.08850  Biso   1.000  H
  H6       1.0000 0.00370  0.69330  0.08850  Biso   1.000  H
  H7       1.0000 0.24630  0.94330  0.33850  Biso   1.000  H
  H8       1.0000 0.25370  0.55670  0.33850  Biso   1.000  H
  H9       1.0000 0.49630  0.80670  0.08850  Biso   1.000  H
  H10      1.0000 0.50370  0.19330  0.08850  Biso   1.000  H
  H11      1.0000 0.74630  0.44330  0.33850  Biso   1.000  H
  H12      1.0000 0.75370  0.05670  0.33850  Biso   1.000  H
  H13      1.0000 0.49630  0.30670  0.58850  Biso   1.000  H
  H14      1.0000 0.50370  0.69330  0.58850  Biso   1.000  H
  H15      1.0000 0.74630  0.94330  0.83850  Biso   1.000  H
  H16      1.0000 0.75370  0.55670  0.83850  Biso   1.000  H
  N1       1.0000 0.00000  0.00000  0.17900  Biso   1.000  N
  N2       1.0000 0.25000  0.25000  0.42900  Biso   1.000  N
  N3       1.0000 0.00000  0.50000  0.67900  Biso   1.000  N
  N4       1.0000 0.25000  0.75000  0.92900  Biso   1.000  N
  N5       1.0000 0.50000  0.00000  0.67900  Biso   1.000  N
  N6       1.0000 0.75000  0.25000  0.92900  Biso   1.000  N
  N7       1.0000 0.50000  0.50000  0.17900  Biso   1.000  N
  N8       1.0000 0.75000  0.75000  0.42900  Biso   1.000  N
  N9       1.0000 0.00000  0.00000  0.81400  Biso   1.000  N
  N10      1.0000 0.25000  0.25000  0.06400  Biso   1.000  N
  N11      1.0000 0.00000  0.50000  0.31400  Biso   1.000  N
  N12      1.0000 0.25000  0.75000  0.56400  Biso   1.000  N
  N13      1.0000 0.50000  0.00000  0.31400  Biso   1.000  N
  N14      1.0000 0.75000  0.25000  0.56400  Biso   1.000  N
  N15      1.0000 0.50000  0.50000  0.81400  Biso   1.000  N
  N16      1.0000 0.75000  0.75000  0.06400  Biso   1.000  N
  C25      1.0000 0.93620  0.95920  0.97840  Biso   1.000  C
  C26      1.0000 0.06380  0.04080  0.97840  Biso   1.000  C
  C27      1.0000 0.18620  0.29080  0.22840  Biso   1.000  C
  C28      1.0000 0.31380  0.20920  0.22840  Biso   1.000  C
  C29      1.0000 0.93620  0.45920  0.47840  Biso   1.000  C
  C30      1.0000 0.06380  0.54080  0.47840  Biso   1.000  C
  C31      1.0000 0.18620  0.79080  0.72840  Biso   1.000  C
  C32      1.0000 0.31380  0.70920  0.72840  Biso   1.000  C
  C33      1.0000 0.43620  0.95920  0.47840  Biso   1.000  C
  C34      1.0000 0.56380  0.04080  0.47840  Biso   1.000  C
  C35      1.0000 0.68620  0.29080  0.72840  Biso   1.000  C
  C36      1.0000 0.81380  0.20920  0.72840  Biso   1.000  C
  C37      1.0000 0.43620  0.45920  0.97840  Biso   1.000  C
  C38      1.0000 0.56380  0.54080  0.97840  Biso   1.000  C
  C39      1.0000 0.68620  0.79080  0.22840  Biso   1.000  C
  C40      1.0000 0.81380  0.70920  0.22840  Biso   1.000  C
  C41      1.0000 0.99752  0.88920  0.75240  Biso   1.000  C
  C42      1.0000 0.00248  0.11080  0.75240  Biso   1.000  C
  C43      1.0000 0.24752  0.36080  0.00240  Biso   1.000  C
  C44      1.0000 0.25248  0.13920  0.00240  Biso   1.000  C
  C45      1.0000 0.99752  0.38920  0.25240  Biso   1.000  C
  C46      1.0000 0.00248  0.61080  0.25240  Biso   1.000  C
  C47      1.0000 0.24752  0.86080  0.50240  Biso   1.000  C
  C48      1.0000 0.25248  0.63920  0.50240  Biso   1.000  C
  C49      1.0000 0.49752  0.88920  0.25240  Biso   1.000  C
  C50      1.0000 0.50248  0.11080  0.25240  Biso   1.000  C
  C51      1.0000 0.74752  0.36080  0.50240  Biso   1.000  C
  C52      1.0000 0.75248  0.13920  0.50240  Biso   1.000  C
  C53      1.0000 0.49752  0.38920  0.75240  Biso   1.000  C
  C54      1.0000 0.50248  0.61080  0.75240  Biso   1.000  C
  C55      1.0000 0.74752  0.86080  0.00240  Biso   1.000  C
  C56      1.0000 0.75248  0.63920  0.00240  Biso   1.000  C
  H17      1.0000 0.99560  0.81190  0.79470  Biso   1.000  H
  H18      1.0000 0.00440  0.18810  0.79470  Biso   1.000  H
  H19      1.0000 0.24560  0.43810  0.04470  Biso   1.000  H
  H20      1.0000 0.25440  0.06190  0.04470  Biso   1.000  H
  H21      1.0000 0.99560  0.31190  0.29470  Biso   1.000  H
  H22      1.0000 0.00440  0.68810  0.29470  Biso   1.000  H
  H23      1.0000 0.24560  0.93810  0.54470  Biso   1.000  H
  H24      1.0000 0.25440  0.56190  0.54470  Biso   1.000  H
  H25      1.0000 0.49560  0.81190  0.29470  Biso   1.000  H
  H26      1.0000 0.50440  0.18810  0.29470  Biso   1.000  H
  H27      1.0000 0.74560  0.43810  0.54470  Biso   1.000  H
  H28      1.0000 0.75440  0.06190  0.54470  Biso   1.000  H
  H29      1.0000 0.49560  0.31190  0.79470  Biso   1.000  H
  H30      1.0000 0.50440  0.68810  0.79470  Biso   1.000  H
  H31      1.0000 0.74560  0.93810  0.04470  Biso   1.000  H
  H32      1.0000 0.75440  0.56190  0.04470  Biso   1.000  H
  C57      1.0000 0.97141  0.99100  0.24310  Biso   1.000  C
  C58      1.0000 0.02859  0.00900  0.24310  Biso   1.000  C
  C59      1.0000 0.22141  0.25900  0.49310  Biso   1.000  C
  C60      1.0000 0.27859  0.24100  0.49310  Biso   1.000  C
  C61      1.0000 0.97141  0.49100  0.74310  Biso   1.000  C
  C62      1.0000 0.02859  0.50900  0.74310  Biso   1.000  C
  C63      1.0000 0.22141  0.75900  0.99310  Biso   1.000  C
  C64      1.0000 0.27859  0.74100  0.99310  Biso   1.000  C
  C65      1.0000 0.47141  0.99100  0.74310  Biso   1.000  C
  C66      1.0000 0.52859  0.00900  0.74310  Biso   1.000  C
  C67      1.0000 0.72141  0.25900  0.99310  Biso   1.000  C
  C68      1.0000 0.77859  0.24100  0.99310  Biso   1.000  C
  C69      1.0000 0.47141  0.49100  0.24310  Biso   1.000  C
  C70      1.0000 0.52859  0.50900  0.24310  Biso   1.000  C
  C71      1.0000 0.72141  0.75900  0.49310  Biso   1.000  C
  C72      1.0000 0.77859  0.74100  0.49310  Biso   1.000  C
  H33      1.0000 0.95120  0.98520  0.20150  Biso   1.000  H
  H34      1.0000 0.04880  0.01480  0.20150  Biso   1.000  H
  H35      1.0000 0.20120  0.26480  0.45150  Biso   1.000  H
  H36      1.0000 0.29880  0.23520  0.45150  Biso   1.000  H
  H37      1.0000 0.95120  0.48520  0.70150  Biso   1.000  H
  H38      1.0000 0.04880  0.51480  0.70150  Biso   1.000  H
  H39      1.0000 0.20120  0.76480  0.95150  Biso   1.000  H
  H40      1.0000 0.29880  0.73520  0.95150  Biso   1.000  H
  H41      1.0000 0.45120  0.98520  0.70150  Biso   1.000  H
  H42      1.0000 0.54880  0.01480  0.70150  Biso   1.000  H
  H43      1.0000 0.70120  0.26480  0.95150  Biso   1.000  H
  H44      1.0000 0.79880  0.23520  0.95150  Biso   1.000  H
  H45      1.0000 0.45120  0.48520  0.20150  Biso   1.000  H
  H46      1.0000 0.54880  0.51480  0.20150  Biso   1.000  H
  H47      1.0000 0.70120  0.76480  0.45150  Biso   1.000  H
  H48      1.0000 0.79880  0.73520  0.45150  Biso   1.000  H
  C73      1.0000 0.86769  0.72540  0.88350  Biso   1.000  C
  C74      1.0000 0.13231  0.27460  0.88350  Biso   1.000  C
  C75      1.0000 0.11769  0.52460  0.13350  Biso   1.000  C
  C76      1.0000 0.38231  0.97540  0.13350  Biso   1.000  C
  C77      1.0000 0.86769  0.22540  0.38350  Biso   1.000  C
  C78      1.0000 0.13231  0.77460  0.38350  Biso   1.000  C
  C79      1.0000 0.11769  0.02460  0.63350  Biso   1.000  C
  C80      1.0000 0.38231  0.47540  0.63350  Biso   1.000  C
  C81      1.0000 0.36769  0.72540  0.38350  Biso   1.000  C
  C82      1.0000 0.63231  0.27460  0.38350  Biso   1.000  C
  C83      1.0000 0.61769  0.52460  0.63350  Biso   1.000  C
  C84      1.0000 0.88231  0.97540  0.63350  Biso   1.000  C
  C85      1.0000 0.36769  0.22540  0.88350  Biso   1.000  C
  C86      1.0000 0.63231  0.77460  0.88350  Biso   1.000  C
  C87      1.0000 0.61769  0.02460  0.13350  Biso   1.000  C
  C88      1.0000 0.88231  0.47540  0.13350  Biso   1.000  C
  C89      1.0000 0.97034  0.98980  0.36700  Biso   1.000  C
  C90      1.0000 0.02966  0.01020  0.36700  Biso   1.000  C
  C91      1.0000 0.22034  0.26020  0.61700  Biso   1.000  C
  C92      1.0000 0.27966  0.23980  0.61700  Biso   1.000  C
  C93      1.0000 0.97034  0.48980  0.86700  Biso   1.000  C
  C94      1.0000 0.02966  0.51020  0.86700  Biso   1.000  C
  C95      1.0000 0.22034  0.76020  0.11700  Biso   1.000  C
  C96      1.0000 0.27966  0.73980  0.11700  Biso   1.000  C
  C97      1.0000 0.47034  0.98980  0.86700  Biso   1.000  C
  C98      1.0000 0.52966  0.01020  0.86700  Biso   1.000  C
  C99      1.0000 0.72034  0.26020  0.11700  Biso   1.000  C
  C100     1.0000 0.77966  0.23980  0.11700  Biso   1.000  C
  C101     1.0000 0.47034  0.48980  0.36700  Biso   1.000  C
  C102     1.0000 0.52966  0.51020  0.36700  Biso   1.000  C
  C103     1.0000 0.72034  0.76020  0.61700  Biso   1.000  C
  C104     1.0000 0.77966  0.73980  0.61700  Biso   1.000  C
  H49      1.0000 0.94990  0.98210  0.40680  Biso   1.000  H
  H50      1.0000 0.05010  0.01790  0.40680  Biso   1.000  H
  H51      1.0000 0.19990  0.26790  0.65680  Biso   1.000  H
  H52      1.0000 0.30010  0.23210  0.65680  Biso   1.000  H
  H53      1.0000 0.94990  0.48210  0.90680  Biso   1.000  H
  H54      1.0000 0.05010  0.51790  0.90680  Biso   1.000  H
  H55      1.0000 0.19990  0.76790  0.15680  Biso   1.000  H
  H56      1.0000 0.30010  0.73210  0.15680  Biso   1.000  H
  H57      1.0000 0.44990  0.98210  0.90680  Biso   1.000  H
  H58      1.0000 0.55010  0.01790  0.90680  Biso   1.000  H
  H59      1.0000 0.69990  0.26790  0.15680  Biso   1.000  H
  H60      1.0000 0.80010  0.23210  0.15680  Biso   1.000  H
  H61      1.0000 0.44990  0.48210  0.40680  Biso   1.000  H
  H62      1.0000 0.55010  0.51790  0.40680  Biso   1.000  H
  H63      1.0000 0.69990  0.76790  0.65680  Biso   1.000  H
  H64      1.0000 0.80010  0.73210  0.65680  Biso   1.000  H
  O33      1.0000 0.83381  0.55710  0.81050  Biso   1.000  O
  O34      1.0000 0.16619  0.44290  0.81050  Biso   1.000  O
  O35      1.0000 0.08381  0.69290  0.06050  Biso   1.000  O
  O36      1.0000 0.41619  0.80710  0.06050  Biso   1.000  O
  O37      1.0000 0.83381  0.05710  0.31050  Biso   1.000  O
  O38      1.0000 0.16619  0.94290  0.31050  Biso   1.000  O
  O39      1.0000 0.08381  0.19290  0.56050  Biso   1.000  O
  O40      1.0000 0.41619  0.30710  0.56050  Biso   1.000  O
  O41      1.0000 0.33381  0.55710  0.31050  Biso   1.000  O
  O42      1.0000 0.66619  0.44290  0.31050  Biso   1.000  O
  O43      1.0000 0.58381  0.69290  0.56050  Biso   1.000  O
  O44      1.0000 0.91619  0.80710  0.56050  Biso   1.000  O
  O45      1.0000 0.33381  0.05710  0.81050  Biso   1.000  O
  O46      1.0000 0.66619  0.94290  0.81050  Biso   1.000  O
  O47      1.0000 0.58381  0.19290  0.06050  Biso   1.000  O
  O48      1.0000 0.91619  0.30710  0.06050  Biso   1.000  O
  C105     1.0000 0.90194  0.90290  0.95410  Biso   1.000  C
  C106     1.0000 0.09806  0.09710  0.95410  Biso   1.000  C
  C107     1.0000 0.15194  0.34710  0.20410  Biso   1.000  C
  C108     1.0000 0.34806  0.15290  0.20410  Biso   1.000  C
  C109     1.0000 0.90194  0.40290  0.45410  Biso   1.000  C
  C110     1.0000 0.09806  0.59710  0.45410  Biso   1.000  C
  C111     1.0000 0.15194  0.84710  0.70410  Biso   1.000  C
  C112     1.0000 0.34806  0.65290  0.70410  Biso   1.000  C
  C113     1.0000 0.40194  0.90290  0.45410  Biso   1.000  C
  C114     1.0000 0.59806  0.09710  0.45410  Biso   1.000  C
  C115     1.0000 0.65194  0.34710  0.70410  Biso   1.000  C
  C116     1.0000 0.84806  0.15290  0.70410  Biso   1.000  C
  C117     1.0000 0.40194  0.40290  0.95410  Biso   1.000  C
  C118     1.0000 0.59806  0.59710  0.95410  Biso   1.000  C
  C119     1.0000 0.65194  0.84710  0.20410  Biso   1.000  C
  C120     1.0000 0.84806  0.65290  0.20410  Biso   1.000  C
  C121     1.0000 0.89932  0.77880  0.90630  Biso   1.000  C
  C122     1.0000 0.10068  0.22120  0.90630  Biso   1.000  C
  C123     1.0000 0.14932  0.47120  0.15630  Biso   1.000  C
  C124     1.0000 0.35068  0.02880  0.15630  Biso   1.000  C
  C125     1.0000 0.89932  0.27880  0.40630  Biso   1.000  C
  C126     1.0000 0.10068  0.72120  0.40630  Biso   1.000  C
  C127     1.0000 0.14932  0.97120  0.65630  Biso   1.000  C
  C128     1.0000 0.35068  0.52880  0.65630  Biso   1.000  C
  C129     1.0000 0.39932  0.77880  0.40630  Biso   1.000  C
  C130     1.0000 0.60068  0.22120  0.40630  Biso   1.000  C
  C131     1.0000 0.64932  0.47120  0.65630  Biso   1.000  C
  C132     1.0000 0.85068  0.02880  0.65630  Biso   1.000  C
  C133     1.0000 0.39932  0.27880  0.90630  Biso   1.000  C
  C134     1.0000 0.60068  0.72120  0.90630  Biso   1.000  C
  C135     1.0000 0.64932  0.97120  0.15630  Biso   1.000  C
  C136     1.0000 0.85068  0.52880  0.15630  Biso   1.000  C
  H65      1.0000 0.91860  0.73140  0.88960  Biso   1.000  H
  H66      1.0000 0.08140  0.26860  0.88960  Biso   1.000  H
  H67      1.0000 0.16860  0.51860  0.13960  Biso   1.000  H
  H68      1.0000 0.33140  0.98140  0.13960  Biso   1.000  H
  H69      1.0000 0.91860  0.23140  0.38960  Biso   1.000  H
  H70      1.0000 0.08140  0.76860  0.38960  Biso   1.000  H
  H71      1.0000 0.16860  0.01860  0.63960  Biso   1.000  H
  H72      1.0000 0.33140  0.48140  0.63960  Biso   1.000  H
  H73      1.0000 0.41860  0.73140  0.38960  Biso   1.000  H
  H74      1.0000 0.58140  0.26860  0.38960  Biso   1.000  H
  H75      1.0000 0.66860  0.51860  0.63960  Biso   1.000  H
  H76      1.0000 0.83140  0.98140  0.63960  Biso   1.000  H
  H77      1.0000 0.41860  0.23140  0.88960  Biso   1.000  H
  H78      1.0000 0.58140  0.76860  0.88960  Biso   1.000  H
  H79      1.0000 0.66860  0.01860  0.13960  Biso   1.000  H
  H80      1.0000 0.83140  0.48140  0.13960  Biso   1.000  H
  C137     1.0000 0.86523  0.59410  0.82980  Biso   1.000  C
  C138     1.0000 0.13477  0.40590  0.82980  Biso   1.000  C
  C139     1.0000 0.11523  0.65590  0.07980  Biso   1.000  C
  C140     1.0000 0.38477  0.84410  0.07980  Biso   1.000  C
  C141     1.0000 0.86523  0.09410  0.32980  Biso   1.000  C
  C142     1.0000 0.13477  0.90590  0.32980  Biso   1.000  C
  C143     1.0000 0.11523  0.15590  0.57980  Biso   1.000  C
  C144     1.0000 0.38477  0.34410  0.57980  Biso   1.000  C
  C145     1.0000 0.36523  0.59410  0.32980  Biso   1.000  C
  C146     1.0000 0.63477  0.40590  0.32980  Biso   1.000  C
  C147     1.0000 0.61523  0.65590  0.57980  Biso   1.000  C
  C148     1.0000 0.88477  0.84410  0.57980  Biso   1.000  C
  C149     1.0000 0.36523  0.09410  0.82980  Biso   1.000  C
  C150     1.0000 0.63477  0.90590  0.82980  Biso   1.000  C
  C151     1.0000 0.61523  0.15590  0.07980  Biso   1.000  C
  C152     1.0000 0.88477  0.34410  0.07980  Biso   1.000  C
  C153     1.0000 0.87324  0.97320  0.97950  Biso   1.000  C
  C154     1.0000 0.12676  0.02680  0.97950  Biso   1.000  C
  C155     1.0000 0.12324  0.27680  0.22950  Biso   1.000  C
  C156     1.0000 0.37676  0.22320  0.22950  Biso   1.000  C
  C157     1.0000 0.87324  0.47320  0.47950  Biso   1.000  C
  C158     1.0000 0.12676  0.52680  0.47950  Biso   1.000  C
  C159     1.0000 0.12324  0.77680  0.72950  Biso   1.000  C
  C160     1.0000 0.37676  0.72320  0.72950  Biso   1.000  C
  C161     1.0000 0.37324  0.97320  0.47950  Biso   1.000  C
  C162     1.0000 0.62676  0.02680  0.47950  Biso   1.000  C
  C163     1.0000 0.62324  0.27680  0.72950  Biso   1.000  C
  C164     1.0000 0.87676  0.22320  0.72950  Biso   1.000  C
  C165     1.0000 0.37324  0.47320  0.97950  Biso   1.000  C
  C166     1.0000 0.62676  0.52680  0.97950  Biso   1.000  C
  C167     1.0000 0.62324  0.77680  0.22950  Biso   1.000  C
  C168     1.0000 0.87676  0.72320  0.22950  Biso   1.000  C
  H81      1.0000 0.87500  0.05660  0.01020  Biso   1.000  H
  H82      1.0000 0.12500  0.94340  0.01020  Biso   1.000  H
  H83      1.0000 0.12500  0.19340  0.26020  Biso   1.000  H
  H84      1.0000 0.37500  0.30660  0.26020  Biso   1.000  H
  H85      1.0000 0.87500  0.55660  0.51020  Biso   1.000  H
  H86      1.0000 0.12500  0.44340  0.51020  Biso   1.000  H
  H87      1.0000 0.12500  0.69340  0.76020  Biso   1.000  H
  H88      1.0000 0.37500  0.80660  0.76020  Biso   1.000  H
  H89      1.0000 0.37500  0.05660  0.51020  Biso   1.000  H
  H90      1.0000 0.62500  0.94340  0.51020  Biso   1.000  H
  H91      1.0000 0.62500  0.19340  0.76020  Biso   1.000  H
  H92      1.0000 0.87500  0.30660  0.76020  Biso   1.000  H
  H93      1.0000 0.37500  0.55660  0.01020  Biso   1.000  H
  H94      1.0000 0.62500  0.44340  0.01020  Biso   1.000  H
  H95      1.0000 0.62500  0.69340  0.26020  Biso   1.000  H
  H96      1.0000 0.87500  0.80660  0.26020  Biso   1.000  H
  O49      1.0000 0.88919  0.52650  0.80790  Biso   1.000  O
  O50      1.0000 0.11081  0.47350  0.80790  Biso   1.000  O
  O51      1.0000 0.13919  0.72350  0.05790  Biso   1.000  O
  O52      1.0000 0.36081  0.77650  0.05790  Biso   1.000  O
  O53      1.0000 0.88919  0.02650  0.30790  Biso   1.000  O
  O54      1.0000 0.11081  0.97350  0.30790  Biso   1.000  O
  O55      1.0000 0.13919  0.22350  0.55790  Biso   1.000  O
  O56      1.0000 0.36081  0.27650  0.55790  Biso   1.000  O
  O57      1.0000 0.38919  0.52650  0.30790  Biso   1.000  O
  O58      1.0000 0.61081  0.47350  0.30790  Biso   1.000  O
  O59      1.0000 0.63919  0.72350  0.55790  Biso   1.000  O
  O60      1.0000 0.86081  0.77650  0.55790  Biso   1.000  O
  O61      1.0000 0.38919  0.02650  0.80790  Biso   1.000  O
  O62      1.0000 0.61081  0.97350  0.80790  Biso   1.000  O
  O63      1.0000 0.63919  0.22350  0.05790  Biso   1.000  O
  O64      1.0000 0.86081  0.27650  0.05790  Biso   1.000  O
  C169     1.0000 0.84173  0.91920  0.95940  Biso   1.000  C
  C170     1.0000 0.15827  0.08080  0.95940  Biso   1.000  C
  C171     1.0000 0.09173  0.33080  0.20940  Biso   1.000  C
  C172     1.0000 0.40827  0.16920  0.20940  Biso   1.000  C
  C173     1.0000 0.84173  0.41920  0.45940  Biso   1.000  C
  C174     1.0000 0.15827  0.58080  0.45940  Biso   1.000  C
  C175     1.0000 0.09173  0.83080  0.70940  Biso   1.000  C
  C176     1.0000 0.40827  0.66920  0.70940  Biso   1.000  C
  C177     1.0000 0.34173  0.91920  0.45940  Biso   1.000  C
  C178     1.0000 0.65827  0.08080  0.45940  Biso   1.000  C
  C179     1.0000 0.59173  0.33080  0.70940  Biso   1.000  C
  C180     1.0000 0.90827  0.16920  0.70940  Biso   1.000  C
  C181     1.0000 0.34173  0.41920  0.95940  Biso   1.000  C
  C182     1.0000 0.65827  0.58080  0.95940  Biso   1.000  C
  C183     1.0000 0.59173  0.83080  0.20940  Biso   1.000  C
  C184     1.0000 0.90827  0.66920  0.20940  Biso   1.000  C
  H97      1.0000 0.82240  0.96560  0.97860  Biso   1.000  H
  H98      1.0000 0.17760  0.03440  0.97860  Biso   1.000  H
  H99      1.0000 0.07240  0.28440  0.22860  Biso   1.000  H
  H100     1.0000 0.42760  0.21560  0.22860  Biso   1.000  H
  H101     1.0000 0.82240  0.46560  0.47860  Biso   1.000  H
  H102     1.0000 0.17760  0.53440  0.47860  Biso   1.000  H
  H103     1.0000 0.07240  0.78440  0.72860  Biso   1.000  H
  H104     1.0000 0.42760  0.71560  0.72860  Biso   1.000  H
  H105     1.0000 0.32240  0.96560  0.47860  Biso   1.000  H
  H106     1.0000 0.67760  0.03440  0.47860  Biso   1.000  H
  H107     1.0000 0.57240  0.28440  0.72860  Biso   1.000  H
  H108     1.0000 0.92760  0.21560  0.72860  Biso   1.000  H
  H109     1.0000 0.32240  0.46560  0.97860  Biso   1.000  H
  H110     1.0000 0.67760  0.53440  0.97860  Biso   1.000  H
  H111     1.0000 0.57240  0.78440  0.22860  Biso   1.000  H
  H112     1.0000 0.92760  0.71560  0.22860  Biso   1.000  H
  C185     1.0000 0.83912  0.79650  0.91080  Biso   1.000  C
  C186     1.0000 0.16088  0.20350  0.91080  Biso   1.000  C
  C187     1.0000 0.08912  0.45350  0.16080  Biso   1.000  C
  C188     1.0000 0.41088  0.04650  0.16080  Biso   1.000  C
  C189     1.0000 0.83912  0.29650  0.41080  Biso   1.000  C
  C190     1.0000 0.16088  0.70350  0.41080  Biso   1.000  C
  C191     1.0000 0.08912  0.95350  0.66080  Biso   1.000  C
  C192     1.0000 0.41088  0.54650  0.66080  Biso   1.000  C
  C193     1.0000 0.33912  0.79650  0.41080  Biso   1.000  C
  C194     1.0000 0.66088  0.20350  0.41080  Biso   1.000  C
  C195     1.0000 0.58912  0.45350  0.66080  Biso   1.000  C
  C196     1.0000 0.91088  0.04650  0.66080  Biso   1.000  C
  C197     1.0000 0.33912  0.29650  0.91080  Biso   1.000  C
  C198     1.0000 0.66088  0.70350  0.91080  Biso   1.000  C
  C199     1.0000 0.58912  0.95350  0.16080  Biso   1.000  C
  C200     1.0000 0.91088  0.54650  0.16080  Biso   1.000  C
  H113     1.0000 0.81800  0.76140  0.89610  Biso   1.000  H
  H114     1.0000 0.18200  0.23860  0.89610  Biso   1.000  H
  H115     1.0000 0.06800  0.48860  0.14610  Biso   1.000  H
  H116     1.0000 0.43200  0.01140  0.14610  Biso   1.000  H
  H117     1.0000 0.81800  0.26140  0.39610  Biso   1.000  H
  H118     1.0000 0.18200  0.73860  0.39610  Biso   1.000  H
  H119     1.0000 0.06800  0.98860  0.64610  Biso   1.000  H
  H120     1.0000 0.43200  0.51140  0.64610  Biso   1.000  H
  H121     1.0000 0.31800  0.76140  0.39610  Biso   1.000  H
  H122     1.0000 0.68200  0.23860  0.39610  Biso   1.000  H
  H123     1.0000 0.56800  0.48860  0.64610  Biso   1.000  H
  H124     1.0000 0.93200  0.01140  0.64610  Biso   1.000  H
  H125     1.0000 0.31800  0.26140  0.89610  Biso   1.000  H
  H126     1.0000 0.68200  0.73860  0.89610  Biso   1.000  H
  H127     1.0000 0.56800  0.98860  0.14610  Biso   1.000  H
  H128     1.0000 0.93200  0.51140  0.14610  Biso   1.000  H
  C201     1.0000 0.00000  0.00000  0.56530  Biso   1.000  C
  C202     1.0000 0.25000  0.25000  0.81530  Biso   1.000  C
  C203     1.0000 0.00000  0.50000  0.06530  Biso   1.000  C
  C204     1.0000 0.25000  0.75000  0.31530  Biso   1.000  C
  C205     1.0000 0.50000  0.00000  0.06530  Biso   1.000  C
  C206     1.0000 0.75000  0.25000  0.31530  Biso   1.000  C
  C207     1.0000 0.50000  0.50000  0.56530  Biso   1.000  C
  C208     1.0000 0.75000  0.75000  0.81530  Biso   1.000  C
  H129     1.0000 0.83100  0.48600  0.79400  Biso   1.000  H
  H130     1.0000 0.16900  0.51400  0.79400  Biso   1.000  H
  H131     1.0000 0.08100  0.76400  0.04400  Biso   1.000  H
  H132     1.0000 0.41900  0.73600  0.04400  Biso   1.000  H
  H133     1.0000 0.83100  0.98600  0.29400  Biso   1.000  H
  H134     1.0000 0.16900  0.01400  0.29400  Biso   1.000  H
  H135     1.0000 0.08100  0.26400  0.54400  Biso   1.000  H
  H136     1.0000 0.41900  0.23600  0.54400  Biso   1.000  H
  H137     1.0000 0.33100  0.48600  0.29400  Biso   1.000  H
  H138     1.0000 0.66900  0.51400  0.29400  Biso   1.000  H
  H139     1.0000 0.58100  0.76400  0.54400  Biso   1.000  H
  H140     1.0000 0.91900  0.73600  0.54400  Biso   1.000  H
  H141     1.0000 0.33100  0.98600  0.79400  Biso   1.000  H
  H142     1.0000 0.66900  0.01400  0.79400  Biso   1.000  H
  H143     1.0000 0.58100  0.26400  0.04400  Biso   1.000  H
  H144     1.0000 0.91900  0.23600  0.04400  Biso   1.000  H
