data_image0
_cell_length_a       23.3806
_cell_length_b       11.1291
_cell_length_c       16.7895
_cell_angle_alpha    90
_cell_angle_beta     122.808
_cell_angle_gamma    90

_symmetry_space_group_name_H-M    "P 1"
_symmetry_int_tables_number       1

loop_
  _symmetry_equiv_pos_as_xyz
  'x, y, z'

loop_
  _atom_site_label
  _atom_site_occupancy
  _atom_site_fract_x
  _atom_site_fract_y
  _atom_site_fract_z
  _atom_site_thermal_displace_type
  _atom_site_B_iso_or_equiv
  _atom_site_type_symbol
  Cu1      1.0000 0.69121  0.26455  0.35362  Biso   1.000  Cu
  Cu2      1.0000 0.19121  0.76455  0.35362  Biso   1.000  Cu
  Cu3      1.0000 0.30879  0.26455  0.14638  Biso   1.000  Cu
  Cu4      1.0000 0.80879  0.76455  0.14638  Biso   1.000  Cu
  Cu5      1.0000 0.30879  0.73545  0.64638  Biso   1.000  Cu
  Cu6      1.0000 0.80879  0.23545  0.64638  Biso   1.000  Cu
  Cu7      1.0000 0.69121  0.73545  0.85362  Biso   1.000  Cu
  Cu8      1.0000 0.19121  0.23545  0.85362  Biso   1.000  Cu
  N1       1.0000 0.69370  0.08260  0.35910  Biso   1.000  N
  N2       1.0000 0.19370  0.58260  0.35910  Biso   1.000  N
  N3       1.0000 0.30630  0.08260  0.14090  Biso   1.000  N
  N4       1.0000 0.80630  0.58260  0.14090  Biso   1.000  N
  N5       1.0000 0.30630  0.91740  0.64090  Biso   1.000  N
  N6       1.0000 0.80630  0.41740  0.64090  Biso   1.000  N
  N7       1.0000 0.69370  0.91740  0.85910  Biso   1.000  N
  N8       1.0000 0.19370  0.41740  0.85910  Biso   1.000  N
  C1       1.0000 0.83770  0.27140  0.46930  Biso   1.000  C
  C2       1.0000 0.33770  0.77140  0.46930  Biso   1.000  C
  C3       1.0000 0.16230  0.27140  0.03070  Biso   1.000  C
  C4       1.0000 0.66230  0.77140  0.03070  Biso   1.000  C
  C5       1.0000 0.16230  0.72860  0.53070  Biso   1.000  C
  C6       1.0000 0.66230  0.22860  0.53070  Biso   1.000  C
  C7       1.0000 0.83770  0.72860  0.96930  Biso   1.000  C
  C8       1.0000 0.33770  0.22860  0.96930  Biso   1.000  C
  O1       1.0000 0.78566  0.27880  0.38610  Biso   1.000  O
  O2       1.0000 0.28566  0.77880  0.38610  Biso   1.000  O
  O3       1.0000 0.21434  0.27880  0.11390  Biso   1.000  O
  O4       1.0000 0.71434  0.77880  0.11390  Biso   1.000  O
  O5       1.0000 0.21434  0.72120  0.61390  Biso   1.000  O
  O6       1.0000 0.71434  0.22120  0.61390  Biso   1.000  O
  O7       1.0000 0.78566  0.72120  0.88610  Biso   1.000  O
  O8       1.0000 0.28566  0.22120  0.88610  Biso   1.000  O
  C9       1.0000 0.64280  0.02310  0.35590  Biso   1.000  C
  C10      1.0000 0.14280  0.52310  0.35590  Biso   1.000  C
  C11      1.0000 0.35720  0.02310  0.14410  Biso   1.000  C
  C12      1.0000 0.85720  0.52310  0.14410  Biso   1.000  C
  C13      1.0000 0.35720  0.97690  0.64410  Biso   1.000  C
  C14      1.0000 0.85720  0.47690  0.64410  Biso   1.000  C
  C15      1.0000 0.64280  0.97690  0.85590  Biso   1.000  C
  C16      1.0000 0.14280  0.47690  0.85590  Biso   1.000  C
  H1       1.0000 0.60820  0.06710  0.35380  Biso   1.000  H
  H2       1.0000 0.10820  0.56710  0.35380  Biso   1.000  H
  H3       1.0000 0.39180  0.06710  0.14620  Biso   1.000  H
  H4       1.0000 0.89180  0.56710  0.14620  Biso   1.000  H
  H5       1.0000 0.39180  0.93290  0.64620  Biso   1.000  H
  H6       1.0000 0.89180  0.43290  0.64620  Biso   1.000  H
  H7       1.0000 0.60820  0.93290  0.85380  Biso   1.000  H
  H8       1.0000 0.10820  0.43290  0.85380  Biso   1.000  H
  O9       1.0000 0.83810  0.23930  0.54050  Biso   1.000  O
  O10      1.0000 0.33810  0.73930  0.54050  Biso   1.000  O
  O11      1.0000 0.16190  0.23930  0.95950  Biso   1.000  O
  O12      1.0000 0.66190  0.73930  0.95950  Biso   1.000  O
  O13      1.0000 0.16190  0.76070  0.45950  Biso   1.000  O
  O14      1.0000 0.66190  0.26070  0.45950  Biso   1.000  O
  O15      1.0000 0.83810  0.76070  0.04050  Biso   1.000  O
  O16      1.0000 0.33810  0.26070  0.04050  Biso   1.000  O
  C17      1.0000 0.69000  0.83100  0.35750  Biso   1.000  C
  C18      1.0000 0.19000  0.33100  0.35750  Biso   1.000  C
  C19      1.0000 0.31000  0.83100  0.14250  Biso   1.000  C
  C20      1.0000 0.81000  0.33100  0.14250  Biso   1.000  C
  C21      1.0000 0.31000  0.16900  0.64250  Biso   1.000  C
  C22      1.0000 0.81000  0.66900  0.64250  Biso   1.000  C
  C23      1.0000 0.69000  0.16900  0.85750  Biso   1.000  C
  C24      1.0000 0.19000  0.66900  0.85750  Biso   1.000  C
  C25      1.0000 0.63930  0.89890  0.35550  Biso   1.000  C
  C26      1.0000 0.13930  0.39890  0.35550  Biso   1.000  C
  C27      1.0000 0.36070  0.89890  0.14450  Biso   1.000  C
  C28      1.0000 0.86070  0.39890  0.14450  Biso   1.000  C
  C29      1.0000 0.36070  0.10110  0.64450  Biso   1.000  C
  C30      1.0000 0.86070  0.60110  0.64450  Biso   1.000  C
  C31      1.0000 0.63930  0.10110  0.85550  Biso   1.000  C
  C32      1.0000 0.13930  0.60110  0.85550  Biso   1.000  C
  H9       1.0000 0.60330  0.86100  0.35380  Biso   1.000  H
  H10      1.0000 0.10330  0.36100  0.35380  Biso   1.000  H
  H11      1.0000 0.39670  0.86100  0.14620  Biso   1.000  H
  H12      1.0000 0.89670  0.36100  0.14620  Biso   1.000  H
  H13      1.0000 0.39670  0.13900  0.64620  Biso   1.000  H
  H14      1.0000 0.89670  0.63900  0.64620  Biso   1.000  H
  H15      1.0000 0.60330  0.13900  0.85380  Biso   1.000  H
  H16      1.0000 0.10330  0.63900  0.85380  Biso   1.000  H
  C33      1.0000 0.96520  0.27860  0.56780  Biso   1.000  C
  C34      1.0000 0.46520  0.77860  0.56780  Biso   1.000  C
  C35      1.0000 0.03480  0.27860  0.93220  Biso   1.000  C
  C36      1.0000 0.53480  0.77860  0.93220  Biso   1.000  C
  C37      1.0000 0.03480  0.72140  0.43220  Biso   1.000  C
  C38      1.0000 0.53480  0.22140  0.43220  Biso   1.000  C
  C39      1.0000 0.96520  0.72140  0.06780  Biso   1.000  C
  C40      1.0000 0.46520  0.22140  0.06780  Biso   1.000  C
  H17      1.0000 0.96300  0.25230  0.61870  Biso   1.000  H
  H18      1.0000 0.46300  0.75230  0.61870  Biso   1.000  H
  H19      1.0000 0.03700  0.25230  0.88130  Biso   1.000  H
  H20      1.0000 0.53700  0.75230  0.88130  Biso   1.000  H
  H21      1.0000 0.03700  0.74770  0.38130  Biso   1.000  H
  H22      1.0000 0.53700  0.24770  0.38130  Biso   1.000  H
  H23      1.0000 0.96300  0.74770  0.11870  Biso   1.000  H
  H24      1.0000 0.46300  0.24770  0.11870  Biso   1.000  H
  C41      1.0000 0.74250  0.89380  0.36030  Biso   1.000  C
  C42      1.0000 0.24250  0.39380  0.36030  Biso   1.000  C
  C43      1.0000 0.25750  0.89380  0.13970  Biso   1.000  C
  C44      1.0000 0.75750  0.39380  0.13970  Biso   1.000  C
  C45      1.0000 0.25750  0.10620  0.63970  Biso   1.000  C
  C46      1.0000 0.75750  0.60620  0.63970  Biso   1.000  C
  C47      1.0000 0.74250  0.10620  0.86030  Biso   1.000  C
  C48      1.0000 0.24250  0.60620  0.86030  Biso   1.000  C
  H25      1.0000 0.77750  0.85250  0.36140  Biso   1.000  H
  H26      1.0000 0.27750  0.35250  0.36140  Biso   1.000  H
  H27      1.0000 0.22250  0.85250  0.13860  Biso   1.000  H
  H28      1.0000 0.72250  0.35250  0.13860  Biso   1.000  H
  H29      1.0000 0.22250  0.14750  0.63860  Biso   1.000  H
  H30      1.0000 0.72250  0.64750  0.63860  Biso   1.000  H
  H31      1.0000 0.77750  0.14750  0.86140  Biso   1.000  H
  H32      1.0000 0.27750  0.64750  0.86140  Biso   1.000  H
  C49      1.0000 0.90530  0.30090  0.48140  Biso   1.000  C
  C50      1.0000 0.40530  0.80090  0.48140  Biso   1.000  C
  C51      1.0000 0.09470  0.30090  0.01860  Biso   1.000  C
  C52      1.0000 0.59470  0.80090  0.01860  Biso   1.000  C
  C53      1.0000 0.09470  0.69910  0.51860  Biso   1.000  C
  C54      1.0000 0.59470  0.19910  0.51860  Biso   1.000  C
  C55      1.0000 0.90530  0.69910  0.98140  Biso   1.000  C
  C56      1.0000 0.40530  0.19910  0.98140  Biso   1.000  C
  C57      1.0000 0.02830  0.29480  0.57960  Biso   1.000  C
  C58      1.0000 0.52830  0.79480  0.57960  Biso   1.000  C
  C59      1.0000 0.97170  0.29480  0.92040  Biso   1.000  C
  C60      1.0000 0.47170  0.79480  0.92040  Biso   1.000  C
  C61      1.0000 0.97170  0.70520  0.42040  Biso   1.000  C
  C62      1.0000 0.47170  0.20520  0.42040  Biso   1.000  C
  C63      1.0000 0.02830  0.70520  0.07960  Biso   1.000  C
  C64      1.0000 0.52830  0.20520  0.07960  Biso   1.000  C
  C65      1.0000 0.74250  0.01750  0.36140  Biso   1.000  C
  C66      1.0000 0.24250  0.51750  0.36140  Biso   1.000  C
  C67      1.0000 0.25750  0.01750  0.13860  Biso   1.000  C
  C68      1.0000 0.75750  0.51750  0.13860  Biso   1.000  C
  C69      1.0000 0.25750  0.98250  0.63860  Biso   1.000  C
  C70      1.0000 0.75750  0.48250  0.63860  Biso   1.000  C
  C71      1.0000 0.74250  0.98250  0.86140  Biso   1.000  C
  C72      1.0000 0.24250  0.48250  0.86140  Biso   1.000  C
  H33      1.0000 0.77830  0.05770  0.36390  Biso   1.000  H
  H34      1.0000 0.27830  0.55770  0.36390  Biso   1.000  H
  H35      1.0000 0.22170  0.05770  0.13610  Biso   1.000  H
  H36      1.0000 0.72170  0.55770  0.13610  Biso   1.000  H
  H37      1.0000 0.22170  0.94230  0.63610  Biso   1.000  H
  H38      1.0000 0.72170  0.44230  0.63610  Biso   1.000  H
  H39      1.0000 0.77830  0.94230  0.86390  Biso   1.000  H
  H40      1.0000 0.27830  0.44230  0.86390  Biso   1.000  H
  C73      1.0000 0.03030  0.33790  0.50280  Biso   1.000  C
  C74      1.0000 0.53030  0.83790  0.50280  Biso   1.000  C
  C75      1.0000 0.96970  0.33790  0.99720  Biso   1.000  C
  C76      1.0000 0.46970  0.83790  0.99720  Biso   1.000  C
  C77      1.0000 0.96970  0.66210  0.49720  Biso   1.000  C
  C78      1.0000 0.46970  0.16210  0.49720  Biso   1.000  C
  C79      1.0000 0.03030  0.66210  0.00280  Biso   1.000  C
  C80      1.0000 0.53030  0.16210  0.00280  Biso   1.000  C
  H41      1.0000 0.07200  0.34940  0.50910  Biso   1.000  H
  H42      1.0000 0.57200  0.84940  0.50910  Biso   1.000  H
  H43      1.0000 0.92800  0.34940  0.99090  Biso   1.000  H
  H44      1.0000 0.42800  0.84940  0.99090  Biso   1.000  H
  H45      1.0000 0.92800  0.65060  0.49090  Biso   1.000  H
  H46      1.0000 0.42800  0.15060  0.49090  Biso   1.000  H
  H47      1.0000 0.07200  0.65060  0.00910  Biso   1.000  H
  H48      1.0000 0.57200  0.15060  0.00910  Biso   1.000  H
  C81      1.0000 0.97090  0.36350  0.41790  Biso   1.000  C
  C82      1.0000 0.47090  0.86350  0.41790  Biso   1.000  C
  C83      1.0000 0.02910  0.36350  0.08210  Biso   1.000  C
  C84      1.0000 0.52910  0.86350  0.08210  Biso   1.000  C
  C85      1.0000 0.02910  0.63650  0.58210  Biso   1.000  C
  C86      1.0000 0.52910  0.13650  0.58210  Biso   1.000  C
  C87      1.0000 0.97090  0.63650  0.91790  Biso   1.000  C
  C88      1.0000 0.47090  0.13650  0.91790  Biso   1.000  C
  H49      1.0000 0.97290  0.39440  0.36790  Biso   1.000  H
  H50      1.0000 0.47290  0.89440  0.36790  Biso   1.000  H
  H51      1.0000 0.02710  0.39440  0.13210  Biso   1.000  H
  H52      1.0000 0.52710  0.89440  0.13210  Biso   1.000  H
  H53      1.0000 0.02710  0.60560  0.63210  Biso   1.000  H
  H54      1.0000 0.52710  0.10560  0.63210  Biso   1.000  H
  H55      1.0000 0.97290  0.60560  0.86790  Biso   1.000  H
  H56      1.0000 0.47290  0.10560  0.86790  Biso   1.000  H
  C89      1.0000 0.90860  0.34380  0.40630  Biso   1.000  C
  C90      1.0000 0.40860  0.84380  0.40630  Biso   1.000  C
  C91      1.0000 0.09140  0.34380  0.09370  Biso   1.000  C
  C92      1.0000 0.59140  0.84380  0.09370  Biso   1.000  C
  C93      1.0000 0.09140  0.65620  0.59370  Biso   1.000  C
  C94      1.0000 0.59140  0.15620  0.59370  Biso   1.000  C
  C95      1.0000 0.90860  0.65620  0.90630  Biso   1.000  C
  C96      1.0000 0.40860  0.15620  0.90630  Biso   1.000  C
  H57      1.0000 0.86870  0.35930  0.34810  Biso   1.000  H
  H58      1.0000 0.36870  0.85930  0.34810  Biso   1.000  H
  H59      1.0000 0.13130  0.35930  0.15190  Biso   1.000  H
  H60      1.0000 0.63130  0.85930  0.15190  Biso   1.000  H
  H61      1.0000 0.13130  0.64070  0.65190  Biso   1.000  H
  H62      1.0000 0.63130  0.14070  0.65190  Biso   1.000  H
  H63      1.0000 0.86870  0.64070  0.84810  Biso   1.000  H
  H64      1.0000 0.36870  0.14070  0.84810  Biso   1.000  H
  N9       1.0000 0.68760  0.44590  0.35380  Biso   1.000  N
  N10      1.0000 0.18760  0.94590  0.35380  Biso   1.000  N
  N11      1.0000 0.31240  0.44590  0.14620  Biso   1.000  N
  N12      1.0000 0.81240  0.94590  0.14620  Biso   1.000  N
  N13      1.0000 0.31240  0.55410  0.64620  Biso   1.000  N
  N14      1.0000 0.81240  0.05410  0.64620  Biso   1.000  N
  N15      1.0000 0.68760  0.55410  0.85380  Biso   1.000  N
  N16      1.0000 0.18760  0.05410  0.85380  Biso   1.000  N
  C97      1.0000 0.68830  0.69770  0.35540  Biso   1.000  C
  C98      1.0000 0.18830  0.19770  0.35540  Biso   1.000  C
  C99      1.0000 0.31170  0.69770  0.14460  Biso   1.000  C
  C100     1.0000 0.81170  0.19770  0.14460  Biso   1.000  C
  C101     1.0000 0.31170  0.30230  0.64460  Biso   1.000  C
  C102     1.0000 0.81170  0.80230  0.64460  Biso   1.000  C
  C103     1.0000 0.68830  0.30230  0.85540  Biso   1.000  C
  C104     1.0000 0.18830  0.80230  0.85540  Biso   1.000  C
  C105     1.0000 0.65610  0.63260  0.39090  Biso   1.000  C
  C106     1.0000 0.15610  0.13260  0.39090  Biso   1.000  C
  C107     1.0000 0.34390  0.63260  0.10910  Biso   1.000  C
  C108     1.0000 0.84390  0.13260  0.10910  Biso   1.000  C
  C109     1.0000 0.34390  0.36740  0.60910  Biso   1.000  C
  C110     1.0000 0.84390  0.86740  0.60910  Biso   1.000  C
  C111     1.0000 0.65610  0.36740  0.89090  Biso   1.000  C
  C112     1.0000 0.15610  0.86740  0.89090  Biso   1.000  C
  H65      1.0000 0.63420  0.67240  0.41570  Biso   1.000  H
  H66      1.0000 0.13420  0.17240  0.41570  Biso   1.000  H
  H67      1.0000 0.36580  0.67240  0.08430  Biso   1.000  H
  H68      1.0000 0.86580  0.17240  0.08430  Biso   1.000  H
  H69      1.0000 0.36580  0.32760  0.58430  Biso   1.000  H
  H70      1.0000 0.86580  0.82760  0.58430  Biso   1.000  H
  H71      1.0000 0.63420  0.32760  0.91570  Biso   1.000  H
  H72      1.0000 0.13420  0.82760  0.91570  Biso   1.000  H
  C113     1.0000 0.65670  0.50820  0.38910  Biso   1.000  C
  C114     1.0000 0.15670  0.00820  0.38910  Biso   1.000  C
  C115     1.0000 0.34330  0.50820  0.11090  Biso   1.000  C
  C116     1.0000 0.84330  0.00820  0.11090  Biso   1.000  C
  C117     1.0000 0.34330  0.49180  0.61090  Biso   1.000  C
  C118     1.0000 0.84330  0.99180  0.61090  Biso   1.000  C
  C119     1.0000 0.65670  0.49180  0.88910  Biso   1.000  C
  C120     1.0000 0.15670  0.99180  0.88910  Biso   1.000  C
  H73      1.0000 0.63500  0.46600  0.41320  Biso   1.000  H
  H74      1.0000 0.13500  0.96600  0.41320  Biso   1.000  H
  H75      1.0000 0.36500  0.46600  0.08680  Biso   1.000  H
  H76      1.0000 0.86500  0.96600  0.08680  Biso   1.000  H
  H77      1.0000 0.36500  0.53400  0.58680  Biso   1.000  H
  H78      1.0000 0.86500  0.03400  0.58680  Biso   1.000  H
  H79      1.0000 0.63500  0.53400  0.91320  Biso   1.000  H
  H80      1.0000 0.13500  0.03400  0.91320  Biso   1.000  H
  C121     1.0000 0.71740  0.50910  0.31810  Biso   1.000  C
  C122     1.0000 0.21740  0.00910  0.31810  Biso   1.000  C
  C123     1.0000 0.28260  0.50910  0.18190  Biso   1.000  C
  C124     1.0000 0.78260  0.00910  0.18190  Biso   1.000  C
  C125     1.0000 0.28260  0.49090  0.68190  Biso   1.000  C
  C126     1.0000 0.78260  0.99090  0.68190  Biso   1.000  C
  C127     1.0000 0.71740  0.49090  0.81810  Biso   1.000  C
  C128     1.0000 0.21740  0.99090  0.81810  Biso   1.000  C
  H81      1.0000 0.73810  0.46740  0.29230  Biso   1.000  H
  H82      1.0000 0.23810  0.96740  0.29230  Biso   1.000  H
  H83      1.0000 0.26190  0.46740  0.20770  Biso   1.000  H
  H84      1.0000 0.76190  0.96740  0.20770  Biso   1.000  H
  H85      1.0000 0.26190  0.53260  0.70770  Biso   1.000  H
  H86      1.0000 0.76190  0.03260  0.70770  Biso   1.000  H
  H87      1.0000 0.73810  0.53260  0.79230  Biso   1.000  H
  H88      1.0000 0.23810  0.03260  0.79230  Biso   1.000  H
  C129     1.0000 0.71900  0.63270  0.31760  Biso   1.000  C
  C130     1.0000 0.21900  0.13270  0.31760  Biso   1.000  C
  C131     1.0000 0.28100  0.63270  0.18240  Biso   1.000  C
  C132     1.0000 0.78100  0.13270  0.18240  Biso   1.000  C
  C133     1.0000 0.28100  0.36730  0.68240  Biso   1.000  C
  C134     1.0000 0.78100  0.86730  0.68240  Biso   1.000  C
  C135     1.0000 0.71900  0.36730  0.81760  Biso   1.000  C
  C136     1.0000 0.21900  0.86730  0.81760  Biso   1.000  C
  H89      1.0000 0.74040  0.67260  0.29200  Biso   1.000  H
  H90      1.0000 0.24040  0.17260  0.29200  Biso   1.000  H
  H91      1.0000 0.25960  0.67260  0.20800  Biso   1.000  H
  H92      1.0000 0.75960  0.17260  0.20800  Biso   1.000  H
  H93      1.0000 0.25960  0.32740  0.70800  Biso   1.000  H
  H94      1.0000 0.75960  0.82740  0.70800  Biso   1.000  H
  H95      1.0000 0.74040  0.32740  0.79200  Biso   1.000  H
  H96      1.0000 0.24040  0.82740  0.79200  Biso   1.000  H
  O17      1.0000 0.09148  0.24720  0.74480  Biso   1.000  O
  O18      1.0000 0.59148  0.74720  0.74480  Biso   1.000  O
  O19      1.0000 0.90852  0.24720  0.75520  Biso   1.000  O
  O20      1.0000 0.40852  0.74720  0.75520  Biso   1.000  O
  O21      1.0000 0.90852  0.75280  0.25520  Biso   1.000  O
  O22      1.0000 0.40852  0.25280  0.25520  Biso   1.000  O
  O23      1.0000 0.09148  0.75280  0.24480  Biso   1.000  O
  O24      1.0000 0.59148  0.25280  0.24480  Biso   1.000  O
  O25      1.0000 0.14667  0.25430  0.67200  Biso   1.000  O
  O26      1.0000 0.64667  0.75430  0.67200  Biso   1.000  O
  O27      1.0000 0.85333  0.25430  0.82800  Biso   1.000  O
  O28      1.0000 0.35333  0.75430  0.82800  Biso   1.000  O
  O29      1.0000 0.85333  0.74570  0.32800  Biso   1.000  O
  O30      1.0000 0.35333  0.24570  0.32800  Biso   1.000  O
  O31      1.0000 0.14667  0.74570  0.17200  Biso   1.000  O
  O32      1.0000 0.64667  0.24570  0.17200  Biso   1.000  O
  C137     1.0000 0.09320  0.26420  0.67050  Biso   1.000  C
  C138     1.0000 0.59320  0.76420  0.67050  Biso   1.000  C
  C139     1.0000 0.90680  0.26420  0.82950  Biso   1.000  C
  C140     1.0000 0.40680  0.76420  0.82950  Biso   1.000  C
  C141     1.0000 0.90680  0.73580  0.32950  Biso   1.000  C
  C142     1.0000 0.40680  0.23580  0.32950  Biso   1.000  C
  C143     1.0000 0.09320  0.73580  0.17050  Biso   1.000  C
  C144     1.0000 0.59320  0.23580  0.17050  Biso   1.000  C
  O33      1.0000 0.00000  0.09190  0.75000  Biso   1.000  O
  O34      1.0000 0.50000  0.59190  0.75000  Biso   1.000  O
  O35      1.0000 0.00000  0.90810  0.25000  Biso   1.000  O
  O36      1.0000 0.50000  0.40810  0.25000  Biso   1.000  O
  O37      1.0000 0.50000  0.73380  0.25000  Biso   1.000  O
  O38      1.0000 0.00000  0.23380  0.25000  Biso   1.000  O
  O39      1.0000 0.50000  0.26620  0.75000  Biso   1.000  O
  O40      1.0000 0.00000  0.76620  0.75000  Biso   1.000  O
  O41      1.0000 0.09730  0.01070  0.56980  Biso   1.000  O
  O42      1.0000 0.59730  0.51070  0.56980  Biso   1.000  O
  O43      1.0000 0.90270  0.01070  0.93020  Biso   1.000  O
  O44      1.0000 0.40270  0.51070  0.93020  Biso   1.000  O
  O45      1.0000 0.90270  0.98930  0.43020  Biso   1.000  O
  O46      1.0000 0.40270  0.48930  0.43020  Biso   1.000  O
  O47      1.0000 0.09730  0.98930  0.06980  Biso   1.000  O
  O48      1.0000 0.59730  0.48930  0.06980  Biso   1.000  O
  O49      1.0000 0.99890  0.05950  0.37790  Biso   1.000  O
  O50      1.0000 0.49890  0.55950  0.37790  Biso   1.000  O
  O51      1.0000 0.00110  0.05950  0.12210  Biso   1.000  O
  O52      1.0000 0.50110  0.55950  0.12210  Biso   1.000  O
  O53      1.0000 0.00110  0.94050  0.62210  Biso   1.000  O
  O54      1.0000 0.50110  0.44050  0.62210  Biso   1.000  O
  O55      1.0000 0.99890  0.94050  0.87790  Biso   1.000  O
  O56      1.0000 0.49890  0.44050  0.87790  Biso   1.000  O
  H97      1.0000 0.49900  0.70200  0.20400  Biso   1.000  H
  H98      1.0000 0.99900  0.20200  0.20400  Biso   1.000  H
  H99      1.0000 0.50100  0.70200  0.29600  Biso   1.000  H
  H100     1.0000 0.00100  0.20200  0.29600  Biso   1.000  H
  H101     1.0000 0.50100  0.29800  0.79600  Biso   1.000  H
  H102     1.0000 0.00100  0.79800  0.79600  Biso   1.000  H
  H103     1.0000 0.49900  0.29800  0.70400  Biso   1.000  H
  H104     1.0000 0.99900  0.79800  0.70400  Biso   1.000  H
  H105     1.0000 0.96900  0.13500  0.74400  Biso   1.000  H
  H106     1.0000 0.46900  0.63500  0.74400  Biso   1.000  H
  H107     1.0000 0.03100  0.13500  0.75600  Biso   1.000  H
  H108     1.0000 0.53100  0.63500  0.75600  Biso   1.000  H
  H109     1.0000 0.03100  0.86500  0.25600  Biso   1.000  H
  H110     1.0000 0.53100  0.36500  0.25600  Biso   1.000  H
  H111     1.0000 0.96900  0.86500  0.24400  Biso   1.000  H
  H112     1.0000 0.46900  0.36500  0.24400  Biso   1.000  H
  H113     1.0000 0.01000  0.00100  0.42800  Biso   1.000  H
  H114     1.0000 0.51000  0.50100  0.42800  Biso   1.000  H
  H115     1.0000 0.99000  0.00100  0.07200  Biso   1.000  H
  H116     1.0000 0.49000  0.50100  0.07200  Biso   1.000  H
  H117     1.0000 0.99000  0.99900  0.57200  Biso   1.000  H
  H118     1.0000 0.49000  0.49900  0.57200  Biso   1.000  H
  H119     1.0000 0.01000  0.99900  0.92800  Biso   1.000  H
  H120     1.0000 0.51000  0.49900  0.92800  Biso   1.000  H
  H121     1.0000 0.04800  0.01400  0.55400  Biso   1.000  H
  H122     1.0000 0.54800  0.51400  0.55400  Biso   1.000  H
  H123     1.0000 0.95200  0.01400  0.94600  Biso   1.000  H
  H124     1.0000 0.45200  0.51400  0.94600  Biso   1.000  H
  H125     1.0000 0.95200  0.98600  0.44600  Biso   1.000  H
  H126     1.0000 0.45200  0.48600  0.44600  Biso   1.000  H
  H127     1.0000 0.04800  0.98600  0.05400  Biso   1.000  H
  H128     1.0000 0.54800  0.48600  0.05400  Biso   1.000  H
  H129     1.0000 0.96300  0.07800  0.39600  Biso   1.000  H
  H130     1.0000 0.46300  0.57800  0.39600  Biso   1.000  H
  H131     1.0000 0.03700  0.07800  0.10400  Biso   1.000  H
  H132     1.0000 0.53700  0.57800  0.10400  Biso   1.000  H
  H133     1.0000 0.03700  0.92200  0.60400  Biso   1.000  H
  H134     1.0000 0.53700  0.42200  0.60400  Biso   1.000  H
  H135     1.0000 0.96300  0.92200  0.89600  Biso   1.000  H
  H136     1.0000 0.46300  0.42200  0.89600  Biso   1.000  H
  H137     1.0000 0.08200  0.04300  0.51500  Biso   1.000  H
  H138     1.0000 0.58200  0.54300  0.51500  Biso   1.000  H
  H139     1.0000 0.91800  0.04300  0.98500  Biso   1.000  H
  H140     1.0000 0.41800  0.54300  0.98500  Biso   1.000  H
  H141     1.0000 0.91800  0.95700  0.48500  Biso   1.000  H
  H142     1.0000 0.41800  0.45700  0.48500  Biso   1.000  H
  H143     1.0000 0.08200  0.95700  0.01500  Biso   1.000  H
  H144     1.0000 0.58200  0.45700  0.01500  Biso   1.000  H
