data_image0
_cell_length_a       19.958
_cell_length_b       9.103
_cell_length_c       13.18
_cell_angle_alpha    90
_cell_angle_beta     120
_cell_angle_gamma    90

_symmetry_space_group_name_H-M    "P 1"
_symmetry_int_tables_number       1

loop_
  _symmetry_equiv_pos_as_xyz
  'x, y, z'

loop_
  _atom_site_label
  _atom_site_occupancy
  _atom_site_fract_x
  _atom_site_fract_y
  _atom_site_fract_z
  _atom_site_thermal_displace_type
  _atom_site_B_iso_or_equiv
  _atom_site_type_symbol
  Cu1      1.0000 0.00000  0.00000  0.00000  Biso   1.000  Cu
  Cu2      1.0000 0.50000  0.50000  0.00000  Biso   1.000  Cu
  Cu3      1.0000 0.00000  0.00000  0.50000  Biso   1.000  Cu
  Cu4      1.0000 0.50000  0.50000  0.50000  Biso   1.000  Cu
  Cu5      1.0000 0.00000  0.10810  0.75000  Biso   1.000  Cu
  Cu6      1.0000 0.50000  0.60810  0.75000  Biso   1.000  Cu
  Cu7      1.0000 0.00000  0.89190  0.25000  Biso   1.000  Cu
  Cu8      1.0000 0.50000  0.39190  0.25000  Biso   1.000  Cu
  N1       1.0000 0.97320  0.95940  0.83600  Biso   1.000  N
  N2       1.0000 0.47320  0.45940  0.83600  Biso   1.000  N
  N3       1.0000 0.02680  0.95940  0.66400  Biso   1.000  N
  N4       1.0000 0.52680  0.45940  0.66400  Biso   1.000  N
  N5       1.0000 0.02680  0.04060  0.16400  Biso   1.000  N
  N6       1.0000 0.52680  0.54060  0.16400  Biso   1.000  N
  N7       1.0000 0.97320  0.04060  0.33600  Biso   1.000  N
  N8       1.0000 0.47320  0.54060  0.33600  Biso   1.000  N
  N9       1.0000 0.94090  0.84480  0.79060  Biso   1.000  N
  N10      1.0000 0.44090  0.34480  0.79060  Biso   1.000  N
  N11      1.0000 0.05910  0.84480  0.70940  Biso   1.000  N
  N12      1.0000 0.55910  0.34480  0.70940  Biso   1.000  N
  N13      1.0000 0.05910  0.15520  0.20940  Biso   1.000  N
  N14      1.0000 0.55910  0.65520  0.20940  Biso   1.000  N
  N15      1.0000 0.94090  0.15520  0.29060  Biso   1.000  N
  N16      1.0000 0.44090  0.65520  0.29060  Biso   1.000  N
  N17      1.0000 0.90950  0.73680  0.74790  Biso   1.000  N
  N18      1.0000 0.40950  0.23680  0.74790  Biso   1.000  N
  N19      1.0000 0.09050  0.73680  0.75210  Biso   1.000  N
  N20      1.0000 0.59050  0.23680  0.75210  Biso   1.000  N
  N21      1.0000 0.09050  0.26320  0.25210  Biso   1.000  N
  N22      1.0000 0.59050  0.76320  0.25210  Biso   1.000  N
  N23      1.0000 0.90950  0.26320  0.24790  Biso   1.000  N
  N24      1.0000 0.40950  0.76320  0.24790  Biso   1.000  N
  N25      1.0000 0.16430  0.08310  0.01210  Biso   1.000  N
  N26      1.0000 0.66430  0.58310  0.01210  Biso   1.000  N
  N27      1.0000 0.83570  0.08310  0.48790  Biso   1.000  N
  N28      1.0000 0.33570  0.58310  0.48790  Biso   1.000  N
  N29      1.0000 0.83570  0.91690  0.98790  Biso   1.000  N
  N30      1.0000 0.33570  0.41690  0.98790  Biso   1.000  N
  N31      1.0000 0.16430  0.91690  0.51210  Biso   1.000  N
  N32      1.0000 0.66430  0.41690  0.51210  Biso   1.000  N
  O1       1.0000 0.12440  0.11100  0.05830  Biso   1.000  O
  O2       1.0000 0.62440  0.61100  0.05830  Biso   1.000  O
  O3       1.0000 0.87560  0.11100  0.44170  Biso   1.000  O
  O4       1.0000 0.37560  0.61100  0.44170  Biso   1.000  O
  O5       1.0000 0.87560  0.88900  0.94170  Biso   1.000  O
  O6       1.0000 0.37560  0.38900  0.94170  Biso   1.000  O
  O7       1.0000 0.12440  0.88900  0.55830  Biso   1.000  O
  O8       1.0000 0.62440  0.38900  0.55830  Biso   1.000  O
  O9       1.0000 0.13470  0.07900  0.90540  Biso   1.000  O
  O10      1.0000 0.63470  0.57900  0.90540  Biso   1.000  O
  O11      1.0000 0.86530  0.07900  0.59460  Biso   1.000  O
  O12      1.0000 0.36530  0.57900  0.59460  Biso   1.000  O
  O13      1.0000 0.86530  0.92100  0.09460  Biso   1.000  O
  O14      1.0000 0.36530  0.42100  0.09460  Biso   1.000  O
  O15      1.0000 0.13470  0.92100  0.40540  Biso   1.000  O
  O16      1.0000 0.63470  0.42100  0.40540  Biso   1.000  O
  O17      1.0000 0.23410  0.05850  0.07340  Biso   1.000  O
  O18      1.0000 0.73410  0.55850  0.07340  Biso   1.000  O
  O19      1.0000 0.76590  0.05850  0.42660  Biso   1.000  O
  O20      1.0000 0.26590  0.55850  0.42660  Biso   1.000  O
  O21      1.0000 0.76590  0.94150  0.92660  Biso   1.000  O
  O22      1.0000 0.26590  0.44150  0.92660  Biso   1.000  O
  O23      1.0000 0.23410  0.94150  0.57340  Biso   1.000  O
  O24      1.0000 0.73410  0.44150  0.57340  Biso   1.000  O
  O25      1.0000 0.94590  0.19570  0.95500  Biso   1.000  O
  O26      1.0000 0.44590  0.69570  0.95500  Biso   1.000  O
  O27      1.0000 0.05410  0.19570  0.54500  Biso   1.000  O
  O28      1.0000 0.55410  0.69570  0.54500  Biso   1.000  O
  O29      1.0000 0.05410  0.80430  0.04500  Biso   1.000  O
  O30      1.0000 0.55410  0.30430  0.04500  Biso   1.000  O
  O31      1.0000 0.94590  0.80430  0.45500  Biso   1.000  O
  O32      1.0000 0.44590  0.30430  0.45500  Biso   1.000  O
  O33      1.0000 0.95770  0.26890  0.80140  Biso   1.000  O
  O34      1.0000 0.45770  0.76890  0.80140  Biso   1.000  O
  O35      1.0000 0.04230  0.26890  0.69860  Biso   1.000  O
  O36      1.0000 0.54230  0.76890  0.69860  Biso   1.000  O
  O37      1.0000 0.04230  0.73110  0.19860  Biso   1.000  O
  O38      1.0000 0.54230  0.23110  0.19860  Biso   1.000  O
  O39      1.0000 0.95770  0.73110  0.30140  Biso   1.000  O
  O40      1.0000 0.45770  0.23110  0.30140  Biso   1.000  O
  C1       1.0000 0.93040  0.27650  0.86910  Biso   1.000  C
  C2       1.0000 0.43040  0.77650  0.86910  Biso   1.000  C
  C3       1.0000 0.06960  0.27650  0.63090  Biso   1.000  C
  C4       1.0000 0.56960  0.77650  0.63090  Biso   1.000  C
  C5       1.0000 0.06960  0.72350  0.13090  Biso   1.000  C
  C6       1.0000 0.56960  0.22350  0.13090  Biso   1.000  C
  C7       1.0000 0.93040  0.72350  0.36910  Biso   1.000  C
  C8       1.0000 0.43040  0.22350  0.36910  Biso   1.000  C
  C9       1.0000 0.87240  0.40200  0.83370  Biso   1.000  C
  C10      1.0000 0.37240  0.90200  0.83370  Biso   1.000  C
  C11      1.0000 0.12760  0.40200  0.66630  Biso   1.000  C
  C12      1.0000 0.62760  0.90200  0.66630  Biso   1.000  C
  C13      1.0000 0.12760  0.59800  0.16630  Biso   1.000  C
  C14      1.0000 0.62760  0.09800  0.16630  Biso   1.000  C
  C15      1.0000 0.87240  0.59800  0.33370  Biso   1.000  C
  C16      1.0000 0.37240  0.09800  0.33370  Biso   1.000  C
  N33      1.0000 0.84010  0.44170  0.91200  Biso   1.000  N
  N34      1.0000 0.34010  0.94170  0.91200  Biso   1.000  N
  N35      1.0000 0.15990  0.44170  0.58800  Biso   1.000  N
  N36      1.0000 0.65990  0.94170  0.58800  Biso   1.000  N
  N37      1.0000 0.15990  0.55830  0.08800  Biso   1.000  N
  N38      1.0000 0.65990  0.05830  0.08800  Biso   1.000  N
  N39      1.0000 0.84010  0.55830  0.41200  Biso   1.000  N
  N40      1.0000 0.34010  0.05830  0.41200  Biso   1.000  N
  C17      1.0000 0.90250  0.49880  0.02790  Biso   1.000  C
  C18      1.0000 0.40250  0.99880  0.02790  Biso   1.000  C
  C19      1.0000 0.09750  0.49880  0.47210  Biso   1.000  C
  C20      1.0000 0.59750  0.99880  0.47210  Biso   1.000  C
  C21      1.0000 0.09750  0.50120  0.97210  Biso   1.000  C
  C22      1.0000 0.59750  0.00120  0.97210  Biso   1.000  C
  C23      1.0000 0.90250  0.50120  0.52790  Biso   1.000  C
  C24      1.0000 0.40250  0.00120  0.52790  Biso   1.000  C
  C25      1.0000 0.79890  0.31650  0.92950  Biso   1.000  C
  C26      1.0000 0.29890  0.81650  0.92950  Biso   1.000  C
  C27      1.0000 0.20110  0.31650  0.57050  Biso   1.000  C
  C28      1.0000 0.70110  0.81650  0.57050  Biso   1.000  C
  C29      1.0000 0.20110  0.68350  0.07050  Biso   1.000  C
  C30      1.0000 0.70110  0.18350  0.07050  Biso   1.000  C
  C31      1.0000 0.79890  0.68350  0.42950  Biso   1.000  C
  C32      1.0000 0.29890  0.18350  0.42950  Biso   1.000  C
  C33      1.0000 0.78270  0.56470  0.85210  Biso   1.000  C
  C34      1.0000 0.28270  0.06470  0.85210  Biso   1.000  C
  C35      1.0000 0.21730  0.56470  0.64790  Biso   1.000  C
  C36      1.0000 0.71730  0.06470  0.64790  Biso   1.000  C
  C37      1.0000 0.21730  0.43530  0.14790  Biso   1.000  C
  C38      1.0000 0.71730  0.93530  0.14790  Biso   1.000  C
  C39      1.0000 0.78270  0.43530  0.35210  Biso   1.000  C
  C40      1.0000 0.28270  0.93530  0.35210  Biso   1.000  C
  H1       1.0000 0.82920  0.37660  0.75860  Biso   1.000  H
  H2       1.0000 0.32920  0.87660  0.75860  Biso   1.000  H
  H3       1.0000 0.17080  0.37660  0.74140  Biso   1.000  H
  H4       1.0000 0.67080  0.87660  0.74140  Biso   1.000  H
  H5       1.0000 0.17080  0.62340  0.24140  Biso   1.000  H
  H6       1.0000 0.67080  0.12340  0.24140  Biso   1.000  H
  H7       1.0000 0.82920  0.62340  0.25860  Biso   1.000  H
  H8       1.0000 0.32920  0.12340  0.25860  Biso   1.000  H
  H9       1.0000 0.89700  0.48950  0.82630  Biso   1.000  H
  H10      1.0000 0.39700  0.98950  0.82630  Biso   1.000  H
  H11      1.0000 0.10300  0.48950  0.67370  Biso   1.000  H
  H12      1.0000 0.60300  0.98950  0.67370  Biso   1.000  H
  H13      1.0000 0.10300  0.51050  0.17370  Biso   1.000  H
  H14      1.0000 0.60300  0.01050  0.17370  Biso   1.000  H
  H15      1.0000 0.89700  0.51050  0.32630  Biso   1.000  H
  H16      1.0000 0.39700  0.01050  0.32630  Biso   1.000  H
  H17      1.0000 0.93990  0.42200  0.06800  Biso   1.000  H
  H18      1.0000 0.43990  0.92200  0.06800  Biso   1.000  H
  H19      1.0000 0.06010  0.42200  0.43200  Biso   1.000  H
  H20      1.0000 0.56010  0.92200  0.43200  Biso   1.000  H
  H21      1.0000 0.06010  0.57800  0.93200  Biso   1.000  H
  H22      1.0000 0.56010  0.07800  0.93200  Biso   1.000  H
  H23      1.0000 0.93990  0.57800  0.56800  Biso   1.000  H
  H24      1.0000 0.43990  0.07800  0.56800  Biso   1.000  H
  H25      1.0000 0.88010  0.52860  0.07450  Biso   1.000  H
  H26      1.0000 0.38010  0.02860  0.07450  Biso   1.000  H
  H27      1.0000 0.11990  0.52860  0.42550  Biso   1.000  H
  H28      1.0000 0.61990  0.02860  0.42550  Biso   1.000  H
  H29      1.0000 0.11990  0.47140  0.92550  Biso   1.000  H
  H30      1.0000 0.61990  0.97140  0.92550  Biso   1.000  H
  H31      1.0000 0.88010  0.47140  0.57450  Biso   1.000  H
  H32      1.0000 0.38010  0.97140  0.57450  Biso   1.000  H
  H33      1.0000 0.92730  0.58240  0.01550  Biso   1.000  H
  H34      1.0000 0.42730  0.08240  0.01550  Biso   1.000  H
  H35      1.0000 0.07270  0.58240  0.48450  Biso   1.000  H
  H36      1.0000 0.57270  0.08240  0.48450  Biso   1.000  H
  H37      1.0000 0.07270  0.41760  0.98450  Biso   1.000  H
  H38      1.0000 0.57270  0.91760  0.98450  Biso   1.000  H
  H39      1.0000 0.92730  0.41760  0.51550  Biso   1.000  H
  H40      1.0000 0.42730  0.91760  0.51550  Biso   1.000  H
  H41      1.0000 0.83440  0.23640  0.96780  Biso   1.000  H
  H42      1.0000 0.33440  0.73640  0.96780  Biso   1.000  H
  H43      1.0000 0.16560  0.23640  0.53220  Biso   1.000  H
  H44      1.0000 0.66560  0.73640  0.53220  Biso   1.000  H
  H45      1.0000 0.16560  0.76360  0.03220  Biso   1.000  H
  H46      1.0000 0.66560  0.26360  0.03220  Biso   1.000  H
  H47      1.0000 0.83440  0.76360  0.46780  Biso   1.000  H
  H48      1.0000 0.33440  0.26360  0.46780  Biso   1.000  H
  H49      1.0000 0.75770  0.28340  0.85500  Biso   1.000  H
  H50      1.0000 0.25770  0.78340  0.85500  Biso   1.000  H
  H51      1.0000 0.24230  0.28340  0.64500  Biso   1.000  H
  H52      1.0000 0.74230  0.78340  0.64500  Biso   1.000  H
  H53      1.0000 0.24230  0.71660  0.14500  Biso   1.000  H
  H54      1.0000 0.74230  0.21660  0.14500  Biso   1.000  H
  H55      1.0000 0.75770  0.71660  0.35500  Biso   1.000  H
  H56      1.0000 0.25770  0.21660  0.35500  Biso   1.000  H
  H57      1.0000 0.77780  0.34860  0.97720  Biso   1.000  H
  H58      1.0000 0.27780  0.84860  0.97720  Biso   1.000  H
  H59      1.0000 0.22220  0.34860  0.52280  Biso   1.000  H
  H60      1.0000 0.72220  0.84860  0.52280  Biso   1.000  H
  H61      1.0000 0.22220  0.65140  0.02280  Biso   1.000  H
  H62      1.0000 0.72220  0.15140  0.02280  Biso   1.000  H
  H63      1.0000 0.77780  0.65140  0.47720  Biso   1.000  H
  H64      1.0000 0.27780  0.15140  0.47720  Biso   1.000  H
  H65      1.0000 0.80800  0.64740  0.83960  Biso   1.000  H
  H66      1.0000 0.30800  0.14740  0.83960  Biso   1.000  H
  H67      1.0000 0.19200  0.64740  0.66040  Biso   1.000  H
  H68      1.0000 0.69200  0.14740  0.66040  Biso   1.000  H
  H69      1.0000 0.19200  0.35260  0.16040  Biso   1.000  H
  H70      1.0000 0.69200  0.85260  0.16040  Biso   1.000  H
  H71      1.0000 0.80800  0.35260  0.33960  Biso   1.000  H
  H72      1.0000 0.30800  0.85260  0.33960  Biso   1.000  H
  H73      1.0000 0.76170  0.59530  0.90030  Biso   1.000  H
  H74      1.0000 0.26170  0.09530  0.90030  Biso   1.000  H
  H75      1.0000 0.23830  0.59530  0.59970  Biso   1.000  H
  H76      1.0000 0.73830  0.09530  0.59970  Biso   1.000  H
  H77      1.0000 0.23830  0.40470  0.09970  Biso   1.000  H
  H78      1.0000 0.73830  0.90470  0.09970  Biso   1.000  H
  H79      1.0000 0.76170  0.40470  0.40030  Biso   1.000  H
  H80      1.0000 0.26170  0.90470  0.40030  Biso   1.000  H
  H81      1.0000 0.74160  0.53000  0.77800  Biso   1.000  H
  H82      1.0000 0.24160  0.03000  0.77800  Biso   1.000  H
  H83      1.0000 0.25840  0.53000  0.72200  Biso   1.000  H
  H84      1.0000 0.75840  0.03000  0.72200  Biso   1.000  H
  H85      1.0000 0.25840  0.47000  0.22200  Biso   1.000  H
  H86      1.0000 0.75840  0.97000  0.22200  Biso   1.000  H
  H87      1.0000 0.74160  0.47000  0.27800  Biso   1.000  H
  H88      1.0000 0.24160  0.97000  0.27800  Biso   1.000  H
