data_image0
_cell_length_a       5.3361
_cell_length_b       22.343
_cell_length_c       8.9611
_cell_angle_alpha    90
_cell_angle_beta     99.768
_cell_angle_gamma    90

_symmetry_space_group_name_H-M    "P 1"
_symmetry_int_tables_number       1

loop_
  _symmetry_equiv_pos_as_xyz
  'x, y, z'

loop_
  _atom_site_label
  _atom_site_occupancy
  _atom_site_fract_x
  _atom_site_fract_y
  _atom_site_fract_z
  _atom_site_thermal_displace_type
  _atom_site_B_iso_or_equiv
  _atom_site_type_symbol
  Cu1      1.0000 0.85404  0.21313  0.61174  Biso   1.000  Cu
  Cu2      1.0000 0.64596  0.71313  0.88826  Biso   1.000  Cu
  Cu3      1.0000 0.14596  0.78687  0.38826  Biso   1.000  Cu
  Cu4      1.0000 0.35404  0.28687  0.11174  Biso   1.000  Cu
  O1       1.0000 0.66000  0.25152  0.43106  Biso   1.000  O
  O2       1.0000 0.84000  0.75152  0.06894  Biso   1.000  O
  O3       1.0000 0.34000  0.74848  0.56894  Biso   1.000  O
  O4       1.0000 0.16000  0.24848  0.93106  Biso   1.000  O
  O5       1.0000 0.57340  0.32901  0.27507  Biso   1.000  O
  O6       1.0000 0.92660  0.82901  0.22493  Biso   1.000  O
  O7       1.0000 0.42660  0.67099  0.72493  Biso   1.000  O
  O8       1.0000 0.07340  0.17099  0.77507  Biso   1.000  O
  O9       1.0000 0.13230  0.26921  0.59670  Biso   1.000  O
  O10      1.0000 0.36770  0.76921  0.90330  Biso   1.000  O
  O11      1.0000 0.86770  0.73079  0.40330  Biso   1.000  O
  O12      1.0000 0.63230  0.23079  0.09670  Biso   1.000  O
  O13      1.0000 0.27130  0.36227  0.60690  Biso   1.000  O
  O14      1.0000 0.22870  0.86227  0.89310  Biso   1.000  O
  O15      1.0000 0.72870  0.63773  0.39310  Biso   1.000  O
  O16      1.0000 0.77130  0.13773  0.10690  Biso   1.000  O
  O17      1.0000 0.62400  0.25813  0.75932  Biso   1.000  O
  O18      1.0000 0.87600  0.75813  0.74068  Biso   1.000  O
  O19      1.0000 0.37600  0.74187  0.24068  Biso   1.000  O
  O20      1.0000 0.12400  0.24187  0.25932  Biso   1.000  O
  N1       1.0000 0.62200  0.13957  0.57830  Biso   1.000  N
  N2       1.0000 0.87800  0.63957  0.92170  Biso   1.000  N
  N3       1.0000 0.37800  0.86043  0.42170  Biso   1.000  N
  N4       1.0000 0.12200  0.36043  0.07830  Biso   1.000  N
  N5       1.0000 0.09650  0.99765  0.54770  Biso   1.000  N
  N6       1.0000 0.40350  0.49765  0.95230  Biso   1.000  N
  N7       1.0000 0.90350  0.00235  0.45230  Biso   1.000  N
  N8       1.0000 0.59650  0.50235  0.04770  Biso   1.000  N
  C1       1.0000 0.67950  0.30610  0.39900  Biso   1.000  C
  C2       1.0000 0.82050  0.80610  0.10100  Biso   1.000  C
  C3       1.0000 0.32050  0.69390  0.60100  Biso   1.000  C
  C4       1.0000 0.17950  0.19390  0.89900  Biso   1.000  C
  C5       1.0000 0.83140  0.34841  0.51220  Biso   1.000  C
  C6       1.0000 0.66860  0.84841  0.98780  Biso   1.000  C
  C7       1.0000 0.16860  0.65159  0.48780  Biso   1.000  C
  C8       1.0000 0.33140  0.15159  0.01220  Biso   1.000  C
  H1       1.0000 0.73930  0.35470  0.59530  Biso   1.000  H
  H2       1.0000 0.76070  0.85470  0.90470  Biso   1.000  H
  H3       1.0000 0.26070  0.64530  0.40470  Biso   1.000  H
  H4       1.0000 0.23930  0.14530  0.09530  Biso   1.000  H
  H5       1.0000 0.84470  0.38680  0.46340  Biso   1.000  H
  H6       1.0000 0.65530  0.88680  0.03660  Biso   1.000  H
  H7       1.0000 0.15530  0.61320  0.53660  Biso   1.000  H
  H8       1.0000 0.34470  0.11320  0.96340  Biso   1.000  H
  C9       1.0000 0.09900  0.32619  0.57630  Biso   1.000  C
  C10      1.0000 0.40100  0.82619  0.92370  Biso   1.000  C
  C11      1.0000 0.90100  0.67381  0.42370  Biso   1.000  C
  C12      1.0000 0.59900  0.17381  0.07630  Biso   1.000  C
  C13      1.0000 0.63290  0.09683  0.68410  Biso   1.000  C
  C14      1.0000 0.86710  0.59683  0.81590  Biso   1.000  C
  C15      1.0000 0.36710  0.90317  0.31590  Biso   1.000  C
  C16      1.0000 0.13290  0.40317  0.18410  Biso   1.000  C
  H9       1.0000 0.76190  0.09870  0.76790  Biso   1.000  H
  H10      1.0000 0.73810  0.59870  0.73210  Biso   1.000  H
  H11      1.0000 0.23810  0.90130  0.23210  Biso   1.000  H
  H12      1.0000 0.26190  0.40130  0.26790  Biso   1.000  H
  C17      1.0000 0.46080  0.05015  0.67410  Biso   1.000  C
  C18      1.0000 0.03920  0.55015  0.82590  Biso   1.000  C
  C19      1.0000 0.53920  0.94985  0.32590  Biso   1.000  C
  C20      1.0000 0.96080  0.44985  0.17410  Biso   1.000  C
  H13      1.0000 0.47580  0.02090  0.74890  Biso   1.000  H
  H14      1.0000 0.02420  0.52090  0.75110  Biso   1.000  H
  H15      1.0000 0.52420  0.97910  0.25110  Biso   1.000  H
  H16      1.0000 0.97580  0.47910  0.24890  Biso   1.000  H
  C21      1.0000 0.26660  0.04766  0.55120  Biso   1.000  C
  C22      1.0000 0.23340  0.54766  0.94880  Biso   1.000  C
  C23      1.0000 0.73340  0.95234  0.44880  Biso   1.000  C
  C24      1.0000 0.76660  0.45234  0.05120  Biso   1.000  C
  C25      1.0000 0.25290  0.09104  0.43960  Biso   1.000  C
  C26      1.0000 0.24710  0.59104  0.06040  Biso   1.000  C
  C27      1.0000 0.74710  0.90896  0.56040  Biso   1.000  C
  C28      1.0000 0.75290  0.40896  0.93960  Biso   1.000  C
  H17      1.0000 0.12490  0.09000  0.35510  Biso   1.000  H
  H18      1.0000 0.37510  0.59000  0.14490  Biso   1.000  H
  H19      1.0000 0.87510  0.91000  0.64490  Biso   1.000  H
  H20      1.0000 0.62490  0.41000  0.85510  Biso   1.000  H
  C29      1.0000 0.43440  0.13588  0.45690  Biso   1.000  C
  C30      1.0000 0.06560  0.63588  0.04310  Biso   1.000  C
  C31      1.0000 0.56560  0.86412  0.54310  Biso   1.000  C
  C32      1.0000 0.93440  0.36412  0.95690  Biso   1.000  C
  H21      1.0000 0.42680  0.16480  0.38160  Biso   1.000  H
  H22      1.0000 0.07320  0.66480  0.11840  Biso   1.000  H
  H23      1.0000 0.57320  0.83520  0.61840  Biso   1.000  H
  H24      1.0000 0.92680  0.33520  0.88160  Biso   1.000  H
  H25      1.0000 0.48100  0.26600  0.72300  Biso   1.000  H
  H26      1.0000 0.01900  0.76600  0.77700  Biso   1.000  H
  H27      1.0000 0.51900  0.73400  0.27700  Biso   1.000  H
  H28      1.0000 0.98100  0.23400  0.22300  Biso   1.000  H
  H29      1.0000 0.62900  0.25550  0.84960  Biso   1.000  H
  H30      1.0000 0.87100  0.75550  0.65040  Biso   1.000  H
  H31      1.0000 0.37100  0.74450  0.15040  Biso   1.000  H
  H32      1.0000 0.12900  0.24450  0.34960  Biso   1.000  H
  O21      1.0000 0.25810  0.48171  0.52640  Biso   1.000  O
  O22      1.0000 0.24190  0.98171  0.97360  Biso   1.000  O
  O23      1.0000 0.74190  0.51829  0.47360  Biso   1.000  O
  O24      1.0000 0.75810  0.01829  0.02640  Biso   1.000  O
  H33      1.0000 0.29000  0.44640  0.53800  Biso   1.000  H
  H34      1.0000 0.21000  0.94640  0.96200  Biso   1.000  H
  H35      1.0000 0.71000  0.55360  0.46200  Biso   1.000  H
  H36      1.0000 0.79000  0.05360  0.03800  Biso   1.000  H
  H37      1.0000 0.13300  0.48600  0.56500  Biso   1.000  H
  H38      1.0000 0.36700  0.98600  0.93500  Biso   1.000  H
  H39      1.0000 0.86700  0.51400  0.43500  Biso   1.000  H
  H40      1.0000 0.63300  0.01400  0.06500  Biso   1.000  H
