data_image0
_cell_length_a       6.153
_cell_length_b       9.3407
_cell_length_c       13.5736
_cell_angle_alpha    90
_cell_angle_beta     100.826
_cell_angle_gamma    90

_symmetry_space_group_name_H-M    "P 1"
_symmetry_int_tables_number       1

loop_
  _symmetry_equiv_pos_as_xyz
  'x, y, z'

loop_
  _atom_site_label
  _atom_site_occupancy
  _atom_site_fract_x
  _atom_site_fract_y
  _atom_site_fract_z
  _atom_site_thermal_displace_type
  _atom_site_B_iso_or_equiv
  _atom_site_type_symbol
  Cu1      1.0000 0.50000  0.00000  0.50000  Biso   1.000  Cu
  Cu2      1.0000 0.00000  0.50000  0.00000  Biso   1.000  Cu
  O1       1.0000 0.99990  0.28410  0.19021  Biso   1.000  O
  O2       1.0000 0.50010  0.78410  0.30979  Biso   1.000  O
  O3       1.0000 0.00010  0.71590  0.80979  Biso   1.000  O
  O4       1.0000 0.49990  0.21590  0.69021  Biso   1.000  O
  O5       1.0000 0.21670  0.41874  0.11208  Biso   1.000  O
  O6       1.0000 0.28330  0.91874  0.38792  Biso   1.000  O
  O7       1.0000 0.78330  0.58126  0.88792  Biso   1.000  O
  O8       1.0000 0.71670  0.08126  0.61208  Biso   1.000  O
  O9       1.0000 0.93400  0.56490  0.33038  Biso   1.000  O
  O10      1.0000 0.56600  0.06490  0.16962  Biso   1.000  O
  O11      1.0000 0.06600  0.43510  0.66962  Biso   1.000  O
  O12      1.0000 0.43400  0.93510  0.83038  Biso   1.000  O
  O13      1.0000 0.09070  0.40733  0.43591  Biso   1.000  O
  O14      1.0000 0.40930  0.90733  0.06409  Biso   1.000  O
  O15      1.0000 0.90930  0.59267  0.56409  Biso   1.000  O
  O16      1.0000 0.59070  0.09267  0.93591  Biso   1.000  O
  O17      1.0000 0.82230  0.90007  0.45056  Biso   1.000  O
  O18      1.0000 0.67770  0.40007  0.04944  Biso   1.000  O
  O19      1.0000 0.17770  0.09993  0.54944  Biso   1.000  O
  O20      1.0000 0.32230  0.59993  0.95056  Biso   1.000  O
  H1       1.0000 0.93670  0.92690  0.42880  Biso   1.000  H
  H2       1.0000 0.56330  0.42690  0.07120  Biso   1.000  H
  H3       1.0000 0.06330  0.07310  0.57120  Biso   1.000  H
  H4       1.0000 0.43670  0.57310  0.92880  Biso   1.000  H
  H5       1.0000 0.74830  0.84590  0.40630  Biso   1.000  H
  H6       1.0000 0.75170  0.34590  0.09370  Biso   1.000  H
  H7       1.0000 0.25170  0.15410  0.59370  Biso   1.000  H
  H8       1.0000 0.24830  0.65410  0.90630  Biso   1.000  H
  N1       1.0000 0.52420  0.17890  0.41336  Biso   1.000  N
  N2       1.0000 0.97580  0.67890  0.08664  Biso   1.000  N
  N3       1.0000 0.47580  0.82110  0.58664  Biso   1.000  N
  N4       1.0000 0.02420  0.32110  0.91336  Biso   1.000  N
  N5       1.0000 0.93180  0.45440  0.37701  Biso   1.000  N
  N6       1.0000 0.56820  0.95440  0.12299  Biso   1.000  N
  N7       1.0000 0.06820  0.54560  0.62299  Biso   1.000  N
  N8       1.0000 0.43180  0.04560  0.87701  Biso   1.000  N
  C1       1.0000 0.36950  0.32180  0.27004  Biso   1.000  C
  C2       1.0000 0.13050  0.82180  0.22996  Biso   1.000  C
  C3       1.0000 0.63050  0.67820  0.72996  Biso   1.000  C
  C4       1.0000 0.86950  0.17820  0.77004  Biso   1.000  C
  C5       1.0000 0.35850  0.21170  0.33798  Biso   1.000  C
  C6       1.0000 0.14150  0.71170  0.16202  Biso   1.000  C
  C7       1.0000 0.64150  0.78830  0.66202  Biso   1.000  C
  C8       1.0000 0.85850  0.28830  0.83798  Biso   1.000  C
  H9       1.0000 0.22920  0.15800  0.33060  Biso   1.000  H
  H10      1.0000 0.27080  0.65800  0.16940  Biso   1.000  H
  H11      1.0000 0.77080  0.84200  0.66940  Biso   1.000  H
  H12      1.0000 0.72920  0.34200  0.83060  Biso   1.000  H
  C9       1.0000 0.70830  0.25880  0.42513  Biso   1.000  C
  C10      1.0000 0.79170  0.75880  0.07487  Biso   1.000  C
  C11      1.0000 0.29170  0.74120  0.57487  Biso   1.000  C
  C12      1.0000 0.20830  0.24120  0.92513  Biso   1.000  C
  H13      1.0000 0.82590  0.23790  0.47690  Biso   1.000  H
  H14      1.0000 0.67410  0.73790  0.02310  Biso   1.000  H
  H15      1.0000 0.17410  0.76210  0.52310  Biso   1.000  H
  H16      1.0000 0.32590  0.26210  0.97690  Biso   1.000  H
  C13      1.0000 0.72570  0.37110  0.36177  Biso   1.000  C
  C14      1.0000 0.77430  0.87110  0.13823  Biso   1.000  C
  C15      1.0000 0.27430  0.62890  0.63823  Biso   1.000  C
  C16      1.0000 0.22570  0.12890  0.86177  Biso   1.000  C
  C17      1.0000 0.55680  0.40510  0.28303  Biso   1.000  C
  C18      1.0000 0.94320  0.90510  0.21697  Biso   1.000  C
  C19      1.0000 0.44320  0.59490  0.71697  Biso   1.000  C
  C20      1.0000 0.05680  0.09490  0.78303  Biso   1.000  C
  H17      1.0000 0.56930  0.48130  0.24040  Biso   1.000  H
  H18      1.0000 0.93070  0.98130  0.25960  Biso   1.000  H
  H19      1.0000 0.43070  0.51870  0.75960  Biso   1.000  H
  H20      1.0000 0.06930  0.01870  0.74040  Biso   1.000  H
  C21      1.0000 0.17560  0.34160  0.18440  Biso   1.000  C
  C22      1.0000 0.32440  0.84160  0.31560  Biso   1.000  C
  C23      1.0000 0.82440  0.65840  0.81560  Biso   1.000  C
  C24      1.0000 0.67560  0.15840  0.68440  Biso   1.000  C
