data_image0
_cell_length_a       6.6076
_cell_length_b       10.5281
_cell_length_c       12.0579
_cell_angle_alpha    90
_cell_angle_beta     90
_cell_angle_gamma    90

_symmetry_space_group_name_H-M    "P 1"
_symmetry_int_tables_number       1

loop_
  _symmetry_equiv_pos_as_xyz
  'x, y, z'

loop_
  _atom_site_label
  _atom_site_occupancy
  _atom_site_fract_x
  _atom_site_fract_y
  _atom_site_fract_z
  _atom_site_thermal_displace_type
  _atom_site_B_iso_or_equiv
  _atom_site_type_symbol
  Cu1      1.0000 0.23822  0.71122  0.00209  Biso   1.000  Cu
  Cu2      1.0000 0.26178  0.28878  0.50209  Biso   1.000  Cu
  Cu3      1.0000 0.73822  0.78878  0.99791  Biso   1.000  Cu
  Cu4      1.0000 0.76178  0.21122  0.49791  Biso   1.000  Cu
  C1       1.0000 0.99690  0.33250  0.31230  Biso   1.000  C
  C2       1.0000 0.50310  0.66750  0.81230  Biso   1.000  C
  C3       1.0000 0.49690  0.16750  0.68770  Biso   1.000  C
  C4       1.0000 0.00310  0.83250  0.18770  Biso   1.000  C
  O1       1.0000 0.84310  0.27910  0.35212  Biso   1.000  O
  O2       1.0000 0.65690  0.72090  0.85212  Biso   1.000  O
  O3       1.0000 0.34310  0.22090  0.64788  Biso   1.000  O
  O4       1.0000 0.15690  0.77910  0.14788  Biso   1.000  O
  O5       1.0000 0.16940  0.34289  0.35484  Biso   1.000  O
  O6       1.0000 0.33060  0.65711  0.85484  Biso   1.000  O
  O7       1.0000 0.66940  0.15711  0.64516  Biso   1.000  O
  O8       1.0000 0.83060  0.84289  0.14516  Biso   1.000  O
  C5       1.0000 0.90860  0.49640  0.99470  Biso   1.000  C
  C6       1.0000 0.59140  0.50360  0.49470  Biso   1.000  C
  C7       1.0000 0.40860  0.00360  0.00530  Biso   1.000  C
  C8       1.0000 0.09140  0.99640  0.50530  Biso   1.000  C
  H1       1.0000 0.88950  0.52990  0.92230  Biso   1.000  H
  H2       1.0000 0.61050  0.47010  0.42230  Biso   1.000  H
  H3       1.0000 0.38950  0.97010  0.07770  Biso   1.000  H
  H4       1.0000 0.11050  0.02990  0.57770  Biso   1.000  H
  C9       1.0000 0.76510  0.41520  0.03850  Biso   1.000  C
  C10      1.0000 0.73490  0.58480  0.53850  Biso   1.000  C
  C11      1.0000 0.26510  0.08480  0.96150  Biso   1.000  C
  C12      1.0000 0.23490  0.91520  0.46150  Biso   1.000  C
  C13      1.0000 0.78860  0.36110  0.14100  Biso   1.000  C
  C14      1.0000 0.71140  0.63890  0.64100  Biso   1.000  C
  C15      1.0000 0.28860  0.13890  0.85900  Biso   1.000  C
  C16      1.0000 0.21140  0.86110  0.35900  Biso   1.000  C
  H5       1.0000 0.68870  0.30630  0.17140  Biso   1.000  H
  H6       1.0000 0.81130  0.69370  0.67140  Biso   1.000  H
  H7       1.0000 0.18870  0.19370  0.82860  Biso   1.000  H
  H8       1.0000 0.31130  0.80630  0.32860  Biso   1.000  H
  C17      1.0000 0.96500  0.39000  0.19880  Biso   1.000  C
  C18      1.0000 0.53500  0.61000  0.69880  Biso   1.000  C
  C19      1.0000 0.46500  0.11000  0.80120  Biso   1.000  C
  C20      1.0000 0.03500  0.89000  0.30120  Biso   1.000  C
  C21      1.0000 0.10050  0.47470  0.15180  Biso   1.000  C
  C22      1.0000 0.39950  0.52530  0.65180  Biso   1.000  C
  C23      1.0000 0.60050  0.02530  0.84820  Biso   1.000  C
  C24      1.0000 0.89950  0.97470  0.34820  Biso   1.000  C
  H9       1.0000 0.21910  0.49570  0.19230  Biso   1.000  H
  H10      1.0000 0.28090  0.50430  0.69230  Biso   1.000  H
  H11      1.0000 0.71910  0.00430  0.80770  Biso   1.000  H
  H12      1.0000 0.78090  0.99570  0.30770  Biso   1.000  H
  N1       1.0000 0.07310  0.52860  0.05193  Biso   1.000  N
  N2       1.0000 0.42690  0.47140  0.55193  Biso   1.000  N
  N3       1.0000 0.57310  0.97140  0.94807  Biso   1.000  N
  N4       1.0000 0.92690  0.02860  0.44807  Biso   1.000  N
  N5       1.0000 0.58050  0.38580  0.97482  Biso   1.000  N
  N6       1.0000 0.91950  0.61420  0.47482  Biso   1.000  N
  N7       1.0000 0.08050  0.11420  0.02518  Biso   1.000  N
  N8       1.0000 0.41950  0.88580  0.52518  Biso   1.000  N
  O9       1.0000 0.43860  0.33910  0.02583  Biso   1.000  O
  O10      1.0000 0.06140  0.66090  0.52583  Biso   1.000  O
  O11      1.0000 0.93860  0.16090  0.97417  Biso   1.000  O
  O12      1.0000 0.56140  0.83910  0.47417  Biso   1.000  O
  O13      1.0000 0.57940  0.41040  0.87571  Biso   1.000  O
  O14      1.0000 0.92060  0.58960  0.37571  Biso   1.000  O
  O15      1.0000 0.07940  0.08960  0.12429  Biso   1.000  O
  O16      1.0000 0.42060  0.91040  0.62429  Biso   1.000  O
  N9       1.0000 0.01550  0.81170  0.93392  Biso   1.000  N
  N10      1.0000 0.48450  0.18830  0.43392  Biso   1.000  N
  N11      1.0000 0.51550  0.68830  0.06608  Biso   1.000  N
  N12      1.0000 0.98450  0.31170  0.56608  Biso   1.000  N
  N13      1.0000 0.02670  0.84020  0.83540  Biso   1.000  N
  N14      1.0000 0.47330  0.15980  0.33540  Biso   1.000  N
  N15      1.0000 0.52670  0.65980  0.16460  Biso   1.000  N
  N16      1.0000 0.97330  0.34020  0.66460  Biso   1.000  N
  N17      1.0000 0.03630  0.87000  0.74429  Biso   1.000  N
  N18      1.0000 0.46370  0.13000  0.24429  Biso   1.000  N
  N19      1.0000 0.53630  0.63000  0.25571  Biso   1.000  N
  N20      1.0000 0.96370  0.37000  0.75571  Biso   1.000  N
