data_image0
_cell_length_a       12.9561
_cell_length_b       9.8851
_cell_length_c       22.797
_cell_angle_alpha    90
_cell_angle_beta     90
_cell_angle_gamma    90

_symmetry_space_group_name_H-M    "P 1"
_symmetry_int_tables_number       1

loop_
  _symmetry_equiv_pos_as_xyz
  'x, y, z'

loop_
  _atom_site_label
  _atom_site_occupancy
  _atom_site_fract_x
  _atom_site_fract_y
  _atom_site_fract_z
  _atom_site_thermal_displace_type
  _atom_site_B_iso_or_equiv
  _atom_site_type_symbol
  Cu1      1.0000 0.62028  0.75974  0.50166  Biso   1.000  Cu
  Cu2      1.0000 0.87972  0.24026  0.00166  Biso   1.000  Cu
  Cu3      1.0000 0.37972  0.25974  0.99834  Biso   1.000  Cu
  Cu4      1.0000 0.12028  0.74026  0.49834  Biso   1.000  Cu
  Cu5      1.0000 0.37972  0.24026  0.49834  Biso   1.000  Cu
  Cu6      1.0000 0.12028  0.75974  0.99834  Biso   1.000  Cu
  Cu7      1.0000 0.62028  0.74026  0.00166  Biso   1.000  Cu
  Cu8      1.0000 0.87972  0.25974  0.50166  Biso   1.000  Cu
  S1       1.0000 0.36811  0.85830  0.85976  Biso   1.000  S
  S2       1.0000 0.13189  0.14170  0.35976  Biso   1.000  S
  S3       1.0000 0.63189  0.35830  0.64024  Biso   1.000  S
  S4       1.0000 0.86811  0.64170  0.14024  Biso   1.000  S
  S5       1.0000 0.63189  0.14170  0.14024  Biso   1.000  S
  S6       1.0000 0.86811  0.85830  0.64024  Biso   1.000  S
  S7       1.0000 0.36811  0.64170  0.35976  Biso   1.000  S
  S8       1.0000 0.13189  0.35830  0.85976  Biso   1.000  S
  S9       1.0000 0.36865  0.75067  0.56209  Biso   1.000  S
  S10      1.0000 0.13135  0.24933  0.06209  Biso   1.000  S
  S11      1.0000 0.63135  0.25067  0.93791  Biso   1.000  S
  S12      1.0000 0.86865  0.74933  0.43791  Biso   1.000  S
  S13      1.0000 0.63135  0.24933  0.43791  Biso   1.000  S
  S14      1.0000 0.86865  0.75067  0.93791  Biso   1.000  S
  S15      1.0000 0.36865  0.74933  0.06209  Biso   1.000  S
  S16      1.0000 0.13135  0.25067  0.56209  Biso   1.000  S
  O1       1.0000 0.47274  0.69914  0.55445  Biso   1.000  O
  O2       1.0000 0.02726  0.30086  0.05445  Biso   1.000  O
  O3       1.0000 0.52726  0.19914  0.94555  Biso   1.000  O
  O4       1.0000 0.97274  0.80086  0.44555  Biso   1.000  O
  O5       1.0000 0.52726  0.30086  0.44555  Biso   1.000  O
  O6       1.0000 0.97274  0.69914  0.94555  Biso   1.000  O
  O7       1.0000 0.47274  0.80086  0.05445  Biso   1.000  O
  O8       1.0000 0.02726  0.19914  0.55445  Biso   1.000  O
  O9       1.0000 0.29293  0.67025  0.52984  Biso   1.000  O
  O10      1.0000 0.20707  0.32975  0.02984  Biso   1.000  O
  O11      1.0000 0.70707  0.17025  0.97016  Biso   1.000  O
  O12      1.0000 0.79293  0.82975  0.47016  Biso   1.000  O
  O13      1.0000 0.70707  0.32975  0.47016  Biso   1.000  O
  O14      1.0000 0.79293  0.67025  0.97016  Biso   1.000  O
  O15      1.0000 0.29293  0.82975  0.02984  Biso   1.000  O
  O16      1.0000 0.20707  0.17025  0.52984  Biso   1.000  O
  O17      1.0000 0.36017  0.89480  0.54903  Biso   1.000  O
  O18      1.0000 0.13983  0.10520  0.04903  Biso   1.000  O
  O19      1.0000 0.63983  0.39480  0.95097  Biso   1.000  O
  O20      1.0000 0.86017  0.60520  0.45097  Biso   1.000  O
  O21      1.0000 0.63983  0.10520  0.45097  Biso   1.000  O
  O22      1.0000 0.86017  0.89480  0.95097  Biso   1.000  O
  O23      1.0000 0.36017  0.60520  0.04903  Biso   1.000  O
  O24      1.0000 0.13983  0.39480  0.54903  Biso   1.000  O
  O25      1.0000 0.26233  0.90803  0.85824  Biso   1.000  O
  O26      1.0000 0.23767  0.09197  0.35824  Biso   1.000  O
  O27      1.0000 0.73767  0.40803  0.64176  Biso   1.000  O
  O28      1.0000 0.76233  0.59197  0.14176  Biso   1.000  O
  O29      1.0000 0.73767  0.09197  0.14176  Biso   1.000  O
  O30      1.0000 0.76233  0.90803  0.64176  Biso   1.000  O
  O31      1.0000 0.26233  0.59197  0.35824  Biso   1.000  O
  O32      1.0000 0.23767  0.40803  0.85824  Biso   1.000  O
  O33      1.0000 0.43584  0.94983  0.89203  Biso   1.000  O
  O34      1.0000 0.06416  0.05017  0.39203  Biso   1.000  O
  O35      1.0000 0.56416  0.44983  0.60797  Biso   1.000  O
  O36      1.0000 0.93584  0.55017  0.10797  Biso   1.000  O
  O37      1.0000 0.56416  0.05017  0.10797  Biso   1.000  O
  O38      1.0000 0.93584  0.94983  0.60797  Biso   1.000  O
  O39      1.0000 0.43584  0.55017  0.39203  Biso   1.000  O
  O40      1.0000 0.06416  0.44983  0.89203  Biso   1.000  O
  O41      1.0000 0.37337  0.71899  0.88183  Biso   1.000  O
  O42      1.0000 0.12663  0.28101  0.38183  Biso   1.000  O
  O43      1.0000 0.62663  0.21899  0.61817  Biso   1.000  O
  O44      1.0000 0.87337  0.78101  0.11817  Biso   1.000  O
  O45      1.0000 0.62663  0.28101  0.11817  Biso   1.000  O
  O46      1.0000 0.87337  0.71899  0.61817  Biso   1.000  O
  O47      1.0000 0.37337  0.78101  0.38183  Biso   1.000  O
  O48      1.0000 0.12663  0.21899  0.88183  Biso   1.000  O
  O49      1.0000 0.68942  0.65078  0.56138  Biso   1.000  O
  O50      1.0000 0.81058  0.34922  0.06138  Biso   1.000  O
  O51      1.0000 0.31058  0.15078  0.93862  Biso   1.000  O
  O52      1.0000 0.18942  0.84922  0.43862  Biso   1.000  O
  O53      1.0000 0.31058  0.34922  0.43862  Biso   1.000  O
  O54      1.0000 0.18942  0.65078  0.93862  Biso   1.000  O
  O55      1.0000 0.68942  0.84922  0.06138  Biso   1.000  O
  O56      1.0000 0.81058  0.15078  0.56138  Biso   1.000  O
  O57      1.0000 0.61477  0.59851  0.45217  Biso   1.000  O
  O58      1.0000 0.88523  0.40149  0.95217  Biso   1.000  O
  O59      1.0000 0.38523  0.09851  0.04783  Biso   1.000  O
  O60      1.0000 0.11477  0.90149  0.54783  Biso   1.000  O
  O61      1.0000 0.38523  0.40149  0.54783  Biso   1.000  O
  O62      1.0000 0.11477  0.59851  0.04783  Biso   1.000  O
  O63      1.0000 0.61477  0.90149  0.95217  Biso   1.000  O
  O64      1.0000 0.88523  0.09851  0.45217  Biso   1.000  O
  O65      1.0000 0.54810  0.86053  0.44034  Biso   1.000  O
  O66      1.0000 0.95190  0.13947  0.94034  Biso   1.000  O
  O67      1.0000 0.45190  0.36053  0.05966  Biso   1.000  O
  O68      1.0000 0.04810  0.63947  0.55966  Biso   1.000  O
  O69      1.0000 0.45190  0.13947  0.55966  Biso   1.000  O
  O70      1.0000 0.04810  0.86053  0.05966  Biso   1.000  O
  O71      1.0000 0.54810  0.63947  0.94034  Biso   1.000  O
  O72      1.0000 0.95190  0.36053  0.44034  Biso   1.000  O
  O73      1.0000 0.63335  0.92981  0.54686  Biso   1.000  O
  O74      1.0000 0.86665  0.07019  0.04686  Biso   1.000  O
  O75      1.0000 0.36665  0.42981  0.95314  Biso   1.000  O
  O76      1.0000 0.13335  0.57019  0.45314  Biso   1.000  O
  O77      1.0000 0.36665  0.07019  0.45314  Biso   1.000  O
  O78      1.0000 0.13335  0.92981  0.95314  Biso   1.000  O
  O79      1.0000 0.63335  0.57019  0.04686  Biso   1.000  O
  O80      1.0000 0.86665  0.42981  0.54686  Biso   1.000  O
  C1       1.0000 0.33632  0.73138  0.63753  Biso   1.000  C
  C2       1.0000 0.16368  0.26862  0.13753  Biso   1.000  C
  C3       1.0000 0.66368  0.23138  0.86247  Biso   1.000  C
  C4       1.0000 0.83632  0.76862  0.36247  Biso   1.000  C
  C5       1.0000 0.66368  0.26862  0.36247  Biso   1.000  C
  C6       1.0000 0.83632  0.73138  0.86247  Biso   1.000  C
  C7       1.0000 0.33632  0.76862  0.13753  Biso   1.000  C
  C8       1.0000 0.16368  0.23138  0.63753  Biso   1.000  C
  C9       1.0000 0.25149  0.65497  0.65066  Biso   1.000  C
  C10      1.0000 0.24851  0.34503  0.15066  Biso   1.000  C
  C11      1.0000 0.74851  0.15497  0.84934  Biso   1.000  C
  C12      1.0000 0.75149  0.84503  0.34934  Biso   1.000  C
  C13      1.0000 0.74851  0.34503  0.34934  Biso   1.000  C
  C14      1.0000 0.75149  0.65497  0.84934  Biso   1.000  C
  C15      1.0000 0.25149  0.84503  0.15066  Biso   1.000  C
  C16      1.0000 0.24851  0.15497  0.65066  Biso   1.000  C
  H1       1.0000 0.21600  0.61070  0.62090  Biso   1.000  H
  H2       1.0000 0.28400  0.38930  0.12090  Biso   1.000  H
  H3       1.0000 0.78400  0.11070  0.87910  Biso   1.000  H
  H4       1.0000 0.71600  0.88930  0.37910  Biso   1.000  H
  H5       1.0000 0.78400  0.38930  0.37910  Biso   1.000  H
  H6       1.0000 0.71600  0.61070  0.87910  Biso   1.000  H
  H7       1.0000 0.21600  0.88930  0.12090  Biso   1.000  H
  H8       1.0000 0.28400  0.11070  0.62090  Biso   1.000  H
  C17      1.0000 0.21768  0.64303  0.70914  Biso   1.000  C
  C18      1.0000 0.28232  0.35697  0.20914  Biso   1.000  C
  C19      1.0000 0.78232  0.14303  0.79086  Biso   1.000  C
  C20      1.0000 0.71768  0.85697  0.29086  Biso   1.000  C
  C21      1.0000 0.78232  0.35697  0.29086  Biso   1.000  C
  C22      1.0000 0.71768  0.64303  0.79086  Biso   1.000  C
  C23      1.0000 0.21768  0.85697  0.20914  Biso   1.000  C
  C24      1.0000 0.28232  0.14303  0.70914  Biso   1.000  C
  H9       1.0000 0.16040  0.58980  0.71770  Biso   1.000  H
  H10      1.0000 0.33960  0.41020  0.21770  Biso   1.000  H
  H11      1.0000 0.83960  0.08980  0.78230  Biso   1.000  H
  H12      1.0000 0.66040  0.91020  0.28230  Biso   1.000  H
  H13      1.0000 0.83960  0.41020  0.28230  Biso   1.000  H
  H14      1.0000 0.66040  0.58980  0.78230  Biso   1.000  H
  H15      1.0000 0.16040  0.91020  0.21770  Biso   1.000  H
  H16      1.0000 0.33960  0.08980  0.71770  Biso   1.000  H
  C25      1.0000 0.26778  0.70854  0.75338  Biso   1.000  C
  C26      1.0000 0.23222  0.29146  0.25338  Biso   1.000  C
  C27      1.0000 0.73222  0.20854  0.74662  Biso   1.000  C
  C28      1.0000 0.76778  0.79146  0.24662  Biso   1.000  C
  C29      1.0000 0.73222  0.29146  0.24662  Biso   1.000  C
  C30      1.0000 0.76778  0.70854  0.74662  Biso   1.000  C
  C31      1.0000 0.26778  0.79146  0.25338  Biso   1.000  C
  C32      1.0000 0.23222  0.20854  0.75338  Biso   1.000  C
  H17      1.0000 0.24300  0.70210  0.79160  Biso   1.000  H
  H18      1.0000 0.25700  0.29790  0.29160  Biso   1.000  H
  H19      1.0000 0.75700  0.20210  0.70840  Biso   1.000  H
  H20      1.0000 0.74300  0.79790  0.20840  Biso   1.000  H
  H21      1.0000 0.75700  0.29790  0.20840  Biso   1.000  H
  H22      1.0000 0.74300  0.70210  0.70840  Biso   1.000  H
  H23      1.0000 0.24300  0.79790  0.29160  Biso   1.000  H
  H24      1.0000 0.25700  0.20210  0.79160  Biso   1.000  H
  C33      1.0000 0.35755  0.78653  0.74170  Biso   1.000  C
  C34      1.0000 0.14245  0.21347  0.24170  Biso   1.000  C
  C35      1.0000 0.64245  0.28653  0.75830  Biso   1.000  C
  C36      1.0000 0.85755  0.71347  0.25830  Biso   1.000  C
  C37      1.0000 0.64245  0.21347  0.25830  Biso   1.000  C
  C38      1.0000 0.85755  0.78653  0.75830  Biso   1.000  C
  C39      1.0000 0.35755  0.71347  0.24170  Biso   1.000  C
  C40      1.0000 0.14245  0.28653  0.74170  Biso   1.000  C
  C41      1.0000 0.39454  0.79710  0.68273  Biso   1.000  C
  C42      1.0000 0.10546  0.20290  0.18273  Biso   1.000  C
  C43      1.0000 0.60546  0.29710  0.81727  Biso   1.000  C
  C44      1.0000 0.89454  0.70290  0.31727  Biso   1.000  C
  C45      1.0000 0.60546  0.20290  0.31727  Biso   1.000  C
  C46      1.0000 0.89454  0.79710  0.81727  Biso   1.000  C
  C47      1.0000 0.39454  0.70290  0.18273  Biso   1.000  C
  C48      1.0000 0.10546  0.29710  0.68273  Biso   1.000  C
  C49      1.0000 0.48650  0.87064  0.67163  Biso   1.000  C
  C50      1.0000 0.01350  0.12936  0.17163  Biso   1.000  C
  C51      1.0000 0.51350  0.37064  0.82837  Biso   1.000  C
  C52      1.0000 0.98650  0.62936  0.32837  Biso   1.000  C
  C53      1.0000 0.51350  0.12936  0.32837  Biso   1.000  C
  C54      1.0000 0.98650  0.87064  0.82837  Biso   1.000  C
  C55      1.0000 0.48650  0.62936  0.17163  Biso   1.000  C
  C56      1.0000 0.01350  0.37064  0.67163  Biso   1.000  C
  H25      1.0000 0.51140  0.87650  0.63350  Biso   1.000  H
  H26      1.0000 0.98860  0.12350  0.13350  Biso   1.000  H
  H27      1.0000 0.48860  0.37650  0.86650  Biso   1.000  H
  H28      1.0000 0.01140  0.62350  0.36650  Biso   1.000  H
  H29      1.0000 0.48860  0.12350  0.36650  Biso   1.000  H
  H30      1.0000 0.01140  0.87650  0.86650  Biso   1.000  H
  H31      1.0000 0.51140  0.62350  0.13350  Biso   1.000  H
  H32      1.0000 0.98860  0.37650  0.63350  Biso   1.000  H
  C57      1.0000 0.53918  0.93300  0.71592  Biso   1.000  C
  C58      1.0000 0.96082  0.06700  0.21592  Biso   1.000  C
  C59      1.0000 0.46082  0.43300  0.78408  Biso   1.000  C
  C60      1.0000 0.03918  0.56700  0.28408  Biso   1.000  C
  C61      1.0000 0.46082  0.06700  0.28408  Biso   1.000  C
  C62      1.0000 0.03918  0.93300  0.78408  Biso   1.000  C
  C63      1.0000 0.53918  0.56700  0.21592  Biso   1.000  C
  C64      1.0000 0.96082  0.43300  0.71592  Biso   1.000  C
  H33      1.0000 0.60010  0.97910  0.70770  Biso   1.000  H
  H34      1.0000 0.89990  0.02090  0.20770  Biso   1.000  H
  H35      1.0000 0.39990  0.47910  0.79230  Biso   1.000  H
  H36      1.0000 0.10010  0.52090  0.29230  Biso   1.000  H
  H37      1.0000 0.39990  0.02090  0.29230  Biso   1.000  H
  H38      1.0000 0.10010  0.97910  0.79230  Biso   1.000  H
  H39      1.0000 0.60010  0.52090  0.20770  Biso   1.000  H
  H40      1.0000 0.89990  0.47910  0.70770  Biso   1.000  H
  C65      1.0000 0.50184  0.92788  0.77390  Biso   1.000  C
  C66      1.0000 0.99816  0.07212  0.27390  Biso   1.000  C
  C67      1.0000 0.49816  0.42788  0.72610  Biso   1.000  C
  C68      1.0000 0.00184  0.57212  0.22610  Biso   1.000  C
  C69      1.0000 0.49816  0.07212  0.22610  Biso   1.000  C
  C70      1.0000 0.00184  0.92788  0.72610  Biso   1.000  C
  C71      1.0000 0.50184  0.57212  0.27390  Biso   1.000  C
  C72      1.0000 0.99816  0.42788  0.77390  Biso   1.000  C
  H41      1.0000 0.53710  0.97250  0.80370  Biso   1.000  H
  H42      1.0000 0.96290  0.02750  0.30370  Biso   1.000  H
  H43      1.0000 0.46290  0.47250  0.69630  Biso   1.000  H
  H44      1.0000 0.03710  0.52750  0.19630  Biso   1.000  H
  H45      1.0000 0.46290  0.02750  0.19630  Biso   1.000  H
  H46      1.0000 0.03710  0.97250  0.69630  Biso   1.000  H
  H47      1.0000 0.53710  0.52750  0.30370  Biso   1.000  H
  H48      1.0000 0.96290  0.47250  0.80370  Biso   1.000  H
  C73      1.0000 0.41343  0.85703  0.78643  Biso   1.000  C
  C74      1.0000 0.08657  0.14297  0.28643  Biso   1.000  C
  C75      1.0000 0.58657  0.35703  0.71357  Biso   1.000  C
  C76      1.0000 0.91343  0.64297  0.21357  Biso   1.000  C
  C77      1.0000 0.58657  0.14297  0.21357  Biso   1.000  C
  C78      1.0000 0.91343  0.85703  0.71357  Biso   1.000  C
  C79      1.0000 0.41343  0.64297  0.28643  Biso   1.000  C
  C80      1.0000 0.08657  0.35703  0.78643  Biso   1.000  C
  H49      1.0000 0.49600  0.83700  0.42470  Biso   1.000  H
  H50      1.0000 0.00400  0.16300  0.92470  Biso   1.000  H
  H51      1.0000 0.50400  0.33700  0.07530  Biso   1.000  H
  H52      1.0000 0.99600  0.66300  0.57530  Biso   1.000  H
  H53      1.0000 0.50400  0.16300  0.57530  Biso   1.000  H
  H54      1.0000 0.99600  0.83700  0.07530  Biso   1.000  H
  H55      1.0000 0.49600  0.66300  0.92470  Biso   1.000  H
  H56      1.0000 0.00400  0.33700  0.42470  Biso   1.000  H
  H57      1.0000 0.73500  0.67400  0.58080  Biso   1.000  H
  H58      1.0000 0.76500  0.32600  0.08080  Biso   1.000  H
  H59      1.0000 0.26500  0.17400  0.91920  Biso   1.000  H
  H60      1.0000 0.23500  0.82600  0.41920  Biso   1.000  H
  H61      1.0000 0.26500  0.32600  0.41920  Biso   1.000  H
  H62      1.0000 0.23500  0.67400  0.91920  Biso   1.000  H
  H63      1.0000 0.73500  0.82600  0.08080  Biso   1.000  H
  H64      1.0000 0.76500  0.17400  0.58080  Biso   1.000  H
  H65      1.0000 0.67700  0.92400  0.57550  Biso   1.000  H
  H66      1.0000 0.82300  0.07600  0.07550  Biso   1.000  H
  H67      1.0000 0.32300  0.42400  0.92450  Biso   1.000  H
  H68      1.0000 0.17700  0.57600  0.42450  Biso   1.000  H
  H69      1.0000 0.32300  0.07600  0.42450  Biso   1.000  H
  H70      1.0000 0.17700  0.92400  0.92450  Biso   1.000  H
  H71      1.0000 0.67700  0.57600  0.07550  Biso   1.000  H
  H72      1.0000 0.82300  0.42400  0.57550  Biso   1.000  H
  H73      1.0000 0.55830  0.94200  0.43810  Biso   1.000  H
  H74      1.0000 0.94170  0.05800  0.93810  Biso   1.000  H
  H75      1.0000 0.44170  0.44200  0.06190  Biso   1.000  H
  H76      1.0000 0.05830  0.55800  0.56190  Biso   1.000  H
  H77      1.0000 0.44170  0.05800  0.56190  Biso   1.000  H
  H78      1.0000 0.05830  0.94200  0.06190  Biso   1.000  H
  H79      1.0000 0.55830  0.55800  0.93810  Biso   1.000  H
  H80      1.0000 0.94170  0.44200  0.43810  Biso   1.000  H
  H81      1.0000 0.64790  0.98800  0.52770  Biso   1.000  H
  H82      1.0000 0.85210  0.01200  0.02770  Biso   1.000  H
  H83      1.0000 0.35210  0.48800  0.97230  Biso   1.000  H
  H84      1.0000 0.14790  0.51200  0.47230  Biso   1.000  H
  H85      1.0000 0.35210  0.01200  0.47230  Biso   1.000  H
  H86      1.0000 0.14790  0.98800  0.97230  Biso   1.000  H
  H87      1.0000 0.64790  0.51200  0.02770  Biso   1.000  H
  H88      1.0000 0.85210  0.48800  0.52770  Biso   1.000  H
  H89      1.0000 0.55800  0.58000  0.43940  Biso   1.000  H
  H90      1.0000 0.94200  0.42000  0.93940  Biso   1.000  H
  H91      1.0000 0.44200  0.08000  0.06060  Biso   1.000  H
  H92      1.0000 0.05800  0.92000  0.56060  Biso   1.000  H
  H93      1.0000 0.44200  0.42000  0.56060  Biso   1.000  H
  H94      1.0000 0.05800  0.58000  0.06060  Biso   1.000  H
  H95      1.0000 0.55800  0.92000  0.93940  Biso   1.000  H
  H96      1.0000 0.94200  0.08000  0.43940  Biso   1.000  H
  H97      1.0000 0.65090  0.60200  0.58010  Biso   1.000  H
  H98      1.0000 0.84910  0.39800  0.08010  Biso   1.000  H
  H99      1.0000 0.34910  0.10200  0.91990  Biso   1.000  H
  H100     1.0000 0.15090  0.89800  0.41990  Biso   1.000  H
  H101     1.0000 0.34910  0.39800  0.41990  Biso   1.000  H
  H102     1.0000 0.15090  0.60200  0.91990  Biso   1.000  H
  H103     1.0000 0.65090  0.89800  0.08010  Biso   1.000  H
  H104     1.0000 0.84910  0.10200  0.58010  Biso   1.000  H
  H105     1.0000 0.64600  0.52900  0.46340  Biso   1.000  H
  H106     1.0000 0.85400  0.47100  0.96340  Biso   1.000  H
  H107     1.0000 0.35400  0.02900  0.03660  Biso   1.000  H
  H108     1.0000 0.14600  0.97100  0.53660  Biso   1.000  H
  H109     1.0000 0.35400  0.47100  0.53660  Biso   1.000  H
  H110     1.0000 0.14600  0.52900  0.03660  Biso   1.000  H
  H111     1.0000 0.64600  0.97100  0.96340  Biso   1.000  H
  H112     1.0000 0.85400  0.02900  0.46340  Biso   1.000  H
