data_image0
_cell_length_a       10.361
_cell_length_b       10.443
_cell_length_c       12.259
_cell_angle_alpha    83.08
_cell_angle_beta     86.584
_cell_angle_gamma    82.832

_symmetry_space_group_name_H-M    "P 1"
_symmetry_int_tables_number       1

loop_
  _symmetry_equiv_pos_as_xyz
  'x, y, z'

loop_
  _atom_site_label
  _atom_site_occupancy
  _atom_site_fract_x
  _atom_site_fract_y
  _atom_site_fract_z
  _atom_site_thermal_displace_type
  _atom_site_B_iso_or_equiv
  _atom_site_type_symbol
  O1       1.0000 0.04580  0.96930  0.84769  Biso   1.000  O
  O2       1.0000 0.95420  0.03070  0.15231  Biso   1.000  O
  P1       1.0000 0.17342  0.98111  0.89755  Biso   1.000  P
  P2       1.0000 0.82658  0.01889  0.10245  Biso   1.000  P
  C1       1.0000 0.25510  0.10410  0.81640  Biso   1.000  C
  C2       1.0000 0.74490  0.89590  0.18360  Biso   1.000  C
  H1       1.0000 0.26970  0.08110  0.74190  Biso   1.000  H
  H2       1.0000 0.73030  0.91890  0.25810  Biso   1.000  H
  H3       1.0000 0.19860  0.18580  0.81320  Biso   1.000  H
  H4       1.0000 0.80140  0.81420  0.18680  Biso   1.000  H
  C3       1.0000 0.38540  0.12340  0.86030  Biso   1.000  C
  C4       1.0000 0.61460  0.87660  0.13970  Biso   1.000  C
  H5       1.0000 0.37260  0.14090  0.93640  Biso   1.000  H
  H6       1.0000 0.62740  0.85910  0.06360  Biso   1.000  H
  H7       1.0000 0.44510  0.04430  0.85800  Biso   1.000  H
  H8       1.0000 0.55490  0.95570  0.14200  Biso   1.000  H
  O3       1.0000 0.15780  0.01850  0.01386  Biso   1.000  O
  O4       1.0000 0.84220  0.98150  0.98614  Biso   1.000  O
  O5       1.0000 0.57480  0.32600  0.94500  Biso   1.000  O
  O6       1.0000 0.42520  0.67400  0.05500  Biso   1.000  O
  Cu1      1.0000 0.83240  0.37900  0.70277  Biso   1.000  Cu
  Cu2      1.0000 0.16760  0.62100  0.29723  Biso   1.000  Cu
  V1       1.0000 0.87043  0.06787  0.83696  Biso   1.000  V
  V2       1.0000 0.12957  0.93213  0.16304  Biso   1.000  V
  V3       1.0000 0.60186  0.27454  0.09136  Biso   1.000  V
  V4       1.0000 0.39814  0.72546  0.90864  Biso   1.000  V
  P3       1.0000 0.59984  0.26310  0.83631  Biso   1.000  P
  P4       1.0000 0.40016  0.73690  0.16369  Biso   1.000  P
  O7       1.0000 0.91920  0.21200  0.81550  Biso   1.000  O
  O8       1.0000 0.08080  0.78800  0.18450  Biso   1.000  O
  O9       1.0000 0.65590  0.35920  0.74820  Biso   1.000  O
  O10      1.0000 0.34410  0.64080  0.25180  Biso   1.000  O
  O11      1.0000 0.68210  0.13320  0.85670  Biso   1.000  O
  O12      1.0000 0.31790  0.86680  0.14330  Biso   1.000  O
  O13      1.0000 0.84840  0.01620  0.72100  Biso   1.000  O
  O14      1.0000 0.15160  0.98380  0.27900  Biso   1.000  O
  O15      1.0000 0.25740  0.84930  0.89240  Biso   1.000  O
  O16      1.0000 0.74260  0.15070  0.10760  Biso   1.000  O
  O17      1.0000 0.47460  0.22020  0.15190  Biso   1.000  O
  O18      1.0000 0.52540  0.77980  0.84810  Biso   1.000  O
  O19      1.0000 0.62980  0.39780  0.14790  Biso   1.000  O
  O20      1.0000 0.37020  0.60220  0.85210  Biso   1.000  O
  O21      1.0000 0.35120  0.11010  0.34740  Biso   1.000  O
  O22      1.0000 0.64880  0.88990  0.65260  Biso   1.000  O
  N1       1.0000 0.86770  0.51130  0.80080  Biso   1.000  N
  N2       1.0000 0.13230  0.48870  0.19920  Biso   1.000  N
  N3       1.0000 0.00510  0.41060  0.64640  Biso   1.000  N
  N4       1.0000 0.99490  0.58940  0.35360  Biso   1.000  N
  N5       1.0000 0.84570  0.28290  0.56850  Biso   1.000  N
  N6       1.0000 0.15430  0.71710  0.43150  Biso   1.000  N
  C5       1.0000 0.78680  0.56000  0.87880  Biso   1.000  C
  C6       1.0000 0.21320  0.44000  0.12120  Biso   1.000  C
  H9       1.0000 0.70250  0.53720  0.88760  Biso   1.000  H
  H10      1.0000 0.29750  0.46280  0.11240  Biso   1.000  H
  C7       1.0000 0.82550  0.64380  0.94710  Biso   1.000  C
  C8       1.0000 0.17450  0.35620  0.05290  Biso   1.000  C
  H11      1.0000 0.76820  0.67600  0.00130  Biso   1.000  H
  H12      1.0000 0.23180  0.32400  0.99870  Biso   1.000  H
  C9       1.0000 0.94930  0.67830  0.93370  Biso   1.000  C
  C10      1.0000 0.05070  0.32170  0.06630  Biso   1.000  C
  H13      1.0000 0.97650  0.73490  0.97830  Biso   1.000  H
  H14      1.0000 0.02350  0.26510  0.02170  Biso   1.000  H
  C11      1.0000 0.03300  0.62860  0.85350  Biso   1.000  C
  C12      1.0000 0.96700  0.37140  0.14650  Biso   1.000  C
  H15      1.0000 0.11730  0.65120  0.84340  Biso   1.000  H
  H16      1.0000 0.88270  0.34880  0.15660  Biso   1.000  H
  C13      1.0000 0.99060  0.54480  0.78840  Biso   1.000  C
  C14      1.0000 0.00940  0.45520  0.21160  Biso   1.000  C
  C15      1.0000 0.07080  0.48470  0.69970  Biso   1.000  C
  C16      1.0000 0.92920  0.51530  0.30030  Biso   1.000  C
  C17      1.0000 0.20050  0.49730  0.66840  Biso   1.000  C
  C18      1.0000 0.79950  0.50270  0.33160  Biso   1.000  C
  H17      1.0000 0.24750  0.54870  0.70410  Biso   1.000  H
  H18      1.0000 0.75250  0.45130  0.29590  Biso   1.000  H
  C19      1.0000 0.25790  0.43150  0.58300  Biso   1.000  C
  C20      1.0000 0.74210  0.56850  0.41700  Biso   1.000  C
  H19      1.0000 0.34420  0.43930  0.56090  Biso   1.000  H
  H20      1.0000 0.65580  0.56070  0.43910  Biso   1.000  H
  C21      1.0000 0.18850  0.35460  0.53050  Biso   1.000  C
  C22      1.0000 0.81150  0.64540  0.46950  Biso   1.000  C
  H21      1.0000 0.22730  0.30990  0.47350  Biso   1.000  H
  H22      1.0000 0.77270  0.69010  0.52650  Biso   1.000  H
  C23      1.0000 0.05990  0.34540  0.56440  Biso   1.000  C
  C24      1.0000 0.94010  0.65460  0.43560  Biso   1.000  C
  C25      1.0000 0.96730  0.27010  0.51950  Biso   1.000  C
  C26      1.0000 0.03270  0.72990  0.48050  Biso   1.000  C
  C27      1.0000 0.99770  0.19570  0.43370  Biso   1.000  C
  C28      1.0000 0.00230  0.80430  0.56630  Biso   1.000  C
  H23      1.0000 0.08180  0.18670  0.40220  Biso   1.000  H
  H24      1.0000 0.91820  0.81330  0.59780  Biso   1.000  H
  C29      1.0000 0.90150  0.13490  0.39540  Biso   1.000  C
  C30      1.0000 0.09850  0.86510  0.60460  Biso   1.000  C
  H25      1.0000 0.91980  0.08480  0.33740  Biso   1.000  H
  H26      1.0000 0.08020  0.91520  0.66260  Biso   1.000  H
  C31      1.0000 0.77890  0.14940  0.44370  Biso   1.000  C
  C32      1.0000 0.22110  0.85060  0.55630  Biso   1.000  C
  H27      1.0000 0.71270  0.11000  0.41810  Biso   1.000  H
  H28      1.0000 0.28730  0.89000  0.58190  Biso   1.000  H
  C33      1.0000 0.75400  0.22290  0.53100  Biso   1.000  C
  C34      1.0000 0.24600  0.77710  0.46900  Biso   1.000  C
  H29      1.0000 0.67090  0.23070  0.56450  Biso   1.000  H
  H30      1.0000 0.32910  0.76930  0.43550  Biso   1.000  H
  C35      1.0000 0.44470  0.23560  0.79280  Biso   1.000  C
  C36      1.0000 0.55530  0.76440  0.20720  Biso   1.000  C
  H31      1.0000 0.38480  0.31430  0.79650  Biso   1.000  H
  H32      1.0000 0.61520  0.68570  0.20350  Biso   1.000  H
  H33      1.0000 0.45410  0.21860  0.71650  Biso   1.000  H
  H34      1.0000 0.54590  0.78140  0.28350  Biso   1.000  H
  O23      1.0000 0.54680  0.91220  0.44470  Biso   1.000  O
  O24      1.0000 0.45320  0.08780  0.55530  Biso   1.000  O
  O25      1.0000 0.47370  0.40810  0.37210  Biso   1.000  O
  O26      1.0000 0.52630  0.59190  0.62790  Biso   1.000  O
