data_image0
_cell_length_a       10.5656
_cell_length_b       7.704
_cell_length_c       22.4544
_cell_angle_alpha    90
_cell_angle_beta     99.141
_cell_angle_gamma    90

_symmetry_space_group_name_H-M    "P 1"
_symmetry_int_tables_number       1

loop_
  _symmetry_equiv_pos_as_xyz
  'x, y, z'

loop_
  _atom_site_label
  _atom_site_occupancy
  _atom_site_fract_x
  _atom_site_fract_y
  _atom_site_fract_z
  _atom_site_thermal_displace_type
  _atom_site_B_iso_or_equiv
  _atom_site_type_symbol
  O1       1.0000 0.29418  0.54712  0.17863  Biso   1.000  O
  O2       1.0000 0.20582  0.04712  0.32137  Biso   1.000  O
  O3       1.0000 0.70582  0.45288  0.82137  Biso   1.000  O
  O4       1.0000 0.79418  0.95288  0.67863  Biso   1.000  O
  Cu1      1.0000 0.50943  0.13629  0.09852  Biso   1.000  Cu
  Cu2      1.0000 0.99057  0.63629  0.40148  Biso   1.000  Cu
  Cu3      1.0000 0.49057  0.86371  0.90148  Biso   1.000  Cu
  Cu4      1.0000 0.00943  0.36371  0.59852  Biso   1.000  Cu
  V1       1.0000 0.13815  0.65434  0.19607  Biso   1.000  V
  V2       1.0000 0.36185  0.15434  0.30393  Biso   1.000  V
  V3       1.0000 0.86185  0.34566  0.80393  Biso   1.000  V
  V4       1.0000 0.63815  0.84566  0.69607  Biso   1.000  V
  P1       1.0000 0.30343  0.98788  0.17094  Biso   1.000  P
  P2       1.0000 0.19657  0.48788  0.32906  Biso   1.000  P
  P3       1.0000 0.69657  0.01212  0.82906  Biso   1.000  P
  P4       1.0000 0.80343  0.51212  0.67094  Biso   1.000  P
  P5       1.0000 0.35872  0.36829  0.18249  Biso   1.000  P
  P6       1.0000 0.14128  0.86829  0.31751  Biso   1.000  P
  P7       1.0000 0.64128  0.63171  0.81751  Biso   1.000  P
  P8       1.0000 0.85872  0.13171  0.68249  Biso   1.000  P
  O5       1.0000 0.45604  0.36538  0.14005  Biso   1.000  O
  O6       1.0000 0.04396  0.86538  0.35995  Biso   1.000  O
  O7       1.0000 0.54396  0.63462  0.85995  Biso   1.000  O
  O8       1.0000 0.95604  0.13462  0.64005  Biso   1.000  O
  O9       1.0000 0.40633  0.96826  0.13073  Biso   1.000  O
  O10      1.0000 0.09367  0.46826  0.36927  Biso   1.000  O
  O11      1.0000 0.59367  0.03174  0.86927  Biso   1.000  O
  O12      1.0000 0.90633  0.53174  0.63073  Biso   1.000  O
  O13      1.0000 0.41541  0.32199  0.24735  Biso   1.000  O
  O14      1.0000 0.08459  0.82199  0.25265  Biso   1.000  O
  O15      1.0000 0.58459  0.67801  0.75265  Biso   1.000  O
  O16      1.0000 0.91541  0.17801  0.74735  Biso   1.000  O
  O17      1.0000 0.19515  0.85913  0.15268  Biso   1.000  O
  O18      1.0000 0.30485  0.35913  0.34732  Biso   1.000  O
  O19      1.0000 0.80485  0.14087  0.84732  Biso   1.000  O
  O20      1.0000 0.69515  0.64087  0.65268  Biso   1.000  O
  O21      1.0000 0.35886  0.97620  0.23806  Biso   1.000  O
  O22      1.0000 0.14114  0.47620  0.26194  Biso   1.000  O
  O23      1.0000 0.64114  0.02380  0.76194  Biso   1.000  O
  O24      1.0000 0.85886  0.52380  0.73806  Biso   1.000  O
  O25      1.0000 0.01907  0.58886  0.14861  Biso   1.000  O
  O26      1.0000 0.48093  0.08886  0.35139  Biso   1.000  O
  O27      1.0000 0.98093  0.41114  0.85139  Biso   1.000  O
  O28      1.0000 0.51907  0.91114  0.64861  Biso   1.000  O
  N1       1.0000 0.67389  0.11356  0.15890  Biso   1.000  N
  N2       1.0000 0.82611  0.61356  0.34110  Biso   1.000  N
  N3       1.0000 0.32611  0.88644  0.84110  Biso   1.000  N
  N4       1.0000 0.17389  0.38644  0.65890  Biso   1.000  N
  N5       1.0000 0.63118  0.24196  0.05279  Biso   1.000  N
  N6       1.0000 0.86882  0.74196  0.44721  Biso   1.000  N
  N7       1.0000 0.36882  0.75804  0.94721  Biso   1.000  N
  N8       1.0000 0.13118  0.25804  0.55279  Biso   1.000  N
  N9       1.0000 0.39633  0.16498  0.01501  Biso   1.000  N
  N10      1.0000 0.10367  0.66498  0.48499  Biso   1.000  N
  N11      1.0000 0.60367  0.83502  0.98499  Biso   1.000  N
  N12      1.0000 0.89633  0.33502  0.51501  Biso   1.000  N
  C1       1.0000 0.68473  0.04700  0.21445  Biso   1.000  C
  C2       1.0000 0.81527  0.54700  0.28555  Biso   1.000  C
  C3       1.0000 0.31527  0.95300  0.78555  Biso   1.000  C
  C4       1.0000 0.18473  0.45300  0.71445  Biso   1.000  C
  H1       1.0000 0.61400  0.99370  0.22650  Biso   1.000  H
  H2       1.0000 0.88600  0.49370  0.27350  Biso   1.000  H
  H3       1.0000 0.38600  0.00630  0.77350  Biso   1.000  H
  H4       1.0000 0.11400  0.50630  0.72650  Biso   1.000  H
  C5       1.0000 0.79870  0.05540  0.25457  Biso   1.000  C
  C6       1.0000 0.70130  0.55540  0.24543  Biso   1.000  C
  C7       1.0000 0.20130  0.94460  0.74543  Biso   1.000  C
  C8       1.0000 0.29870  0.44460  0.75457  Biso   1.000  C
  H5       1.0000 0.80570  0.00180  0.29210  Biso   1.000  H
  H6       1.0000 0.69430  0.50180  0.20790  Biso   1.000  H
  H7       1.0000 0.19430  0.99820  0.70790  Biso   1.000  H
  H8       1.0000 0.30570  0.49820  0.79210  Biso   1.000  H
  C9       1.0000 0.90140  0.14360  0.23851  Biso   1.000  C
  C10      1.0000 0.59860  0.64360  0.26149  Biso   1.000  C
  C11      1.0000 0.09860  0.85640  0.76149  Biso   1.000  C
  C12      1.0000 0.40140  0.35640  0.73851  Biso   1.000  C
  H9       1.0000 0.97740  0.15410  0.26550  Biso   1.000  H
  H10      1.0000 0.52260  0.65410  0.23450  Biso   1.000  H
  H11      1.0000 0.02260  0.84590  0.73450  Biso   1.000  H
  H12      1.0000 0.47740  0.34590  0.76550  Biso   1.000  H
  C13      1.0000 0.88961  0.21680  0.18132  Biso   1.000  C
  C14      1.0000 0.61039  0.71680  0.31868  Biso   1.000  C
  C15      1.0000 0.11039  0.78320  0.81868  Biso   1.000  C
  C16      1.0000 0.38961  0.28320  0.68132  Biso   1.000  C
  H13      1.0000 0.95720  0.27860  0.16960  Biso   1.000  H
  H14      1.0000 0.54280  0.77860  0.33040  Biso   1.000  H
  H15      1.0000 0.04280  0.72140  0.83040  Biso   1.000  H
  H16      1.0000 0.45720  0.22140  0.66960  Biso   1.000  H
  C17      1.0000 0.77597  0.19610  0.14225  Biso   1.000  C
  C18      1.0000 0.72403  0.69610  0.35775  Biso   1.000  C
  C19      1.0000 0.22403  0.80390  0.85775  Biso   1.000  C
  C20      1.0000 0.27597  0.30390  0.64225  Biso   1.000  C
  C21      1.0000 0.75280  0.25970  0.07920  Biso   1.000  C
  C22      1.0000 0.74720  0.75970  0.42080  Biso   1.000  C
  C23      1.0000 0.24720  0.74030  0.92080  Biso   1.000  C
  C24      1.0000 0.25280  0.24030  0.57920  Biso   1.000  C
  C25      1.0000 0.84410  0.32710  0.04698  Biso   1.000  C
  C26      1.0000 0.65590  0.82710  0.45302  Biso   1.000  C
  C27      1.0000 0.15590  0.67290  0.95302  Biso   1.000  C
  C28      1.0000 0.34410  0.17290  0.54698  Biso   1.000  C
  H17      1.0000 0.92870  0.34290  0.06530  Biso   1.000  H
  H18      1.0000 0.57130  0.84290  0.43470  Biso   1.000  H
  H19      1.0000 0.07130  0.65710  0.93470  Biso   1.000  H
  H20      1.0000 0.42870  0.15710  0.56530  Biso   1.000  H
  C29      1.0000 0.80510  0.37000  0.98688  Biso   1.000  C
  C30      1.0000 0.69490  0.87000  0.51312  Biso   1.000  C
  C31      1.0000 0.19490  0.63000  0.01312  Biso   1.000  C
  C32      1.0000 0.30510  0.13000  0.48688  Biso   1.000  C
  H21      1.0000 0.86480  0.41290  0.96430  Biso   1.000  H
  H22      1.0000 0.63520  0.91290  0.53570  Biso   1.000  H
  H23      1.0000 0.13520  0.58710  0.03570  Biso   1.000  H
  H24      1.0000 0.36480  0.08710  0.46430  Biso   1.000  H
  C33      1.0000 0.67880  0.34990  0.95990  Biso   1.000  C
  C34      1.0000 0.82120  0.84990  0.54010  Biso   1.000  C
  C35      1.0000 0.32120  0.65010  0.04010  Biso   1.000  C
  C36      1.0000 0.17880  0.15010  0.45990  Biso   1.000  C
  H25      1.0000 0.65280  0.37850  0.91960  Biso   1.000  H
  H26      1.0000 0.84720  0.87850  0.58040  Biso   1.000  H
  H27      1.0000 0.34720  0.62150  0.08040  Biso   1.000  H
  H28      1.0000 0.15280  0.12150  0.41960  Biso   1.000  H
  C37      1.0000 0.59176  0.28560  0.99502  Biso   1.000  C
  C38      1.0000 0.90824  0.78560  0.50498  Biso   1.000  C
  C39      1.0000 0.40824  0.71440  0.00498  Biso   1.000  C
  C40      1.0000 0.09176  0.21440  0.49502  Biso   1.000  C
  C41      1.0000 0.45468  0.25240  0.97464  Biso   1.000  C
  C42      1.0000 0.04532  0.75240  0.52536  Biso   1.000  C
  C43      1.0000 0.54532  0.74760  0.02536  Biso   1.000  C
  C44      1.0000 0.95468  0.24760  0.47464  Biso   1.000  C
  C45      1.0000 0.38870  0.30480  0.91924  Biso   1.000  C
  C46      1.0000 0.11130  0.80480  0.58076  Biso   1.000  C
  C47      1.0000 0.61130  0.69520  0.08076  Biso   1.000  C
  C48      1.0000 0.88870  0.19520  0.41924  Biso   1.000  C
  H29      1.0000 0.43050  0.36490  0.89210  Biso   1.000  H
  H30      1.0000 0.06950  0.86490  0.60790  Biso   1.000  H
  H31      1.0000 0.56950  0.63510  0.10790  Biso   1.000  H
  H32      1.0000 0.93050  0.13510  0.39210  Biso   1.000  H
  C49      1.0000 0.25960  0.26600  0.90508  Biso   1.000  C
  C50      1.0000 0.24040  0.76600  0.59492  Biso   1.000  C
  C51      1.0000 0.74040  0.73400  0.09492  Biso   1.000  C
  C52      1.0000 0.75960  0.23400  0.40508  Biso   1.000  C
  H33      1.0000 0.21320  0.30070  0.86830  Biso   1.000  H
  H34      1.0000 0.28680  0.80070  0.63170  Biso   1.000  H
  H35      1.0000 0.78680  0.69930  0.13170  Biso   1.000  H
  H36      1.0000 0.71320  0.19930  0.36830  Biso   1.000  H
  C53      1.0000 0.20000  0.17540  0.94599  Biso   1.000  C
  C54      1.0000 0.30000  0.67540  0.55401  Biso   1.000  C
  C55      1.0000 0.80000  0.82460  0.05401  Biso   1.000  C
  C56      1.0000 0.70000  0.32460  0.44599  Biso   1.000  C
  H37      1.0000 0.11330  0.14800  0.93710  Biso   1.000  H
  H38      1.0000 0.38670  0.64800  0.56290  Biso   1.000  H
  H39      1.0000 0.88670  0.85200  0.06290  Biso   1.000  H
  H40      1.0000 0.61330  0.35200  0.43710  Biso   1.000  H
  C57      1.0000 0.27178  0.12630  0.00046  Biso   1.000  C
  C58      1.0000 0.22822  0.62630  0.49954  Biso   1.000  C
  C59      1.0000 0.72822  0.87370  0.99954  Biso   1.000  C
  C60      1.0000 0.77178  0.37370  0.50046  Biso   1.000  C
  H41      1.0000 0.23200  0.06430  0.02790  Biso   1.000  H
  H42      1.0000 0.26800  0.56430  0.47210  Biso   1.000  H
  H43      1.0000 0.76800  0.93570  0.97210  Biso   1.000  H
  H44      1.0000 0.73200  0.43570  0.52790  Biso   1.000  H
  C61      1.0000 0.23762  0.20470  0.15971  Biso   1.000  C
  C62      1.0000 0.26238  0.70470  0.34029  Biso   1.000  C
  C63      1.0000 0.76238  0.79530  0.84029  Biso   1.000  C
  C64      1.0000 0.73762  0.29530  0.65971  Biso   1.000  C
  H45      1.0000 0.19600  0.21600  0.11880  Biso   1.000  H
  H46      1.0000 0.30400  0.71600  0.38120  Biso   1.000  H
  H47      1.0000 0.80400  0.78400  0.88120  Biso   1.000  H
  H48      1.0000 0.69600  0.28400  0.61880  Biso   1.000  H
  H49      1.0000 0.18200  0.21000  0.17990  Biso   1.000  H
  H50      1.0000 0.31800  0.71000  0.32010  Biso   1.000  H
  H51      1.0000 0.81800  0.79000  0.82010  Biso   1.000  H
  H52      1.0000 0.68200  0.29000  0.67990  Biso   1.000  H
