data_image0
_cell_length_a       8.8819
_cell_length_b       11.3639
_cell_length_c       18.4757
_cell_angle_alpha    98.951
_cell_angle_beta     98.003
_cell_angle_gamma    105.114

_symmetry_space_group_name_H-M    "P 1"
_symmetry_int_tables_number       1

loop_
  _symmetry_equiv_pos_as_xyz
  'x, y, z'

loop_
  _atom_site_label
  _atom_site_occupancy
  _atom_site_fract_x
  _atom_site_fract_y
  _atom_site_fract_z
  _atom_site_thermal_displace_type
  _atom_site_B_iso_or_equiv
  _atom_site_type_symbol
  O1       1.0000 0.85664  0.81520  0.19569  Biso   1.000  O
  O2       1.0000 0.14336  0.18480  0.80431  Biso   1.000  O
  Cu1      1.0000 0.43799  0.62059  0.06280  Biso   1.000  Cu
  Cu2      1.0000 0.56201  0.37941  0.93720  Biso   1.000  Cu
  V1       1.0000 0.36578  0.79372  0.22206  Biso   1.000  V
  V2       1.0000 0.63422  0.20628  0.77794  Biso   1.000  V
  V3       1.0000 0.05764  0.93297  0.19944  Biso   1.000  V
  V4       1.0000 0.94236  0.06703  0.80056  Biso   1.000  V
  P1       1.0000 0.70241  0.73315  0.20949  Biso   1.000  P
  P2       1.0000 0.29759  0.26685  0.79051  Biso   1.000  P
  P3       1.0000 0.39668  0.08355  0.29799  Biso   1.000  P
  P4       1.0000 0.60332  0.91645  0.70201  Biso   1.000  P
  P5       1.0000 0.87812  0.12265  0.27986  Biso   1.000  P
  P6       1.0000 0.12188  0.87735  0.72014  Biso   1.000  P
  O3       1.0000 0.61318  0.63753  0.13951  Biso   1.000  O
  O4       1.0000 0.38682  0.36247  0.86049  Biso   1.000  O
  O5       1.0000 0.60091  0.81432  0.23902  Biso   1.000  O
  O6       1.0000 0.39909  0.18568  0.76098  Biso   1.000  O
  O7       1.0000 0.31674  0.67394  0.26016  Biso   1.000  O
  O8       1.0000 0.68326  0.32606  0.73984  Biso   1.000  O
  O9       1.0000 0.33380  0.74617  0.13090  Biso   1.000  O
  O10      1.0000 0.66620  0.25383  0.86910  Biso   1.000  O
  O11      1.0000 0.45031  0.96885  0.27365  Biso   1.000  O
  O12      1.0000 0.54969  0.03115  0.72635  Biso   1.000  O
  O13      1.0000 0.16302  0.83629  0.22486  Biso   1.000  O
  O14      1.0000 0.83698  0.16371  0.77514  Biso   1.000  O
  O15      1.0000 0.50954  0.20064  0.28232  Biso   1.000  O
  O16      1.0000 0.49046  0.79936  0.71768  Biso   1.000  O
  O17      1.0000 0.22889  0.07258  0.25845  Biso   1.000  O
  O18      1.0000 0.77111  0.92742  0.74155  Biso   1.000  O
  O19      1.0000 0.07196  0.93530  0.11448  Biso   1.000  O
  O20      1.0000 0.92804  0.06470  0.88552  Biso   1.000  O
  O21      1.0000 0.93927  0.05870  0.21658  Biso   1.000  O
  O22      1.0000 0.06073  0.94130  0.78342  Biso   1.000  O
  O23      1.0000 0.80363  0.02707  0.32725  Biso   1.000  O
  O24      1.0000 0.19637  0.97293  0.67275  Biso   1.000  O
  N1       1.0000 0.30973  0.45268  0.07705  Biso   1.000  N
  N2       1.0000 0.69027  0.54732  0.92295  Biso   1.000  N
  N3       1.0000 0.27697  0.57204  0.97311  Biso   1.000  N
  N4       1.0000 0.72303  0.42796  0.02689  Biso   1.000  N
  N5       1.0000 0.52627  0.75920  0.00893  Biso   1.000  N
  N6       1.0000 0.47373  0.24080  0.99107  Biso   1.000  N
  C1       1.0000 0.34024  0.39744  0.13418  Biso   1.000  C
  C2       1.0000 0.65976  0.60256  0.86582  Biso   1.000  C
  H1       1.0000 0.43490  0.43530  0.17020  Biso   1.000  H
  H2       1.0000 0.56510  0.56470  0.82980  Biso   1.000  H
  C3       1.0000 0.23829  0.28682  0.14249  Biso   1.000  C
  C4       1.0000 0.76171  0.71318  0.85751  Biso   1.000  C
  H3       1.0000 0.26240  0.24950  0.18350  Biso   1.000  H
  H4       1.0000 0.73760  0.75050  0.81650  Biso   1.000  H
  C5       1.0000 0.10013  0.23197  0.08934  Biso   1.000  C
  C6       1.0000 0.89987  0.76803  0.91066  Biso   1.000  C
  H5       1.0000 0.02760  0.15690  0.09400  Biso   1.000  H
  H6       1.0000 0.97240  0.84310  0.90600  Biso   1.000  H
  C7       1.0000 0.06875  0.28768  0.02929  Biso   1.000  C
  C8       1.0000 0.93125  0.71232  0.97071  Biso   1.000  C
  H7       1.0000 0.97540  0.25100  0.99230  Biso   1.000  H
  H8       1.0000 0.02460  0.74900  0.00770  Biso   1.000  H
  C9       1.0000 0.17637  0.39783  0.02449  Biso   1.000  C
  C10      1.0000 0.82363  0.60217  0.97551  Biso   1.000  C
  C11      1.0000 0.15991  0.46580  0.96320  Biso   1.000  C
  C12      1.0000 0.84009  0.53420  0.03680  Biso   1.000  C
  C13      1.0000 0.04087  0.42918  0.90000  Biso   1.000  C
  C14      1.0000 0.95913  0.57082  0.10000  Biso   1.000  C
  H9       1.0000 0.95620  0.35500  0.89310  Biso   1.000  H
  H10      1.0000 0.04380  0.64500  0.10690  Biso   1.000  H
  C15      1.0000 0.04914  0.50432  0.84700  Biso   1.000  C
  C16      1.0000 0.95086  0.49568  0.15300  Biso   1.000  C
  H11      1.0000 0.96880  0.48130  0.80340  Biso   1.000  H
  H12      1.0000 0.03120  0.51870  0.19660  Biso   1.000  H
  C17      1.0000 0.17405  0.61301  0.85721  Biso   1.000  C
  C18      1.0000 0.82595  0.38699  0.14279  Biso   1.000  C
  H13      1.0000 0.18150  0.66350  0.82070  Biso   1.000  H
  H14      1.0000 0.81850  0.33650  0.17930  Biso   1.000  H
  C19      1.0000 0.28755  0.64529  0.92260  Biso   1.000  C
  C20      1.0000 0.71245  0.35471  0.07740  Biso   1.000  C
  C21      1.0000 0.42777  0.75673  0.94499  Biso   1.000  C
  C22      1.0000 0.57223  0.24327  0.05501  Biso   1.000  C
  C23      1.0000 0.45825  0.85124  0.90492  Biso   1.000  C
  C24      1.0000 0.54175  0.14876  0.09508  Biso   1.000  C
  H15      1.0000 0.38630  0.84890  0.86120  Biso   1.000  H
  H16      1.0000 0.61370  0.15110  0.13880  Biso   1.000  H
  C25      1.0000 0.59677  0.94965  0.93025  Biso   1.000  C
  C26      1.0000 0.40323  0.05035  0.06975  Biso   1.000  C
  H17      1.0000 0.62100  0.01530  0.90380  Biso   1.000  H
  H18      1.0000 0.37900  0.98470  0.09620  Biso   1.000  H
  C27      1.0000 0.69832  0.95063  0.99423  Biso   1.000  C
  C28      1.0000 0.30168  0.04937  0.00577  Biso   1.000  C
  H19      1.0000 0.79430  0.01620  0.01170  Biso   1.000  H
  H20      1.0000 0.20570  0.98380  0.98830  Biso   1.000  H
  C29      1.0000 0.65880  0.85465  0.03299  Biso   1.000  C
  C30      1.0000 0.34120  0.14535  0.96701  Biso   1.000  C
  H21      1.0000 0.72770  0.85690  0.07770  Biso   1.000  H
  H22      1.0000 0.27230  0.14310  0.92230  Biso   1.000  H
  C31      1.0000 0.75401  0.64997  0.27934  Biso   1.000  C
  C32      1.0000 0.24599  0.35003  0.72066  Biso   1.000  C
  C33      1.0000 0.63375  0.56679  0.30302  Biso   1.000  C
  C34      1.0000 0.36625  0.43321  0.69698  Biso   1.000  C
  H23      1.0000 0.52600  0.56310  0.28700  Biso   1.000  H
  H24      1.0000 0.47400  0.43690  0.71300  Biso   1.000  H
  C35      1.0000 0.67060  0.48957  0.34962  Biso   1.000  C
  C36      1.0000 0.32940  0.51043  0.65038  Biso   1.000  C
  H25      1.0000 0.58820  0.43200  0.36450  Biso   1.000  H
  H26      1.0000 0.41180  0.56800  0.63550  Biso   1.000  H
  C37      1.0000 0.82830  0.49656  0.37443  Biso   1.000  C
  C38      1.0000 0.17170  0.50344  0.62557  Biso   1.000  C
  H27      1.0000 0.85370  0.44220  0.40520  Biso   1.000  H
  H28      1.0000 0.14630  0.55780  0.59480  Biso   1.000  H
  C39      1.0000 0.94870  0.58294  0.35420  Biso   1.000  C
  C40      1.0000 0.05130  0.41706  0.64580  Biso   1.000  C
  H29      1.0000 0.05650  0.59010  0.37300  Biso   1.000  H
  H30      1.0000 0.94350  0.40990  0.62700  Biso   1.000  H
  C41      1.0000 0.91233  0.65923  0.30651  Biso   1.000  C
  C42      1.0000 0.08767  0.34077  0.69349  Biso   1.000  C
  H31      1.0000 0.99520  0.71760  0.29240  Biso   1.000  H
  H32      1.0000 0.00480  0.28240  0.70760  Biso   1.000  H
  C43      1.0000 0.40299  0.10590  0.39635  Biso   1.000  C
  C44      1.0000 0.59701  0.89410  0.60365  Biso   1.000  C
  C45      1.0000 0.29090  0.02549  0.42564  Biso   1.000  C
  C46      1.0000 0.70910  0.97451  0.57436  Biso   1.000  C
  H33      1.0000 0.20830  0.96060  0.39300  Biso   1.000  H
  H34      1.0000 0.79170  0.03940  0.60700  Biso   1.000  H
  C47      1.0000 0.29930  0.03970  0.50230  Biso   1.000  C
  C48      1.0000 0.70070  0.96030  0.49770  Biso   1.000  C
  H35      1.0000 0.22270  0.98450  0.52180  Biso   1.000  H
  H36      1.0000 0.77730  0.01550  0.47820  Biso   1.000  H
  C49      1.0000 0.41900  0.13390  0.55013  Biso   1.000  C
  C50      1.0000 0.58100  0.86610  0.44987  Biso   1.000  C
  H37      1.0000 0.42380  0.14410  0.60250  Biso   1.000  H
  H38      1.0000 0.57620  0.85590  0.39750  Biso   1.000  H
  C51      1.0000 0.53190  0.21342  0.52198  Biso   1.000  C
  C52      1.0000 0.46810  0.78658  0.47802  Biso   1.000  C
  H39      1.0000 0.61470  0.27740  0.55510  Biso   1.000  H
  H40      1.0000 0.38530  0.72260  0.44490  Biso   1.000  H
  C53      1.0000 0.52490  0.20022  0.44544  Biso   1.000  C
  C54      1.0000 0.47510  0.79978  0.55456  Biso   1.000  C
  H41      1.0000 0.60270  0.25520  0.42640  Biso   1.000  H
  H42      1.0000 0.39730  0.74480  0.57360  Biso   1.000  H
  C55      1.0000 0.03717  0.23331  0.34608  Biso   1.000  C
  C56      1.0000 0.96283  0.76669  0.65392  Biso   1.000  C
  C57      1.0000 0.07118  0.22380  0.42036  Biso   1.000  C
  C58      1.0000 0.92882  0.77620  0.57964  Biso   1.000  C
  H43      1.0000 0.01240  0.15390  0.43700  Biso   1.000  H
  H44      1.0000 0.98760  0.84610  0.56300  Biso   1.000  H
  C59      1.0000 0.19130  0.31657  0.47052  Biso   1.000  C
  C60      1.0000 0.80870  0.68343  0.52948  Biso   1.000  C
  H45      1.0000 0.21400  0.30990  0.52130  Biso   1.000  H
  H46      1.0000 0.78600  0.69010  0.47870  Biso   1.000  H
  C61      1.0000 0.27776  0.41864  0.44645  Biso   1.000  C
  C62      1.0000 0.72224  0.58136  0.55355  Biso   1.000  C
  H47      1.0000 0.35890  0.48210  0.48080  Biso   1.000  H
  H48      1.0000 0.64110  0.51790  0.51920  Biso   1.000  H
  C63      1.0000 0.24595  0.42830  0.37221  Biso   1.000  C
  C64      1.0000 0.75405  0.57170  0.62779  Biso   1.000  C
  H49      1.0000 0.30620  0.49780  0.35570  Biso   1.000  H
  H50      1.0000 0.69380  0.50220  0.64430  Biso   1.000  H
  C65      1.0000 0.12563  0.33607  0.32200  Biso   1.000  C
  C66      1.0000 0.87437  0.66393  0.67800  Biso   1.000  C
  H51      1.0000 0.10350  0.34290  0.27130  Biso   1.000  H
  H52      1.0000 0.89650  0.65710  0.72870  Biso   1.000  H
  O25      1.0000 0.76441  0.18944  0.25024  Biso   1.000  O
  O26      1.0000 0.23559  0.81056  0.74976  Biso   1.000  O
  H53      1.0000 0.59700  0.20000  0.27460  Biso   1.000  H
  H54      1.0000 0.40300  0.80000  0.72540  Biso   1.000  H
  H55      1.0000 0.74300  0.98100  0.30570  Biso   1.000  H
  H56      1.0000 0.25700  0.01900  0.69430  Biso   1.000  H
