data_image0
_cell_length_a       10.051
_cell_length_b       10.22
_cell_length_c       14.287
_cell_angle_alpha    88.698
_cell_angle_beta     76.678
_cell_angle_gamma    69.082

_symmetry_space_group_name_H-M    "P 1"
_symmetry_int_tables_number       1

loop_
  _symmetry_equiv_pos_as_xyz
  'x, y, z'

loop_
  _atom_site_label
  _atom_site_occupancy
  _atom_site_fract_x
  _atom_site_fract_y
  _atom_site_fract_z
  _atom_site_thermal_displace_type
  _atom_site_B_iso_or_equiv
  _atom_site_type_symbol
  Cu1      1.0000 0.38404  0.72243  0.45302  Biso   1.000  Cu
  Cu2      1.0000 0.61596  0.27757  0.54698  Biso   1.000  Cu
  V1       1.0000 0.53902  0.22934  0.02166  Biso   1.000  V
  V2       1.0000 0.46098  0.77066  0.97834  Biso   1.000  V
  V3       1.0000 0.16469  0.69941  0.30575  Biso   1.000  V
  V4       1.0000 0.83531  0.30059  0.69425  Biso   1.000  V
  V5       1.0000 0.94380  0.94105  0.72409  Biso   1.000  V
  V6       1.0000 0.05620  0.05895  0.27591  Biso   1.000  V
  V7       1.0000 0.47421  0.26249  0.97637  Biso   1.000  V
  V8       1.0000 0.52579  0.73751  0.02363  Biso   1.000  V
  P1       1.0000 0.31334  0.56526  0.09744  Biso   1.000  P
  P2       1.0000 0.68666  0.43474  0.90256  Biso   1.000  P
  P3       1.0000 0.71128  0.91441  0.91245  Biso   1.000  P
  P4       1.0000 0.28872  0.08559  0.08755  Biso   1.000  P
  O1       1.0000 0.30970  0.67250  0.35228  Biso   1.000  O
  O2       1.0000 0.69030  0.32750  0.64772  Biso   1.000  O
  O3       1.0000 0.21328  0.57432  0.20022  Biso   1.000  O
  O4       1.0000 0.78672  0.42568  0.79978  Biso   1.000  O
  O5       1.0000 0.79660  0.89620  0.80533  Biso   1.000  O
  O6       1.0000 0.20340  0.10380  0.19467  Biso   1.000  O
  O7       1.0000 0.19670  0.91800  0.49833  Biso   1.000  O
  O8       1.0000 0.80330  0.08200  0.50167  Biso   1.000  O
  H1       1.0000 0.12690  0.90070  0.53430  Biso   1.000  H
  H2       1.0000 0.87310  0.09930  0.46570  Biso   1.000  H
  O9       1.0000 0.09570  0.87360  0.27097  Biso   1.000  O
  O10      1.0000 0.90430  0.12640  0.72903  Biso   1.000  O
  O11      1.0000 0.03870  0.67070  0.38608  Biso   1.000  O
  O12      1.0000 0.96130  0.32930  0.61392  Biso   1.000  O
  O13      1.0000 0.43590  0.42318  0.07905  Biso   1.000  O
  O14      1.0000 0.56410  0.57682  0.92095  Biso   1.000  O
  O15      1.0000 0.59962  0.06237  0.93362  Biso   1.000  O
  O16      1.0000 0.40038  0.93763  0.06638  Biso   1.000  O
  O17      1.0000 0.09950  0.86320  0.75091  Biso   1.000  O
  O18      1.0000 0.90050  0.13680  0.24909  Biso   1.000  O
  O19      1.0000 0.95510  0.88720  0.61343  Biso   1.000  O
  O20      1.0000 0.04490  0.11280  0.38657  Biso   1.000  O
  O21      1.0000 0.36670  0.68847  0.09081  Biso   1.000  O
  O22      1.0000 0.63330  0.31153  0.90919  Biso   1.000  O
  O23      1.0000 0.64530  0.17160  0.09248  Biso   1.000  O
  O24      1.0000 0.35470  0.82840  0.90752  Biso   1.000  O
  O25      1.0000 0.64570  0.80032  0.92838  Biso   1.000  O
  O26      1.0000 0.35430  0.19968  0.07162  Biso   1.000  O
  O27      1.0000 0.36420  0.31230  0.90660  Biso   1.000  O
  O28      1.0000 0.63580  0.68770  0.09340  Biso   1.000  O
  N1       1.0000 0.31000  0.62140  0.56519  Biso   1.000  N
  N2       1.0000 0.69000  0.37860  0.43481  Biso   1.000  N
  N3       1.0000 0.51110  0.72470  0.53575  Biso   1.000  N
  N4       1.0000 0.48890  0.27530  0.46425  Biso   1.000  N
  N5       1.0000 0.51020  0.81420  0.36738  Biso   1.000  N
  N6       1.0000 0.48980  0.18580  0.63262  Biso   1.000  N
  C1       1.0000 0.19900  0.57360  0.57464  Biso   1.000  C
  C2       1.0000 0.80100  0.42640  0.42536  Biso   1.000  C
  H3       1.0000 0.15060  0.58330  0.52370  Biso   1.000  H
  H4       1.0000 0.84940  0.41670  0.47630  Biso   1.000  H
  C3       1.0000 0.15360  0.51060  0.65710  Biso   1.000  C
  C4       1.0000 0.84640  0.48940  0.34290  Biso   1.000  C
  H5       1.0000 0.07480  0.47790  0.66260  Biso   1.000  H
  H6       1.0000 0.92520  0.52210  0.33740  Biso   1.000  H
  C5       1.0000 0.22460  0.49640  0.73070  Biso   1.000  C
  C6       1.0000 0.77540  0.50360  0.26930  Biso   1.000  C
  H7       1.0000 0.19580  0.45260  0.78710  Biso   1.000  H
  H8       1.0000 0.80420  0.54740  0.21290  Biso   1.000  H
  C7       1.0000 0.33840  0.54600  0.72235  Biso   1.000  C
  C8       1.0000 0.66160  0.45400  0.27765  Biso   1.000  C
  H9       1.0000 0.38820  0.53660  0.77250  Biso   1.000  H
  H10      1.0000 0.61180  0.46340  0.22750  Biso   1.000  H
  C9       1.0000 0.37750  0.60940  0.63919  Biso   1.000  C
  C10      1.0000 0.62250  0.39060  0.36081  Biso   1.000  C
  C11      1.0000 0.49370  0.67000  0.62201  Biso   1.000  C
  C12      1.0000 0.50630  0.33000  0.37799  Biso   1.000  C
  C13      1.0000 0.58180  0.67260  0.68349  Biso   1.000  C
  C14      1.0000 0.41820  0.32740  0.31651  Biso   1.000  C
  H11      1.0000 0.56790  0.63730  0.74570  Biso   1.000  H
  H12      1.0000 0.43210  0.36270  0.25430  Biso   1.000  H
  C15      1.0000 0.69070  0.72830  0.65150  Biso   1.000  C
  C16      1.0000 0.30930  0.27170  0.34850  Biso   1.000  C
  H13      1.0000 0.75310  0.73000  0.69200  Biso   1.000  H
  H14      1.0000 0.24690  0.27000  0.30800  Biso   1.000  H
  C17      1.0000 0.70950  0.78190  0.56060  Biso   1.000  C
  C18      1.0000 0.29050  0.21810  0.43940  Biso   1.000  C
  H15      1.0000 0.78530  0.81790  0.53790  Biso   1.000  H
  H16      1.0000 0.21470  0.18210  0.46210  Biso   1.000  H
  C19      1.0000 0.61420  0.78090  0.50460  Biso   1.000  C
  C20      1.0000 0.38580  0.21910  0.49540  Biso   1.000  C
  C21      1.0000 0.61140  0.83600  0.40783  Biso   1.000  C
  C22      1.0000 0.38860  0.16400  0.59217  Biso   1.000  C
  C23      1.0000 0.70050  0.90610  0.36134  Biso   1.000  C
  C24      1.0000 0.29950  0.09390  0.63866  Biso   1.000  C
  H17      1.0000 0.77170  0.91920  0.38990  Biso   1.000  H
  H18      1.0000 0.22830  0.08080  0.61010  Biso   1.000  H
  C25      1.0000 0.68360  0.95700  0.27160  Biso   1.000  C
  C26      1.0000 0.31640  0.04300  0.72840  Biso   1.000  C
  H19      1.0000 0.74260  0.00630  0.23850  Biso   1.000  H
  H20      1.0000 0.25740  0.99370  0.76150  Biso   1.000  H
  C27      1.0000 0.58000  0.93500  0.23150  Biso   1.000  C
  C28      1.0000 0.42000  0.06500  0.76850  Biso   1.000  C
  H21      1.0000 0.56670  0.96930  0.17060  Biso   1.000  H
  H22      1.0000 0.43330  0.03070  0.82940  Biso   1.000  H
  C29      1.0000 0.49590  0.86250  0.28103  Biso   1.000  C
  C30      1.0000 0.50410  0.13750  0.71897  Biso   1.000  C
  H23      1.0000 0.42570  0.84650  0.25290  Biso   1.000  H
  H24      1.0000 0.57430  0.15350  0.74710  Biso   1.000  H
  C31      1.0000 0.19680  0.58540  0.01644  Biso   1.000  C
  C32      1.0000 0.80320  0.41460  0.98356  Biso   1.000  C
  H25      1.0000 0.25540  0.57810  0.94950  Biso   1.000  H
  H26      1.0000 0.74460  0.42190  0.05050  Biso   1.000  H
  H27      1.0000 0.15890  0.50770  0.02300  Biso   1.000  H
  H28      1.0000 0.84110  0.49230  0.97700  Biso   1.000  H
  C33      1.0000 0.06690  0.72550  0.03440  Biso   1.000  C
  C34      1.0000 0.93310  0.27450  0.96560  Biso   1.000  C
  H29      1.0000 0.00920  0.73330  0.10160  Biso   1.000  H
  H30      1.0000 0.99080  0.26670  0.89840  Biso   1.000  H
  H31      1.0000 0.10480  0.80320  0.02680  Biso   1.000  H
  H32      1.0000 0.89520  0.19680  0.97320  Biso   1.000  H
  C35      1.0000 0.96640  0.74200  0.96650  Biso   1.000  C
  C36      1.0000 0.03360  0.25800  0.03350  Biso   1.000  C
  H33      1.0000 0.92370  0.66770  0.97630  Biso   1.000  H
  H34      1.0000 0.07630  0.33230  0.02370  Biso   1.000  H
  H35      1.0000 0.02420  0.73040  0.89900  Biso   1.000  H
  H36      1.0000 0.97580  0.26960  0.10100  Biso   1.000  H
  C37      1.0000 0.84260  0.88640  0.98410  Biso   1.000  C
  C38      1.0000 0.15740  0.11360  0.01590  Biso   1.000  C
  H37      1.0000 0.88680  0.95930  0.97140  Biso   1.000  H
  H38      1.0000 0.11320  0.04070  0.02860  Biso   1.000  H
  H39      1.0000 0.79030  0.89920  0.05300  Biso   1.000  H
  H40      1.0000 0.20970  0.10080  0.94700  Biso   1.000  H
  H41      1.0000 0.17000  0.96500  0.46200  Biso   1.000  H
  H42      1.0000 0.83000  0.03500  0.53800  Biso   1.000  H
