data_image0
_cell_length_a       8.8569
_cell_length_b       10.7058
_cell_length_c       20.4918
_cell_angle_alpha    99.344
_cell_angle_beta     98.779
_cell_angle_gamma    94.067

_symmetry_space_group_name_H-M    "P 1"
_symmetry_int_tables_number       1

loop_
  _symmetry_equiv_pos_as_xyz
  'x, y, z'

loop_
  _atom_site_label
  _atom_site_occupancy
  _atom_site_fract_x
  _atom_site_fract_y
  _atom_site_fract_z
  _atom_site_thermal_displace_type
  _atom_site_B_iso_or_equiv
  _atom_site_type_symbol
  Cu1      1.0000 0.85867  0.78224  0.07518  Biso   1.000  Cu
  Cu2      1.0000 0.14133  0.21776  0.92482  Biso   1.000  Cu
  Cu3      1.0000 0.84267  0.27856  0.56766  Biso   1.000  Cu
  Cu4      1.0000 0.15733  0.72144  0.43234  Biso   1.000  Cu
  V1       1.0000 0.65937  0.17167  0.27369  Biso   1.000  V
  V2       1.0000 0.34063  0.82833  0.72631  Biso   1.000  V
  V3       1.0000 0.77492  0.09236  0.12630  Biso   1.000  V
  V4       1.0000 0.22508  0.90764  0.87370  Biso   1.000  V
  V5       1.0000 0.91090  0.76407  0.92602  Biso   1.000  V
  V6       1.0000 0.08910  0.23593  0.07398  Biso   1.000  V
  V7       1.0000 0.67312  0.69824  0.77639  Biso   1.000  V
  V8       1.0000 0.32688  0.30176  0.22361  Biso   1.000  V
  V9       1.0000 0.78093  0.59224  0.63497  Biso   1.000  V
  V10      1.0000 0.21907  0.40776  0.36503  Biso   1.000  V
  V11      1.0000 0.90460  0.26629  0.41990  Biso   1.000  V
  V12      1.0000 0.09540  0.73371  0.58010  Biso   1.000  V
  O1       1.0000 0.65150  0.02541  0.28335  Biso   1.000  O
  O2       1.0000 0.34850  0.97459  0.71665  Biso   1.000  O
  O3       1.0000 0.75908  0.26823  0.34637  Biso   1.000  O
  O4       1.0000 0.24092  0.73177  0.65363  Biso   1.000  O
  O5       1.0000 0.74910  0.18841  0.20638  Biso   1.000  O
  O6       1.0000 0.25090  0.81159  0.79362  Biso   1.000  O
  O7       1.0000 0.90578  0.18452  0.08976  Biso   1.000  O
  O8       1.0000 0.09422  0.81548  0.91024  Biso   1.000  O
  O9       1.0000 0.61110  0.06494  0.07735  Biso   1.000  O
  O10      1.0000 0.38890  0.93506  0.92265  Biso   1.000  O
  O11      1.0000 0.83500  0.95612  0.14081  Biso   1.000  O
  O12      1.0000 0.16500  0.04388  0.85919  Biso   1.000  O
  O13      1.0000 0.86883  0.85302  0.99517  Biso   1.000  O
  O14      1.0000 0.13117  0.14698  0.00483  Biso   1.000  O
  O15      1.0000 0.91080  0.61858  0.93661  Biso   1.000  O
  O16      1.0000 0.08920  0.38142  0.06339  Biso   1.000  O
  O17      1.0000 0.76620  0.77761  0.85481  Biso   1.000  O
  O18      1.0000 0.23380  0.22239  0.14519  Biso   1.000  O
  O19      1.0000 0.59620  0.56239  0.78241  Biso   1.000  O
  O20      1.0000 0.40380  0.43761  0.21759  Biso   1.000  O
  O21      1.0000 0.46500  0.20603  0.25664  Biso   1.000  O
  O22      1.0000 0.53500  0.79397  0.74336  Biso   1.000  O
  O23      1.0000 0.80622  0.67793  0.72266  Biso   1.000  O
  O24      1.0000 0.19378  0.32207  0.27734  Biso   1.000  O
  O25      1.0000 0.60870  0.60178  0.59891  Biso   1.000  O
  O26      1.0000 0.39130  0.39822  0.40109  Biso   1.000  O
  O27      1.0000 0.80540  0.44237  0.63783  Biso   1.000  O
  O28      1.0000 0.19460  0.55763  0.36217  Biso   1.000  O
  O29      1.0000 0.84964  0.34933  0.48769  Biso   1.000  O
  O30      1.0000 0.15036  0.65067  0.51231  Biso   1.000  O
  O31      1.0000 0.92080  0.12261  0.43154  Biso   1.000  O
  O32      1.0000 0.07920  0.87739  0.56846  Biso   1.000  O
  O33      1.0000 0.91680  0.66604  0.59274  Biso   1.000  O
  O34      1.0000 0.08320  0.33396  0.40726  Biso   1.000  O
  N1       1.0000 0.63810  0.70872  0.05542  Biso   1.000  N
  N2       1.0000 0.36190  0.29128  0.94458  Biso   1.000  N
  N3       1.0000 0.86840  0.65630  0.13326  Biso   1.000  N
  N4       1.0000 0.13160  0.34370  0.86674  Biso   1.000  N
  N5       1.0000 0.08600  0.80490  0.11140  Biso   1.000  N
  N6       1.0000 0.91400  0.19510  0.88860  Biso   1.000  N
  N7       1.0000 0.62260  0.20361  0.54852  Biso   1.000  N
  N8       1.0000 0.37740  0.79639  0.45148  Biso   1.000  N
  N9       1.0000 0.85290  0.15832  0.62878  Biso   1.000  N
  N10      1.0000 0.14710  0.84168  0.37122  Biso   1.000  N
  N11      1.0000 0.06920  0.30621  0.60486  Biso   1.000  N
  N12      1.0000 0.93080  0.69379  0.39514  Biso   1.000  N
  C1       1.0000 0.52530  0.74660  0.01391  Biso   1.000  C
  C2       1.0000 0.47470  0.25340  0.98609  Biso   1.000  C
  H1       1.0000 0.54860  0.81320  0.99040  Biso   1.000  H
  H2       1.0000 0.45140  0.18680  0.00960  Biso   1.000  H
  C3       1.0000 0.37460  0.69080  0.00429  Biso   1.000  C
  C4       1.0000 0.62540  0.30920  0.99571  Biso   1.000  C
  H3       1.0000 0.29630  0.71850  0.97440  Biso   1.000  H
  H4       1.0000 0.70370  0.28150  0.02560  Biso   1.000  H
  C5       1.0000 0.34090  0.59430  0.03899  Biso   1.000  C
  C6       1.0000 0.65910  0.40570  0.96101  Biso   1.000  C
  H5       1.0000 0.23910  0.55460  0.03290  Biso   1.000  H
  H6       1.0000 0.76090  0.44540  0.96710  Biso   1.000  H
  C7       1.0000 0.45740  0.55620  0.08287  Biso   1.000  C
  C8       1.0000 0.54260  0.44380  0.91713  Biso   1.000  C
  H7       1.0000 0.43620  0.49130  0.10770  Biso   1.000  H
  H8       1.0000 0.56380  0.50870  0.89230  Biso   1.000  H
  C9       1.0000 0.60530  0.61467  0.08960  Biso   1.000  C
  C10      1.0000 0.39470  0.38533  0.91040  Biso   1.000  C
  C11      1.0000 0.74090  0.58210  0.13357  Biso   1.000  C
  C12      1.0000 0.25910  0.41790  0.86643  Biso   1.000  C
  C13      1.0000 0.74600  0.48620  0.17211  Biso   1.000  C
  C14      1.0000 0.25400  0.51380  0.82789  Biso   1.000  C
  H9       1.0000 0.65650  0.43190  0.17230  Biso   1.000  H
  H10      1.0000 0.34350  0.56810  0.82770  Biso   1.000  H
  C15      1.0000 0.88570  0.47200  0.21029  Biso   1.000  C
  C16      1.0000 0.11430  0.52800  0.78971  Biso   1.000  C
  H11      1.0000 0.89150  0.40780  0.23740  Biso   1.000  H
  H12      1.0000 0.10850  0.59220  0.76260  Biso   1.000  H
  C17      1.0000 0.01740  0.55060  0.20933  Biso   1.000  C
  C18      1.0000 0.98260  0.44940  0.79067  Biso   1.000  C
  H13      1.0000 0.11280  0.54180  0.23560  Biso   1.000  H
  H14      1.0000 0.88720  0.45820  0.76440  Biso   1.000  H
  C19      1.0000 0.00430  0.64280  0.16845  Biso   1.000  C
  C20      1.0000 0.99570  0.35720  0.83155  Biso   1.000  C
  C21      1.0000 0.12900  0.73360  0.15858  Biso   1.000  C
  C22      1.0000 0.87100  0.26640  0.84142  Biso   1.000  C
  C23      1.0000 0.27720  0.74770  0.19415  Biso   1.000  C
  C24      1.0000 0.72280  0.25230  0.80585  Biso   1.000  C
  H15      1.0000 0.30630  0.69550  0.22630  Biso   1.000  H
  H16      1.0000 0.69370  0.30450  0.77370  Biso   1.000  H
  C25      1.0000 0.38230  0.84020  0.18164  Biso   1.000  C
  C26      1.0000 0.61770  0.15980  0.81836  Biso   1.000  C
  H17      1.0000 0.48420  0.85250  0.20580  Biso   1.000  H
  H18      1.0000 0.51580  0.14750  0.79420  Biso   1.000  H
  C27      1.0000 0.33810  0.91390  0.13403  Biso   1.000  C
  C28      1.0000 0.66190  0.08610  0.86597  Biso   1.000  C
  H19      1.0000 0.40850  0.97750  0.12500  Biso   1.000  H
  H20      1.0000 0.59150  0.02250  0.87500  Biso   1.000  H
  C29      1.0000 0.18780  0.89290  0.09949  Biso   1.000  C
  C30      1.0000 0.81220  0.10710  0.90051  Biso   1.000  C
  H21      1.0000 0.15680  0.94280  0.06640  Biso   1.000  H
  H22      1.0000 0.84320  0.05720  0.93360  Biso   1.000  H
  C31      1.0000 0.50950  0.23910  0.50615  Biso   1.000  C
  C32      1.0000 0.49050  0.76090  0.49385  Biso   1.000  C
  H23      1.0000 0.53320  0.30230  0.48070  Biso   1.000  H
  H24      1.0000 0.46680  0.69770  0.51930  Biso   1.000  H
  C33      1.0000 0.35820  0.18610  0.49840  Biso   1.000  C
  C34      1.0000 0.64180  0.81390  0.50160  Biso   1.000  C
  H25      1.0000 0.27970  0.21240  0.46800  Biso   1.000  H
  H26      1.0000 0.72030  0.78760  0.53200  Biso   1.000  H
  C35      1.0000 0.32450  0.09400  0.53589  Biso   1.000  C
  C36      1.0000 0.67550  0.90600  0.46411  Biso   1.000  C
  H27      1.0000 0.22240  0.05580  0.53120  Biso   1.000  H
  H28      1.0000 0.77760  0.94420  0.46880  Biso   1.000  H
  C37      1.0000 0.44170  0.05830  0.58049  Biso   1.000  C
  C38      1.0000 0.55830  0.94170  0.41951  Biso   1.000  C
  H29      1.0000 0.42050  0.99620  0.60700  Biso   1.000  H
  H30      1.0000 0.57950  0.00380  0.39300  Biso   1.000  H
  C39      1.0000 0.58910  0.11450  0.58556  Biso   1.000  C
  C40      1.0000 0.41090  0.88550  0.41444  Biso   1.000  C
  C41      1.0000 0.72510  0.08580  0.63109  Biso   1.000  C
  C42      1.0000 0.27490  0.91420  0.36891  Biso   1.000  C
  C43      1.0000 0.72980  0.99650  0.67325  Biso   1.000  C
  C44      1.0000 0.27020  0.00350  0.32675  Biso   1.000  C
  H31      1.0000 0.64060  0.94310  0.67480  Biso   1.000  H
  H32      1.0000 0.35940  0.05690  0.32520  Biso   1.000  H
  C45      1.0000 0.86930  0.98760  0.71324  Biso   1.000  C
  C46      1.0000 0.13070  0.01240  0.28676  Biso   1.000  C
  H33      1.0000 0.87490  0.92770  0.74280  Biso   1.000  H
  H34      1.0000 0.12510  0.07230  0.25720  Biso   1.000  H
  C47      1.0000 0.00040  0.06490  0.71069  Biso   1.000  C
  C48      1.0000 0.99960  0.93510  0.28931  Biso   1.000  C
  H35      1.0000 0.09520  0.05960  0.73850  Biso   1.000  H
  H36      1.0000 0.90480  0.94040  0.26150  Biso   1.000  H
  C49      1.0000 0.98840  0.15010  0.66618  Biso   1.000  C
  C50      1.0000 0.01160  0.84990  0.33382  Biso   1.000  C
  C51      1.0000 0.11180  0.23990  0.65458  Biso   1.000  C
  C52      1.0000 0.88820  0.76010  0.34542  Biso   1.000  C
  C53      1.0000 0.25930  0.25950  0.69159  Biso   1.000  C
  C54      1.0000 0.74070  0.74050  0.30841  Biso   1.000  C
  H37      1.0000 0.28820  0.21160  0.72590  Biso   1.000  H
  H38      1.0000 0.71180  0.78840  0.27410  Biso   1.000  H
  C55      1.0000 0.36340  0.35050  0.67735  Biso   1.000  C
  C56      1.0000 0.63660  0.64950  0.32265  Biso   1.000  C
  H39      1.0000 0.46470  0.36560  0.70210  Biso   1.000  H
  H40      1.0000 0.53530  0.63440  0.29790  Biso   1.000  H
  C57      1.0000 0.31970  0.41890  0.62718  Biso   1.000  C
  C58      1.0000 0.68030  0.58110  0.37282  Biso   1.000  C
  H41      1.0000 0.38950  0.48200  0.61730  Biso   1.000  H
  H42      1.0000 0.61050  0.51800  0.38270  Biso   1.000  H
  C59      1.0000 0.17050  0.39330  0.59136  Biso   1.000  C
  C60      1.0000 0.82950  0.60670  0.40864  Biso   1.000  C
  H43      1.0000 0.13990  0.43900  0.55630  Biso   1.000  H
  H44      1.0000 0.86010  0.56100  0.44370  Biso   1.000  H
