data_image0
_cell_length_a       9.0201
_cell_length_b       17.22
_cell_length_c       14.8472
_cell_angle_alpha    90
_cell_angle_beta     99.985
_cell_angle_gamma    90

_symmetry_space_group_name_H-M    "P 1"
_symmetry_int_tables_number       1

loop_
  _symmetry_equiv_pos_as_xyz
  'x, y, z'

loop_
  _atom_site_label
  _atom_site_occupancy
  _atom_site_fract_x
  _atom_site_fract_y
  _atom_site_fract_z
  _atom_site_thermal_displace_type
  _atom_site_B_iso_or_equiv
  _atom_site_type_symbol
  Cu1      1.0000 0.25933  0.06535  0.30082  Biso   1.000  Cu
  Cu2      1.0000 0.24067  0.56534  0.19918  Biso   1.000  Cu
  Cu3      1.0000 0.74067  0.93465  0.69918  Biso   1.000  Cu
  Cu4      1.0000 0.75933  0.43466  0.80082  Biso   1.000  Cu
  V1       1.0000 0.72765  0.94392  0.17150  Biso   1.000  V
  V2       1.0000 0.77235  0.44392  0.32850  Biso   1.000  V
  V3       1.0000 0.27235  0.05608  0.82850  Biso   1.000  V
  V4       1.0000 0.22765  0.55608  0.67150  Biso   1.000  V
  V5       1.0000 0.99505  0.23537  0.31356  Biso   1.000  V
  V6       1.0000 0.50495  0.73537  0.18644  Biso   1.000  V
  V7       1.0000 0.00495  0.76463  0.68644  Biso   1.000  V
  V8       1.0000 0.49505  0.26463  0.81356  Biso   1.000  V
  P1       1.0000 0.92899  0.09177  0.17549  Biso   1.000  P
  P2       1.0000 0.57101  0.59177  0.32451  Biso   1.000  P
  P3       1.0000 0.07101  0.90823  0.82451  Biso   1.000  P
  P4       1.0000 0.42899  0.40823  0.67549  Biso   1.000  P
  P5       1.0000 0.60849  0.08744  0.81362  Biso   1.000  P
  P6       1.0000 0.89151  0.58744  0.68638  Biso   1.000  P
  P7       1.0000 0.39151  0.91256  0.18638  Biso   1.000  P
  P8       1.0000 0.10849  0.41256  0.31362  Biso   1.000  P
  O1       1.0000 0.07089  0.05022  0.21780  Biso   1.000  O
  O2       1.0000 0.42911  0.55022  0.28220  Biso   1.000  O
  O3       1.0000 0.92911  0.94978  0.78220  Biso   1.000  O
  O4       1.0000 0.57089  0.44978  0.71780  Biso   1.000  O
  O5       1.0000 0.91888  0.17615  0.20935  Biso   1.000  O
  O6       1.0000 0.58112  0.67615  0.29065  Biso   1.000  O
  O7       1.0000 0.08112  0.82385  0.79065  Biso   1.000  O
  O8       1.0000 0.41888  0.32385  0.70935  Biso   1.000  O
  O9       1.0000 0.78712  0.04804  0.19367  Biso   1.000  O
  O10      1.0000 0.71288  0.54804  0.30633  Biso   1.000  O
  O11      1.0000 0.21288  0.95196  0.80633  Biso   1.000  O
  O12      1.0000 0.28712  0.45196  0.69367  Biso   1.000  O
  O13      1.0000 0.61722  0.03642  0.73360  Biso   1.000  O
  O14      1.0000 0.88278  0.53642  0.76640  Biso   1.000  O
  O15      1.0000 0.38278  0.96358  0.26640  Biso   1.000  O
  O16      1.0000 0.11722  0.46358  0.23360  Biso   1.000  O
  O17      1.0000 0.58361  0.17361  0.78273  Biso   1.000  O
  O18      1.0000 0.91639  0.67361  0.71727  Biso   1.000  O
  O19      1.0000 0.41639  0.82639  0.21727  Biso   1.000  O
  O20      1.0000 0.08361  0.32639  0.28273  Biso   1.000  O
  O21      1.0000 0.48036  0.06379  0.86633  Biso   1.000  O
  O22      1.0000 0.01964  0.56379  0.63367  Biso   1.000  O
  O23      1.0000 0.51964  0.93621  0.13367  Biso   1.000  O
  O24      1.0000 0.98036  0.43621  0.36633  Biso   1.000  O
  O25      1.0000 0.77716  0.89575  0.26520  Biso   1.000  O
  O26      1.0000 0.72284  0.39575  0.23480  Biso   1.000  O
  O27      1.0000 0.22284  0.10425  0.73480  Biso   1.000  O
  O28      1.0000 0.27716  0.60425  0.76520  Biso   1.000  O
  O29      1.0000 0.81495  0.90902  0.09387  Biso   1.000  O
  O30      1.0000 0.68505  0.40902  0.40613  Biso   1.000  O
  O31      1.0000 0.18505  0.09098  0.90613  Biso   1.000  O
  O32      1.0000 0.31495  0.59098  0.59387  Biso   1.000  O
  O33      1.0000 0.11785  0.18417  0.38059  Biso   1.000  O
  O34      1.0000 0.38215  0.68417  0.11941  Biso   1.000  O
  O35      1.0000 0.88215  0.81583  0.61941  Biso   1.000  O
  O36      1.0000 0.61785  0.31583  0.88059  Biso   1.000  O
  O37      1.0000 0.86248  0.25545  0.36998  Biso   1.000  O
  O38      1.0000 0.63752  0.75545  0.13002  Biso   1.000  O
  O39      1.0000 0.13752  0.74455  0.63002  Biso   1.000  O
  O40      1.0000 0.36248  0.24455  0.86998  Biso   1.000  O
  N1       1.0000 0.36093  0.13903  0.22320  Biso   1.000  N
  N2       1.0000 0.13907  0.63903  0.27680  Biso   1.000  N
  N3       1.0000 0.63907  0.86097  0.77680  Biso   1.000  N
  N4       1.0000 0.86093  0.36097  0.72320  Biso   1.000  N
  N5       1.0000 0.40105  0.11620  0.39561  Biso   1.000  N
  N6       1.0000 0.09895  0.61620  0.10439  Biso   1.000  N
  N7       1.0000 0.59895  0.88380  0.60439  Biso   1.000  N
  N8       1.0000 0.90105  0.38380  0.89561  Biso   1.000  N
  N9       1.0000 0.20941  0.00928  0.41162  Biso   1.000  N
  N10      1.0000 0.29059  0.50928  0.08838  Biso   1.000  N
  N11      1.0000 0.79059  0.99072  0.58838  Biso   1.000  N
  N12      1.0000 0.70941  0.49072  0.91162  Biso   1.000  N
  C1       1.0000 0.11322  0.95026  0.41237  Biso   1.000  C
  C2       1.0000 0.38678  0.45026  0.08763  Biso   1.000  C
  C3       1.0000 0.88678  0.04974  0.58763  Biso   1.000  C
  C4       1.0000 0.61322  0.54974  0.91237  Biso   1.000  C
  H1       1.0000 0.05160  0.93500  0.35670  Biso   1.000  H
  H2       1.0000 0.44840  0.43500  0.14330  Biso   1.000  H
  H3       1.0000 0.94840  0.06500  0.64330  Biso   1.000  H
  H4       1.0000 0.55160  0.56500  0.85670  Biso   1.000  H
  C5       1.0000 0.10083  0.91063  0.49228  Biso   1.000  C
  C6       1.0000 0.39917  0.41063  0.00772  Biso   1.000  C
  C7       1.0000 0.89917  0.08937  0.50772  Biso   1.000  C
  C8       1.0000 0.60083  0.58937  0.99228  Biso   1.000  C
  H5       1.0000 0.03070  0.86940  0.49130  Biso   1.000  H
  H6       1.0000 0.46930  0.36940  0.00870  Biso   1.000  H
  H7       1.0000 0.96930  0.13060  0.50870  Biso   1.000  H
  H8       1.0000 0.53070  0.63060  0.99130  Biso   1.000  H
  C9       1.0000 0.19210  0.93211  0.57336  Biso   1.000  C
  C10      1.0000 0.30790  0.43211  0.92664  Biso   1.000  C
  C11      1.0000 0.80790  0.06789  0.42664  Biso   1.000  C
  C12      1.0000 0.69210  0.56789  0.07336  Biso   1.000  C
  H9       1.0000 0.18650  0.90510  0.62850  Biso   1.000  H
  H10      1.0000 0.31350  0.40510  0.87150  Biso   1.000  H
  H11      1.0000 0.81350  0.09490  0.37150  Biso   1.000  H
  H12      1.0000 0.68650  0.59490  0.12850  Biso   1.000  H
  C13      1.0000 0.29217  0.99358  0.57336  Biso   1.000  C
  C14      1.0000 0.20783  0.49358  0.92664  Biso   1.000  C
  C15      1.0000 0.70783  0.00642  0.42664  Biso   1.000  C
  C16      1.0000 0.79217  0.50642  0.07336  Biso   1.000  C
  H13      1.0000 0.35550  0.00940  0.62820  Biso   1.000  H
  H14      1.0000 0.14450  0.50940  0.87180  Biso   1.000  H
  H15      1.0000 0.64450  0.99060  0.37180  Biso   1.000  H
  H16      1.0000 0.85550  0.49060  0.12820  Biso   1.000  H
  C17      1.0000 0.29710  0.03114  0.49129  Biso   1.000  C
  C18      1.0000 0.20290  0.53114  0.00871  Biso   1.000  C
  C19      1.0000 0.70290  0.96886  0.50871  Biso   1.000  C
  C20      1.0000 0.79710  0.46886  0.99129  Biso   1.000  C
  C21      1.0000 0.39748  0.09749  0.48258  Biso   1.000  C
  C22      1.0000 0.10252  0.59749  0.01742  Biso   1.000  C
  C23      1.0000 0.60252  0.90251  0.51742  Biso   1.000  C
  C24      1.0000 0.89748  0.40251  0.98258  Biso   1.000  C
  C25      1.0000 0.47935  0.14021  0.55382  Biso   1.000  C
  C26      1.0000 0.02065  0.64021  0.94618  Biso   1.000  C
  C27      1.0000 0.52065  0.85979  0.44618  Biso   1.000  C
  C28      1.0000 0.97935  0.35979  0.05382  Biso   1.000  C
  H17      1.0000 0.47960  0.12640  0.61580  Biso   1.000  H
  H18      1.0000 0.02040  0.62640  0.88420  Biso   1.000  H
  H19      1.0000 0.52040  0.87360  0.38420  Biso   1.000  H
  H20      1.0000 0.97960  0.37360  0.11580  Biso   1.000  H
  C29      1.0000 0.56064  0.20366  0.53133  Biso   1.000  C
  C30      1.0000 0.93936  0.70366  0.96867  Biso   1.000  C
  C31      1.0000 0.43936  0.79634  0.46867  Biso   1.000  C
  C32      1.0000 0.06064  0.29634  0.03133  Biso   1.000  C
  H21      1.0000 0.61750  0.23370  0.57880  Biso   1.000  H
  H22      1.0000 0.88250  0.73370  0.92120  Biso   1.000  H
  H23      1.0000 0.38250  0.76630  0.42120  Biso   1.000  H
  H24      1.0000 0.11750  0.26630  0.07880  Biso   1.000  H
  C33      1.0000 0.56031  0.22404  0.44045  Biso   1.000  C
  C34      1.0000 0.93969  0.72404  0.05955  Biso   1.000  C
  C35      1.0000 0.43969  0.77596  0.55955  Biso   1.000  C
  C36      1.0000 0.06031  0.27596  0.94045  Biso   1.000  C
  H25      1.0000 0.61440  0.26800  0.42500  Biso   1.000  H
  H26      1.0000 0.88560  0.76800  0.07500  Biso   1.000  H
  H27      1.0000 0.38560  0.73200  0.57500  Biso   1.000  H
  H28      1.0000 0.11440  0.23200  0.92500  Biso   1.000  H
  C37      1.0000 0.47775  0.17747  0.37308  Biso   1.000  C
  C38      1.0000 0.02225  0.67747  0.12692  Biso   1.000  C
  C39      1.0000 0.52225  0.82253  0.62692  Biso   1.000  C
  C40      1.0000 0.97775  0.32253  0.87308  Biso   1.000  C
  C41      1.0000 0.46313  0.18711  0.27269  Biso   1.000  C
  C42      1.0000 0.03687  0.68711  0.22731  Biso   1.000  C
  C43      1.0000 0.53687  0.81289  0.72731  Biso   1.000  C
  C44      1.0000 0.96313  0.31289  0.77269  Biso   1.000  C
  C45      1.0000 0.55007  0.23801  0.23176  Biso   1.000  C
  C46      1.0000 0.94993  0.73801  0.26824  Biso   1.000  C
  C47      1.0000 0.44993  0.76199  0.76824  Biso   1.000  C
  C48      1.0000 0.05007  0.26199  0.73176  Biso   1.000  C
  H29      1.0000 0.61840  0.27250  0.26760  Biso   1.000  H
  H30      1.0000 0.88160  0.77250  0.23240  Biso   1.000  H
  H31      1.0000 0.38160  0.72750  0.73240  Biso   1.000  H
  H32      1.0000 0.11840  0.22750  0.76760  Biso   1.000  H
  C49      1.0000 0.53510  0.23746  0.13678  Biso   1.000  C
  C50      1.0000 0.96490  0.73746  0.36322  Biso   1.000  C
  C51      1.0000 0.46490  0.76254  0.86322  Biso   1.000  C
  C52      1.0000 0.03510  0.26254  0.63678  Biso   1.000  C
  H33      1.0000 0.59510  0.27100  0.10710  Biso   1.000  H
  H34      1.0000 0.90490  0.77100  0.39290  Biso   1.000  H
  H35      1.0000 0.40490  0.72900  0.89290  Biso   1.000  H
  H36      1.0000 0.09510  0.22900  0.60710  Biso   1.000  H
  C53      1.0000 0.43256  0.18801  0.08585  Biso   1.000  C
  C54      1.0000 0.06744  0.68801  0.41415  Biso   1.000  C
  C55      1.0000 0.56744  0.81199  0.91415  Biso   1.000  C
  C56      1.0000 0.93256  0.31199  0.58585  Biso   1.000  C
  H37      1.0000 0.42100  0.18690  0.02100  Biso   1.000  H
  H38      1.0000 0.07900  0.68690  0.47900  Biso   1.000  H
  H39      1.0000 0.57900  0.81310  0.97900  Biso   1.000  H
  H40      1.0000 0.92100  0.31310  0.52100  Biso   1.000  H
  C57      1.0000 0.34665  0.13989  0.13200  Biso   1.000  C
  C58      1.0000 0.15335  0.63989  0.36800  Biso   1.000  C
  C59      1.0000 0.65335  0.86011  0.86800  Biso   1.000  C
  C60      1.0000 0.84665  0.36011  0.63200  Biso   1.000  C
  H41      1.0000 0.27500  0.10630  0.09730  Biso   1.000  H
  H42      1.0000 0.22500  0.60630  0.40270  Biso   1.000  H
  H43      1.0000 0.72500  0.89370  0.90270  Biso   1.000  H
  H44      1.0000 0.77500  0.39370  0.59730  Biso   1.000  H
  C61      1.0000 0.77900  0.08369  0.89586  Biso   1.000  C
  C62      1.0000 0.72100  0.58369  0.60414  Biso   1.000  C
  C63      1.0000 0.22100  0.91631  0.10414  Biso   1.000  C
  C64      1.0000 0.27900  0.41631  0.39586  Biso   1.000  C
  H45      1.0000 0.85680  0.11340  0.87100  Biso   1.000  H
  H46      1.0000 0.64320  0.61340  0.62900  Biso   1.000  H
  H47      1.0000 0.14320  0.88660  0.12900  Biso   1.000  H
  H48      1.0000 0.35680  0.38660  0.37100  Biso   1.000  H
  H49      1.0000 0.81280  0.02890  0.90150  Biso   1.000  H
  H50      1.0000 0.68720  0.52890  0.59850  Biso   1.000  H
  H51      1.0000 0.18720  0.97110  0.09850  Biso   1.000  H
  H52      1.0000 0.31280  0.47110  0.40150  Biso   1.000  H
  C65      1.0000 0.77407  0.11430  0.99198  Biso   1.000  C
  C66      1.0000 0.72593  0.61430  0.50802  Biso   1.000  C
  C67      1.0000 0.22593  0.88570  0.00802  Biso   1.000  C
  C68      1.0000 0.27407  0.38570  0.49198  Biso   1.000  C
  H53      1.0000 0.76070  0.17140  0.99030  Biso   1.000  H
  H54      1.0000 0.73930  0.67140  0.50970  Biso   1.000  H
  H55      1.0000 0.23930  0.82860  0.00970  Biso   1.000  H
  H56      1.0000 0.26070  0.32860  0.49030  Biso   1.000  H
  H57      1.0000 0.68830  0.09080  0.01570  Biso   1.000  H
  H58      1.0000 0.81170  0.59080  0.48430  Biso   1.000  H
  H59      1.0000 0.31170  0.90920  0.98430  Biso   1.000  H
  H60      1.0000 0.18830  0.40920  0.51570  Biso   1.000  H
  C69      1.0000 0.92231  0.09309  0.05433  Biso   1.000  C
  C70      1.0000 0.57769  0.59309  0.44567  Biso   1.000  C
  C71      1.0000 0.07769  0.90691  0.94567  Biso   1.000  C
  C72      1.0000 0.42231  0.40691  0.55433  Biso   1.000  C
  H61      1.0000 0.95240  0.04090  0.03600  Biso   1.000  H
  H62      1.0000 0.54760  0.54090  0.46400  Biso   1.000  H
  H63      1.0000 0.04760  0.95910  0.96400  Biso   1.000  H
  H64      1.0000 0.45240  0.45910  0.53600  Biso   1.000  H
  H65      1.0000 0.00000  0.13010  0.04140  Biso   1.000  H
  H66      1.0000 0.50000  0.63010  0.45860  Biso   1.000  H
  H67      1.0000 0.00000  0.86990  0.95860  Biso   1.000  H
  H68      1.0000 0.50000  0.36990  0.54140  Biso   1.000  H
