data_image0
_cell_length_a       7.9032
_cell_length_b       8.8984
_cell_length_c       11.495
_cell_angle_alpha    98.1
_cell_angle_beta     96.61
_cell_angle_gamma    114.66

_symmetry_space_group_name_H-M    "P 1"
_symmetry_int_tables_number       1

loop_
  _symmetry_equiv_pos_as_xyz
  'x, y, z'

loop_
  _atom_site_label
  _atom_site_occupancy
  _atom_site_fract_x
  _atom_site_fract_y
  _atom_site_fract_z
  _atom_site_thermal_displace_type
  _atom_site_B_iso_or_equiv
  _atom_site_type_symbol
  Cu1      1.0000 0.50000  0.00000  0.50000  Biso   1.000  Cu
  S1       1.0000 0.64927  0.37715  0.58938  Biso   1.000  S
  S2       1.0000 0.35073  0.62285  0.41062  Biso   1.000  S
  S3       1.0000 0.84572  0.99029  0.64521  Biso   1.000  S
  S4       1.0000 0.15428  0.00971  0.35479  Biso   1.000  S
  C1       1.0000 0.66670  0.42820  0.95440  Biso   1.000  C
  C2       1.0000 0.33330  0.57180  0.04560  Biso   1.000  C
  H1       1.0000 0.56990  0.39050  0.00140  Biso   1.000  H
  H2       1.0000 0.43010  0.60950  0.99860  Biso   1.000  H
  H3       1.0000 0.73650  0.54910  0.97640  Biso   1.000  H
  H4       1.0000 0.26350  0.45090  0.02360  Biso   1.000  H
  H5       1.0000 0.75140  0.37790  0.96870  Biso   1.000  H
  H6       1.0000 0.24860  0.62210  0.03130  Biso   1.000  H
  C3       1.0000 0.57630  0.37690  0.82380  Biso   1.000  C
  C4       1.0000 0.42370  0.62310  0.17620  Biso   1.000  C
  H7       1.0000 0.50550  0.25470  0.80150  Biso   1.000  H
  H8       1.0000 0.49450  0.74530  0.19850  Biso   1.000  H
  H9       1.0000 0.48820  0.42530  0.80970  Biso   1.000  H
  H10      1.0000 0.51180  0.57470  0.19030  Biso   1.000  H
  C5       1.0000 0.72300  0.43550  0.74860  Biso   1.000  C
  C6       1.0000 0.27700  0.56450  0.25140  Biso   1.000  C
  H11      1.0000 0.81570  0.39430  0.77020  Biso   1.000  H
  H12      1.0000 0.18430  0.60570  0.22980  Biso   1.000  H
  H13      1.0000 0.78800  0.55800  0.77060  Biso   1.000  H
  H14      1.0000 0.21200  0.44200  0.22940  Biso   1.000  H
  C7       1.0000 0.54540  0.51590  0.56270  Biso   1.000  C
  C8       1.0000 0.45460  0.48410  0.43730  Biso   1.000  C
  H15      1.0000 0.45160  0.50340  0.61280  Biso   1.000  H
  H16      1.0000 0.54840  0.49660  0.38720  Biso   1.000  H
  H17      1.0000 0.64320  0.63180  0.58600  Biso   1.000  H
  H18      1.0000 0.35680  0.36820  0.41400  Biso   1.000  H
  C9       1.0000 0.03610  0.05030  0.56410  Biso   1.000  C
  C10      1.0000 0.96390  0.94970  0.43590  Biso   1.000  C
  H19      1.0000 0.08640  0.17020  0.56450  Biso   1.000  H
  H20      1.0000 0.91360  0.82980  0.43550  Biso   1.000  H
  H21      1.0000 0.13740  0.02880  0.60220  Biso   1.000  H
  H22      1.0000 0.86260  0.97120  0.39780  Biso   1.000  H
  C11      1.0000 0.97530  0.10530  0.79290  Biso   1.000  C
  C12      1.0000 0.02470  0.89470  0.20710  Biso   1.000  C
  H23      1.0000 0.06680  0.06470  0.81880  Biso   1.000  H
  H24      1.0000 0.93320  0.93530  0.18120  Biso   1.000  H
  H25      1.0000 0.04390  0.22450  0.79240  Biso   1.000  H
  H26      1.0000 0.95610  0.77550  0.20760  Biso   1.000  H
  C13      1.0000 0.83790  0.08170  0.87930  Biso   1.000  C
  C14      1.0000 0.16210  0.91830  0.12070  Biso   1.000  C
  H27      1.0000 0.90690  0.15780  0.95570  Biso   1.000  H
  H28      1.0000 0.09310  0.84220  0.04430  Biso   1.000  H
  H29      1.0000 0.74150  0.11420  0.84850  Biso   1.000  H
  H30      1.0000 0.25850  0.88580  0.15150  Biso   1.000  H
  C15      1.0000 0.74170  0.90540  0.89990  Biso   1.000  C
  C16      1.0000 0.25830  0.09460  0.10010  Biso   1.000  C
  H31      1.0000 0.65770  0.90130  0.95470  Biso   1.000  H
  H32      1.0000 0.34230  0.09870  0.04530  Biso   1.000  H
  H33      1.0000 0.83540  0.87300  0.93300  Biso   1.000  H
  H34      1.0000 0.16460  0.12700  0.06700  Biso   1.000  H
  H35      1.0000 0.67030  0.82910  0.82520  Biso   1.000  H
  H36      1.0000 0.32970  0.17090  0.17480  Biso   1.000  H
  O1       1.0000 0.47490  0.20400  0.56050  Biso   1.000  O
  O2       1.0000 0.52510  0.79600  0.43950  Biso   1.000  O
  O3       1.0000 0.74080  0.09260  0.60940  Biso   1.000  O
  O4       1.0000 0.25920  0.90740  0.39060  Biso   1.000  O
  O5       1.0000 0.20590  0.82680  0.83020  Biso   1.000  O
  O6       1.0000 0.79410  0.17320  0.16980  Biso   1.000  O
  O7       1.0000 0.03320  0.72060  0.63940  Biso   1.000  O
  O8       1.0000 0.96680  0.27940  0.36060  Biso   1.000  O
  O9       1.0000 0.21540  0.59900  0.72290  Biso   1.000  O
  O10      1.0000 0.78460  0.40100  0.27710  Biso   1.000  O
  O11      1.0000 0.35920  0.85470  0.66760  Biso   1.000  O
  O12      1.0000 0.64080  0.14530  0.33240  Biso   1.000  O
  Cl1      1.0000 0.20461  0.75140  0.71555  Biso   1.000  Cl
  Cl2      1.0000 0.79539  0.24860  0.28445  Biso   1.000  Cl
