data_image0
_cell_length_a       11.614
_cell_length_b       11.614
_cell_length_c       9.249
_cell_angle_alpha    90
_cell_angle_beta     90
_cell_angle_gamma    90

_symmetry_space_group_name_H-M    "P 1"
_symmetry_int_tables_number       1

loop_
  _symmetry_equiv_pos_as_xyz
  'x, y, z'

loop_
  _atom_site_label
  _atom_site_occupancy
  _atom_site_fract_x
  _atom_site_fract_y
  _atom_site_fract_z
  _atom_site_thermal_displace_type
  _atom_site_B_iso_or_equiv
  _atom_site_type_symbol
  Cu1      1.0000 0.75000  0.75000  0.33030  Biso   1.000  Cu
  Cu2      1.0000 0.25000  0.25000  0.66970  Biso   1.000  Cu
  S1       1.0000 0.63381  0.51244  0.33744  Biso   1.000  S
  S2       1.0000 0.98756  0.63381  0.33744  Biso   1.000  S
  S3       1.0000 0.51244  0.86619  0.33744  Biso   1.000  S
  S4       1.0000 0.86619  0.98756  0.33744  Biso   1.000  S
  S5       1.0000 0.36619  0.48756  0.66256  Biso   1.000  S
  S6       1.0000 0.01244  0.36619  0.66256  Biso   1.000  S
  S7       1.0000 0.48756  0.13381  0.66256  Biso   1.000  S
  S8       1.0000 0.13381  0.01244  0.66256  Biso   1.000  S
  O1       1.0000 0.62369  0.64174  0.30810  Biso   1.000  O
  O2       1.0000 0.85826  0.62369  0.30810  Biso   1.000  O
  O3       1.0000 0.64174  0.87631  0.30810  Biso   1.000  O
  O4       1.0000 0.87631  0.85826  0.30810  Biso   1.000  O
  O5       1.0000 0.37631  0.35826  0.69190  Biso   1.000  O
  O6       1.0000 0.14174  0.37631  0.69190  Biso   1.000  O
  O7       1.0000 0.35826  0.12369  0.69190  Biso   1.000  O
  O8       1.0000 0.12369  0.14174  0.69190  Biso   1.000  O
  C1       1.0000 0.69660  0.47340  0.05850  Biso   1.000  C
  C2       1.0000 0.02660  0.69660  0.05850  Biso   1.000  C
  C3       1.0000 0.47340  0.80340  0.05850  Biso   1.000  C
  C4       1.0000 0.80340  0.02660  0.05850  Biso   1.000  C
  C5       1.0000 0.30340  0.52660  0.94150  Biso   1.000  C
  C6       1.0000 0.97340  0.30340  0.94150  Biso   1.000  C
  C7       1.0000 0.52660  0.19660  0.94150  Biso   1.000  C
  C8       1.0000 0.19660  0.97340  0.94150  Biso   1.000  C
  H1       1.0000 0.70410  0.55520  0.04780  Biso   1.000  H
  H2       1.0000 0.94480  0.70410  0.04780  Biso   1.000  H
  H3       1.0000 0.55520  0.79590  0.04780  Biso   1.000  H
  H4       1.0000 0.79590  0.94480  0.04780  Biso   1.000  H
  H5       1.0000 0.29590  0.44480  0.95220  Biso   1.000  H
  H6       1.0000 0.05520  0.29590  0.95220  Biso   1.000  H
  H7       1.0000 0.44480  0.20410  0.95220  Biso   1.000  H
  H8       1.0000 0.20410  0.05520  0.95220  Biso   1.000  H
  H9       1.0000 0.67680  0.43980  0.96700  Biso   1.000  H
  H10      1.0000 0.06020  0.67680  0.96700  Biso   1.000  H
  H11      1.0000 0.43980  0.82320  0.96700  Biso   1.000  H
  H12      1.0000 0.82320  0.06020  0.96700  Biso   1.000  H
  H13      1.0000 0.32320  0.56020  0.03300  Biso   1.000  H
  H14      1.0000 0.93980  0.32320  0.03300  Biso   1.000  H
  H15      1.0000 0.56020  0.17680  0.03300  Biso   1.000  H
  H16      1.0000 0.17680  0.93980  0.03300  Biso   1.000  H
  H17      1.0000 0.76820  0.44170  0.09170  Biso   1.000  H
  H18      1.0000 0.05830  0.76820  0.09170  Biso   1.000  H
  H19      1.0000 0.44170  0.73180  0.09170  Biso   1.000  H
  H20      1.0000 0.73180  0.05830  0.09170  Biso   1.000  H
  H21      1.0000 0.23180  0.55830  0.90830  Biso   1.000  H
  H22      1.0000 0.94170  0.23180  0.90830  Biso   1.000  H
  H23      1.0000 0.55830  0.26820  0.90830  Biso   1.000  H
  H24      1.0000 0.26820  0.94170  0.90830  Biso   1.000  H
  C9       1.0000 0.60360  0.44730  0.16670  Biso   1.000  C
  C10      1.0000 0.05270  0.60360  0.16670  Biso   1.000  C
  C11      1.0000 0.44730  0.89640  0.16670  Biso   1.000  C
  C12      1.0000 0.89640  0.05270  0.16670  Biso   1.000  C
  C13      1.0000 0.39640  0.55270  0.83330  Biso   1.000  C
  C14      1.0000 0.94730  0.39640  0.83330  Biso   1.000  C
  C15      1.0000 0.55270  0.10360  0.83330  Biso   1.000  C
  C16      1.0000 0.10360  0.94730  0.83330  Biso   1.000  C
  H25      1.0000 0.59710  0.36460  0.17890  Biso   1.000  H
  H26      1.0000 0.13540  0.59710  0.17890  Biso   1.000  H
  H27      1.0000 0.36460  0.90290  0.17890  Biso   1.000  H
  H28      1.0000 0.90290  0.13540  0.17890  Biso   1.000  H
  H29      1.0000 0.40290  0.63540  0.82110  Biso   1.000  H
  H30      1.0000 0.86460  0.40290  0.82110  Biso   1.000  H
  H31      1.0000 0.63540  0.09710  0.82110  Biso   1.000  H
  H32      1.0000 0.09710  0.86460  0.82110  Biso   1.000  H
  H33      1.0000 0.53050  0.47570  0.13070  Biso   1.000  H
  H34      1.0000 0.02430  0.53050  0.13070  Biso   1.000  H
  H35      1.0000 0.47570  0.96950  0.13070  Biso   1.000  H
  H36      1.0000 0.96950  0.02430  0.13070  Biso   1.000  H
  H37      1.0000 0.46950  0.52430  0.86930  Biso   1.000  H
  H38      1.0000 0.97570  0.46950  0.86930  Biso   1.000  H
  H39      1.0000 0.52430  0.03050  0.86930  Biso   1.000  H
  H40      1.0000 0.03050  0.97570  0.86930  Biso   1.000  H
  C17      1.0000 0.50040  0.47710  0.42410  Biso   1.000  C
  C18      1.0000 0.02290  0.50040  0.42410  Biso   1.000  C
  C19      1.0000 0.47710  0.99960  0.42410  Biso   1.000  C
  C20      1.0000 0.99960  0.02290  0.42410  Biso   1.000  C
  C21      1.0000 0.49960  0.52290  0.57590  Biso   1.000  C
  C22      1.0000 0.97710  0.49960  0.57590  Biso   1.000  C
  C23      1.0000 0.52290  0.00040  0.57590  Biso   1.000  C
  C24      1.0000 0.00040  0.97710  0.57590  Biso   1.000  C
  H41      1.0000 0.43690  0.51020  0.37010  Biso   1.000  H
  H42      1.0000 0.98980  0.43690  0.37010  Biso   1.000  H
  H43      1.0000 0.51020  0.06310  0.37010  Biso   1.000  H
  H44      1.0000 0.06310  0.98980  0.37010  Biso   1.000  H
  H45      1.0000 0.56310  0.48980  0.62990  Biso   1.000  H
  H46      1.0000 0.01020  0.56310  0.62990  Biso   1.000  H
  H47      1.0000 0.48980  0.93690  0.62990  Biso   1.000  H
  H48      1.0000 0.93690  0.01020  0.62990  Biso   1.000  H
  H49      1.0000 0.49050  0.39420  0.42570  Biso   1.000  H
  H50      1.0000 0.10580  0.49050  0.42570  Biso   1.000  H
  H51      1.0000 0.39420  0.00950  0.42570  Biso   1.000  H
  H52      1.0000 0.00950  0.10580  0.42570  Biso   1.000  H
  H53      1.0000 0.50950  0.60580  0.57430  Biso   1.000  H
  H54      1.0000 0.89420  0.50950  0.57430  Biso   1.000  H
  H55      1.0000 0.60580  0.99050  0.57430  Biso   1.000  H
  H56      1.0000 0.99050  0.89420  0.57430  Biso   1.000  H
  Cl1      1.0000 0.75000  0.25000  0.50000  Biso   1.000  Cl
  Cl2      1.0000 0.25000  0.75000  0.50000  Biso   1.000  Cl
  O9       1.0000 0.84810  0.26840  0.41020  Biso   1.000  O
  O10      1.0000 0.23160  0.84810  0.41020  Biso   1.000  O
  O11      1.0000 0.26840  0.65190  0.41020  Biso   1.000  O
  O12      1.0000 0.65190  0.23160  0.41020  Biso   1.000  O
  O13      1.0000 0.15190  0.73160  0.58980  Biso   1.000  O
  O14      1.0000 0.76840  0.15190  0.58980  Biso   1.000  O
  O15      1.0000 0.73160  0.34810  0.58980  Biso   1.000  O
  O16      1.0000 0.34810  0.76840  0.58980  Biso   1.000  O
  Cl3      1.0000 0.75000  0.75000  0.71940  Biso   1.000  Cl
  Cl4      1.0000 0.25000  0.25000  0.28060  Biso   1.000  Cl
  O17      1.0000 0.75860  0.86170  0.76310  Biso   1.000  O
  O18      1.0000 0.63830  0.75860  0.76310  Biso   1.000  O
  O19      1.0000 0.86170  0.74140  0.76310  Biso   1.000  O
  O20      1.0000 0.74140  0.63830  0.76310  Biso   1.000  O
  O21      1.0000 0.24140  0.13830  0.23690  Biso   1.000  O
  O22      1.0000 0.36170  0.24140  0.23690  Biso   1.000  O
  O23      1.0000 0.13830  0.25860  0.23690  Biso   1.000  O
  O24      1.0000 0.25860  0.36170  0.23690  Biso   1.000  O
  O25      1.0000 0.75000  0.75000  0.58020  Biso   1.000  O
  O26      1.0000 0.25000  0.25000  0.41980  Biso   1.000  O
