data_image0
_cell_length_a       7.815
_cell_length_b       8.81
_cell_length_c       13.419
_cell_angle_alpha    88.899
_cell_angle_beta     78.171
_cell_angle_gamma    66.659

_symmetry_space_group_name_H-M    "P 1"
_symmetry_int_tables_number       1

loop_
  _symmetry_equiv_pos_as_xyz
  'x, y, z'

loop_
  _atom_site_label
  _atom_site_occupancy
  _atom_site_fract_x
  _atom_site_fract_y
  _atom_site_fract_z
  _atom_site_thermal_displace_type
  _atom_site_B_iso_or_equiv
  _atom_site_type_symbol
  Cu1      1.0000 0.00000  0.00000  0.00000  Biso   1.000  Cu
  S1       1.0000 0.25410  0.06721  0.12563  Biso   1.000  S
  S2       1.0000 0.74590  0.93279  0.87437  Biso   1.000  S
  S3       1.0000 0.91638  0.33866  0.91972  Biso   1.000  S
  S4       1.0000 0.08362  0.66134  0.08028  Biso   1.000  S
  O1       1.0000 0.16410  0.95360  0.09613  Biso   1.000  O
  O2       1.0000 0.83590  0.04640  0.90387  Biso   1.000  O
  O3       1.0000 0.06940  0.17940  0.94763  Biso   1.000  O
  O4       1.0000 0.93060  0.82060  0.05237  Biso   1.000  O
  C1       1.0000 0.83000  0.28720  0.43750  Biso   1.000  C
  C2       1.0000 0.17000  0.71280  0.56250  Biso   1.000  C
  H1       1.0000 0.77240  0.40510  0.45270  Biso   1.000  H
  H2       1.0000 0.22760  0.59490  0.54730  Biso   1.000  H
  H3       1.0000 0.86160  0.23290  0.49800  Biso   1.000  H
  H4       1.0000 0.13840  0.76710  0.50200  Biso   1.000  H
  H5       1.0000 0.74220  0.25240  0.41420  Biso   1.000  H
  H6       1.0000 0.25780  0.74760  0.58580  Biso   1.000  H
  C3       1.0000 0.01130  0.24170  0.35430  Biso   1.000  C
  C4       1.0000 0.98870  0.75830  0.64570  Biso   1.000  C
  H7       1.0000 0.97880  0.29710  0.29350  Biso   1.000  H
  H8       1.0000 0.02120  0.70290  0.70650  Biso   1.000  H
  H9       1.0000 0.09770  0.28080  0.37720  Biso   1.000  H
  H10      1.0000 0.90230  0.71920  0.62280  Biso   1.000  H
  C5       1.0000 0.10950  0.06000  0.32860  Biso   1.000  C
  C6       1.0000 0.89050  0.94000  0.67140  Biso   1.000  C
  H11      1.0000 0.02340  0.02290  0.30390  Biso   1.000  H
  H12      1.0000 0.97660  0.97710  0.69610  Biso   1.000  H
  H13      1.0000 0.13510  0.00550  0.39070  Biso   1.000  H
  H14      1.0000 0.86490  0.99450  0.60930  Biso   1.000  H
  C7       1.0000 0.29590  0.00430  0.24940  Biso   1.000  C
  C8       1.0000 0.70410  0.99570  0.75060  Biso   1.000  C
  H15      1.0000 0.36100  0.88460  0.24660  Biso   1.000  H
  H16      1.0000 0.63900  0.11540  0.75340  Biso   1.000  H
  H17      1.0000 0.37780  0.05170  0.26920  Biso   1.000  H
  H18      1.0000 0.62220  0.94830  0.73080  Biso   1.000  H
  C9       1.0000 0.49600  0.97530  0.05440  Biso   1.000  C
  C10      1.0000 0.50400  0.02470  0.94560  Biso   1.000  C
  H19      1.0000 0.57580  0.01240  0.08540  Biso   1.000  H
  H20      1.0000 0.42420  0.98760  0.91460  Biso   1.000  H
  H21      1.0000 0.54370  0.85560  0.05530  Biso   1.000  H
  H22      1.0000 0.45630  0.14440  0.94470  Biso   1.000  H
  C11      1.0000 0.40060  0.21740  0.56030  Biso   1.000  C
  C12      1.0000 0.59940  0.78260  0.43970  Biso   1.000  C
  H23      1.0000 0.41010  0.21240  0.48790  Biso   1.000  H
  H24      1.0000 0.58990  0.78760  0.51210  Biso   1.000  H
  H25      1.0000 0.48300  0.11240  0.57950  Biso   1.000  H
  H26      1.0000 0.51700  0.88760  0.42050  Biso   1.000  H
  H27      1.0000 0.43820  0.30230  0.57910  Biso   1.000  H
  H28      1.0000 0.56180  0.69770  0.42090  Biso   1.000  H
  C13      1.0000 0.19880  0.25610  0.61430  Biso   1.000  C
  C14      1.0000 0.80120  0.74390  0.38570  Biso   1.000  C
  H29      1.0000 0.16140  0.17040  0.59440  Biso   1.000  H
  H30      1.0000 0.83860  0.82960  0.40560  Biso   1.000  H
  H31      1.0000 0.11590  0.36030  0.59280  Biso   1.000  H
  H32      1.0000 0.88410  0.63970  0.40720  Biso   1.000  H
  C15      1.0000 0.17100  0.26810  0.72940  Biso   1.000  C
  C16      1.0000 0.82900  0.73190  0.27060  Biso   1.000  C
  H33      1.0000 0.23910  0.15940  0.75180  Biso   1.000  H
  H34      1.0000 0.76090  0.84060  0.24820  Biso   1.000  H
  H35      1.0000 0.22570  0.34170  0.74860  Biso   1.000  H
  H36      1.0000 0.77430  0.65830  0.25140  Biso   1.000  H
  C17      1.0000 0.96600  0.33060  0.78270  Biso   1.000  C
  C18      1.0000 0.03400  0.66940  0.21730  Biso   1.000  C
  H37      1.0000 0.91080  0.26090  0.75880  Biso   1.000  H
  H38      1.0000 0.08920  0.73910  0.24120  Biso   1.000  H
  H39      1.0000 0.90100  0.44140  0.76200  Biso   1.000  H
  H40      1.0000 0.09900  0.55860  0.23800  Biso   1.000  H
  C19      1.0000 0.00510  0.49100  0.94370  Biso   1.000  C
  C20      1.0000 0.99490  0.50900  0.05630  Biso   1.000  C
  H41      1.0000 0.13620  0.45690  0.90650  Biso   1.000  H
  H42      1.0000 0.86380  0.54310  0.09350  Biso   1.000  H
  H43      1.0000 0.92930  0.59650  0.92050  Biso   1.000  H
  H44      1.0000 0.07070  0.40350  0.07950  Biso   1.000  H
  Cl1      1.0000 0.56192  0.33624  0.18585  Biso   1.000  Cl
  Cl2      1.0000 0.43808  0.66376  0.81415  Biso   1.000  Cl
  O5       1.0000 0.74640  0.22600  0.14170  Biso   1.000  O
  O6       1.0000 0.25360  0.77400  0.85830  Biso   1.000  O
  O7       1.0000 0.56130  0.49350  0.19420  Biso   1.000  O
  O8       1.0000 0.43870  0.50650  0.80580  Biso   1.000  O
  O9       1.0000 0.49810  0.29110  0.27840  Biso   1.000  O
  O10      1.0000 0.50190  0.70890  0.72160  Biso   1.000  O
  O11      1.0000 0.43480  0.33730  0.12440  Biso   1.000  O
  O12      1.0000 0.56520  0.66270  0.87560  Biso   1.000  O
