data_image0
_cell_length_a       10.612
_cell_length_b       13.454
_cell_length_c       9.89
_cell_angle_alpha    90
_cell_angle_beta     96.943
_cell_angle_gamma    90

_symmetry_space_group_name_H-M    "P 1"
_symmetry_int_tables_number       1

loop_
  _symmetry_equiv_pos_as_xyz
  'x, y, z'

loop_
  _atom_site_label
  _atom_site_occupancy
  _atom_site_fract_x
  _atom_site_fract_y
  _atom_site_fract_z
  _atom_site_thermal_displace_type
  _atom_site_B_iso_or_equiv
  _atom_site_type_symbol
  Cu1      1.0000 0.50000  0.00000  0.00000  Biso   1.000  Cu
  Cu2      1.0000 0.50000  0.50000  0.50000  Biso   1.000  Cu
  S1       1.0000 0.33397  0.19164  0.96497  Biso   1.000  S
  S2       1.0000 0.66603  0.69164  0.53503  Biso   1.000  S
  S3       1.0000 0.66603  0.80836  0.03503  Biso   1.000  S
  S4       1.0000 0.33397  0.30836  0.46497  Biso   1.000  S
  S5       1.0000 0.70156  0.39259  0.69369  Biso   1.000  S
  S6       1.0000 0.29844  0.89259  0.80631  Biso   1.000  S
  S7       1.0000 0.29844  0.60741  0.30631  Biso   1.000  S
  S8       1.0000 0.70156  0.10741  0.19369  Biso   1.000  S
  O1       1.0000 0.42960  0.12646  0.05274  Biso   1.000  O
  O2       1.0000 0.57040  0.62646  0.44726  Biso   1.000  O
  O3       1.0000 0.57040  0.87354  0.94726  Biso   1.000  O
  O4       1.0000 0.42960  0.37354  0.55274  Biso   1.000  O
  O5       1.0000 0.63575  0.49178  0.65029  Biso   1.000  O
  O6       1.0000 0.36425  0.99178  0.84971  Biso   1.000  O
  O7       1.0000 0.36425  0.50822  0.34971  Biso   1.000  O
  O8       1.0000 0.63575  0.00822  0.15029  Biso   1.000  O
  C1       1.0000 0.08170  0.24050  0.96150  Biso   1.000  C
  C2       1.0000 0.91830  0.74050  0.53850  Biso   1.000  C
  C3       1.0000 0.91830  0.75950  0.03850  Biso   1.000  C
  C4       1.0000 0.08170  0.25950  0.46150  Biso   1.000  C
  H1       1.0000 0.09950  0.30780  0.99000  Biso   1.000  H
  H2       1.0000 0.90050  0.80780  0.51000  Biso   1.000  H
  H3       1.0000 0.90050  0.69220  0.01000  Biso   1.000  H
  H4       1.0000 0.09950  0.19220  0.49000  Biso   1.000  H
  H5       1.0000 0.00100  0.22080  0.98710  Biso   1.000  H
  H6       1.0000 0.99900  0.72080  0.51290  Biso   1.000  H
  H7       1.0000 0.99900  0.77920  0.01290  Biso   1.000  H
  H8       1.0000 0.00100  0.27920  0.48710  Biso   1.000  H
  H9       1.0000 0.07960  0.23600  0.86440  Biso   1.000  H
  H10      1.0000 0.92040  0.73600  0.63560  Biso   1.000  H
  H11      1.0000 0.92040  0.76400  0.13560  Biso   1.000  H
  H12      1.0000 0.07960  0.26400  0.36440  Biso   1.000  H
  C5       1.0000 0.18390  0.17300  0.02900  Biso   1.000  C
  C6       1.0000 0.81610  0.67300  0.47100  Biso   1.000  C
  C7       1.0000 0.81610  0.82700  0.97100  Biso   1.000  C
  C8       1.0000 0.18390  0.32700  0.52900  Biso   1.000  C
  H13      1.0000 0.15770  0.10440  0.01390  Biso   1.000  H
  H14      1.0000 0.84230  0.60440  0.48610  Biso   1.000  H
  H15      1.0000 0.84230  0.89560  0.98610  Biso   1.000  H
  H16      1.0000 0.15770  0.39560  0.51390  Biso   1.000  H
  H17      1.0000 0.19420  0.18500  0.12640  Biso   1.000  H
  H18      1.0000 0.80580  0.68500  0.37360  Biso   1.000  H
  H19      1.0000 0.80580  0.81500  0.87360  Biso   1.000  H
  H20      1.0000 0.19420  0.31500  0.62640  Biso   1.000  H
  C9       1.0000 0.36910  0.31446  0.03350  Biso   1.000  C
  C10      1.0000 0.63090  0.81446  0.46650  Biso   1.000  C
  C11      1.0000 0.63090  0.68554  0.96650  Biso   1.000  C
  C12      1.0000 0.36910  0.18554  0.53350  Biso   1.000  C
  H21      1.0000 0.31140  0.36230  0.98580  Biso   1.000  H
  H22      1.0000 0.68860  0.86230  0.51420  Biso   1.000  H
  H23      1.0000 0.68860  0.63770  0.01420  Biso   1.000  H
  H24      1.0000 0.31140  0.13770  0.48580  Biso   1.000  H
  H25      1.0000 0.35660  0.31570  0.12910  Biso   1.000  H
  H26      1.0000 0.64340  0.81570  0.37090  Biso   1.000  H
  H27      1.0000 0.64340  0.68430  0.87090  Biso   1.000  H
  H28      1.0000 0.35660  0.18430  0.62910  Biso   1.000  H
  C13      1.0000 0.50430  0.34300  0.01850  Biso   1.000  C
  C14      1.0000 0.49570  0.84300  0.48150  Biso   1.000  C
  C15      1.0000 0.49570  0.65700  0.98150  Biso   1.000  C
  C16      1.0000 0.50430  0.15700  0.51850  Biso   1.000  C
  H29      1.0000 0.56100  0.29500  0.06710  Biso   1.000  H
  H30      1.0000 0.43900  0.79500  0.43290  Biso   1.000  H
  H31      1.0000 0.43900  0.70500  0.93290  Biso   1.000  H
  H32      1.0000 0.56100  0.20500  0.56710  Biso   1.000  H
  H33      1.0000 0.52210  0.40730  0.06090  Biso   1.000  H
  H34      1.0000 0.47790  0.90730  0.43910  Biso   1.000  H
  H35      1.0000 0.47790  0.59270  0.93910  Biso   1.000  H
  H36      1.0000 0.52210  0.09270  0.56090  Biso   1.000  H
  C17      1.0000 0.53220  0.34810  0.87210  Biso   1.000  C
  C18      1.0000 0.46780  0.84810  0.62790  Biso   1.000  C
  C19      1.0000 0.46780  0.65190  0.12790  Biso   1.000  C
  C20      1.0000 0.53220  0.15190  0.37210  Biso   1.000  C
  H37      1.0000 0.51450  0.28410  0.82860  Biso   1.000  H
  H38      1.0000 0.48550  0.78410  0.67140  Biso   1.000  H
  H39      1.0000 0.48550  0.71590  0.17140  Biso   1.000  H
  H40      1.0000 0.51450  0.21590  0.32860  Biso   1.000  H
  H41      1.0000 0.47740  0.39720  0.82310  Biso   1.000  H
  H42      1.0000 0.52260  0.89720  0.67690  Biso   1.000  H
  H43      1.0000 0.52260  0.60280  0.17690  Biso   1.000  H
  H44      1.0000 0.47740  0.10280  0.32310  Biso   1.000  H
  C21      1.0000 0.66890  0.37550  0.86540  Biso   1.000  C
  C22      1.0000 0.33110  0.87550  0.63460  Biso   1.000  C
  C23      1.0000 0.33110  0.62450  0.13460  Biso   1.000  C
  C24      1.0000 0.66890  0.12450  0.36540  Biso   1.000  C
  H45      1.0000 0.27670  0.82340  0.59220  Biso   1.000  H
  H46      1.0000 0.72330  0.32340  0.90780  Biso   1.000  H
  H47      1.0000 0.72330  0.17660  0.40780  Biso   1.000  H
  H48      1.0000 0.27670  0.67660  0.09220  Biso   1.000  H
  H49      1.0000 0.31170  0.93640  0.58380  Biso   1.000  H
  H50      1.0000 0.68830  0.43640  0.91620  Biso   1.000  H
  H51      1.0000 0.68830  0.06360  0.41620  Biso   1.000  H
  H52      1.0000 0.31170  0.56360  0.08380  Biso   1.000  H
  C25      1.0000 0.13330  0.92460  0.77330  Biso   1.000  C
  C26      1.0000 0.86670  0.42460  0.72670  Biso   1.000  C
  C27      1.0000 0.86670  0.07540  0.22670  Biso   1.000  C
  C28      1.0000 0.13330  0.57540  0.27330  Biso   1.000  C
  H53      1.0000 0.08710  0.86730  0.73390  Biso   1.000  H
  H54      1.0000 0.91290  0.36730  0.76610  Biso   1.000  H
  H55      1.0000 0.91290  0.13270  0.26610  Biso   1.000  H
  H56      1.0000 0.08710  0.63270  0.23390  Biso   1.000  H
  H57      1.0000 0.10210  0.93890  0.85950  Biso   1.000  H
  H58      1.0000 0.89790  0.43890  0.64050  Biso   1.000  H
  H59      1.0000 0.89790  0.06110  0.14050  Biso   1.000  H
  H60      1.0000 0.10210  0.56110  0.35950  Biso   1.000  H
  C29      1.0000 0.10370  0.01190  0.68020  Biso   1.000  C
  C30      1.0000 0.89630  0.51190  0.81980  Biso   1.000  C
  C31      1.0000 0.89630  0.98810  0.31980  Biso   1.000  C
  C32      1.0000 0.10370  0.48810  0.18020  Biso   1.000  C
  H61      1.0000 0.15610  0.06720  0.71220  Biso   1.000  H
  H62      1.0000 0.84390  0.56720  0.78780  Biso   1.000  H
  H63      1.0000 0.84390  0.93280  0.28780  Biso   1.000  H
  H64      1.0000 0.15610  0.43280  0.21220  Biso   1.000  H
  H65      1.0000 0.01600  0.02970  0.67890  Biso   1.000  H
  H66      1.0000 0.98400  0.52970  0.82110  Biso   1.000  H
  H67      1.0000 0.98400  0.97030  0.32110  Biso   1.000  H
  H68      1.0000 0.01600  0.47030  0.17890  Biso   1.000  H
  H69      1.0000 0.12000  0.99450  0.58980  Biso   1.000  H
  H70      1.0000 0.88000  0.49450  0.91020  Biso   1.000  H
  H71      1.0000 0.88000  0.00550  0.41020  Biso   1.000  H
  H72      1.0000 0.12000  0.50550  0.08980  Biso   1.000  H
  O9       1.0000 0.19930  0.83014  0.28160  Biso   1.000  O
  O10      1.0000 0.80070  0.33014  0.21840  Biso   1.000  O
  O11      1.0000 0.80070  0.16986  0.71840  Biso   1.000  O
  O12      1.0000 0.19930  0.66986  0.78160  Biso   1.000  O
  O13      1.0000 0.13360  0.94156  0.10700  Biso   1.000  O
  O14      1.0000 0.86640  0.44156  0.39300  Biso   1.000  O
  O15      1.0000 0.86640  0.05844  0.89300  Biso   1.000  O
  O16      1.0000 0.13360  0.55844  0.60700  Biso   1.000  O
  O17      1.0000 0.24770  0.99801  0.30690  Biso   1.000  O
  O18      1.0000 0.75230  0.49801  0.19310  Biso   1.000  O
  O19      1.0000 0.75230  0.00199  0.69310  Biso   1.000  O
  O20      1.0000 0.24770  0.50199  0.80690  Biso   1.000  O
  O21      1.0000 0.34990  0.90145  0.15760  Biso   1.000  O
  O22      1.0000 0.65010  0.40145  0.34240  Biso   1.000  O
  O23      1.0000 0.65010  0.09855  0.84240  Biso   1.000  O
  O24      1.0000 0.34990  0.59855  0.65760  Biso   1.000  O
  Cl1      1.0000 0.23256  0.91795  0.21324  Biso   1.000  Cl
  Cl2      1.0000 0.76744  0.41795  0.28676  Biso   1.000  Cl
  Cl3      1.0000 0.76744  0.08205  0.78676  Biso   1.000  Cl
  Cl4      1.0000 0.23256  0.58205  0.71324  Biso   1.000  Cl
