data_image0
_cell_length_a       7.784
_cell_length_b       11.184
_cell_length_c       15.254
_cell_angle_alpha    90
_cell_angle_beta     96.132
_cell_angle_gamma    90

_symmetry_space_group_name_H-M    "P 1"
_symmetry_int_tables_number       1

loop_
  _symmetry_equiv_pos_as_xyz
  'x, y, z'

loop_
  _atom_site_label
  _atom_site_occupancy
  _atom_site_fract_x
  _atom_site_fract_y
  _atom_site_fract_z
  _atom_site_thermal_displace_type
  _atom_site_B_iso_or_equiv
  _atom_site_type_symbol
  Cu1      1.0000 0.00000  0.00000  0.00000  Biso   1.000  Cu
  Cu2      1.0000 0.50000  0.50000  0.50000  Biso   1.000  Cu
  S1       1.0000 0.21216  0.90498  0.16308  Biso   1.000  S
  S2       1.0000 0.28784  0.40498  0.33692  Biso   1.000  S
  S3       1.0000 0.78784  0.09502  0.83692  Biso   1.000  S
  S4       1.0000 0.71216  0.59502  0.66308  Biso   1.000  S
  S5       1.0000 0.71487  0.80907  0.02024  Biso   1.000  S
  S6       1.0000 0.78513  0.30907  0.47976  Biso   1.000  S
  S7       1.0000 0.28513  0.19093  0.97976  Biso   1.000  S
  S8       1.0000 0.21487  0.69093  0.52024  Biso   1.000  S
  O1       1.0000 0.15190  0.01480  0.10851  Biso   1.000  O
  O2       1.0000 0.34810  0.51480  0.39149  Biso   1.000  O
  O3       1.0000 0.84810  0.98520  0.89149  Biso   1.000  O
  O4       1.0000 0.65190  0.48520  0.60851  Biso   1.000  O
  O5       1.0000 0.88210  0.87190  0.05621  Biso   1.000  O
  O6       1.0000 0.61790  0.37190  0.44379  Biso   1.000  O
  O7       1.0000 0.11790  0.12810  0.94379  Biso   1.000  O
  O8       1.0000 0.38210  0.62810  0.55621  Biso   1.000  O
  C1       1.0000 0.09430  0.03140  0.30270  Biso   1.000  C
  C2       1.0000 0.40570  0.53140  0.19730  Biso   1.000  C
  C3       1.0000 0.90570  0.96860  0.69730  Biso   1.000  C
  C4       1.0000 0.59430  0.46860  0.80270  Biso   1.000  C
  H1       1.0000 0.03260  0.02570  0.35380  Biso   1.000  H
  H2       1.0000 0.46740  0.52570  0.14620  Biso   1.000  H
  H3       1.0000 0.96740  0.97430  0.64620  Biso   1.000  H
  H4       1.0000 0.53260  0.47430  0.85380  Biso   1.000  H
  H5       1.0000 0.03570  0.08600  0.26120  Biso   1.000  H
  H6       1.0000 0.46430  0.58600  0.23880  Biso   1.000  H
  H7       1.0000 0.96430  0.91400  0.73880  Biso   1.000  H
  H8       1.0000 0.53570  0.41400  0.76120  Biso   1.000  H
  H9       1.0000 0.20940  0.05980  0.31990  Biso   1.000  H
  H10      1.0000 0.29060  0.55980  0.18010  Biso   1.000  H
  H11      1.0000 0.79060  0.94020  0.68010  Biso   1.000  H
  H12      1.0000 0.70940  0.44020  0.81990  Biso   1.000  H
  C5       1.0000 0.10260  0.91140  0.26130  Biso   1.000  C
  C6       1.0000 0.39740  0.41140  0.23870  Biso   1.000  C
  C7       1.0000 0.89740  0.08860  0.73870  Biso   1.000  C
  C8       1.0000 0.60260  0.58860  0.76130  Biso   1.000  C
  H13      1.0000 0.98550  0.88250  0.24690  Biso   1.000  H
  H14      1.0000 0.51450  0.38250  0.25310  Biso   1.000  H
  H15      1.0000 0.01450  0.11750  0.75310  Biso   1.000  H
  H16      1.0000 0.48550  0.61750  0.74690  Biso   1.000  H
  H17      1.0000 0.16010  0.85710  0.30450  Biso   1.000  H
  H18      1.0000 0.33990  0.35710  0.19550  Biso   1.000  H
  H19      1.0000 0.83990  0.14290  0.69550  Biso   1.000  H
  H20      1.0000 0.66010  0.64290  0.80450  Biso   1.000  H
  C9       1.0000 0.42630  0.94840  0.20540  Biso   1.000  C
  C10      1.0000 0.07370  0.44840  0.29460  Biso   1.000  C
  C11      1.0000 0.57370  0.05160  0.79460  Biso   1.000  C
  C12      1.0000 0.92630  0.55160  0.70540  Biso   1.000  C
  H21      1.0000 0.42510  0.03010  0.22660  Biso   1.000  H
  H22      1.0000 0.07490  0.53010  0.27340  Biso   1.000  H
  H23      1.0000 0.57490  0.96990  0.77340  Biso   1.000  H
  H24      1.0000 0.92510  0.46990  0.72660  Biso   1.000  H
  H25      1.0000 0.46700  0.89730  0.25470  Biso   1.000  H
  H26      1.0000 0.03300  0.39730  0.24530  Biso   1.000  H
  H27      1.0000 0.53300  0.10270  0.74530  Biso   1.000  H
  H28      1.0000 0.96700  0.60270  0.75470  Biso   1.000  H
  C13      1.0000 0.54710  0.93900  0.13520  Biso   1.000  C
  C14      1.0000 0.95290  0.43900  0.36480  Biso   1.000  C
  C15      1.0000 0.45290  0.06100  0.86480  Biso   1.000  C
  C16      1.0000 0.04710  0.56100  0.63520  Biso   1.000  C
  H29      1.0000 0.65460  0.97900  0.15550  Biso   1.000  H
  H30      1.0000 0.84540  0.47900  0.34450  Biso   1.000  H
  H31      1.0000 0.34540  0.02100  0.84450  Biso   1.000  H
  H32      1.0000 0.15460  0.52100  0.65550  Biso   1.000  H
  H33      1.0000 0.49640  0.98020  0.08280  Biso   1.000  H
  H34      1.0000 0.00360  0.48020  0.41720  Biso   1.000  H
  H35      1.0000 0.50360  0.01980  0.91720  Biso   1.000  H
  H36      1.0000 0.99640  0.51980  0.58280  Biso   1.000  H
  C17      1.0000 0.58610  0.81220  0.11130  Biso   1.000  C
  C18      1.0000 0.91390  0.31220  0.38870  Biso   1.000  C
  C19      1.0000 0.41390  0.18780  0.88870  Biso   1.000  C
  C20      1.0000 0.08610  0.68780  0.61130  Biso   1.000  C
  H37      1.0000 0.64770  0.77250  0.16170  Biso   1.000  H
  H38      1.0000 0.85230  0.27250  0.33830  Biso   1.000  H
  H39      1.0000 0.35230  0.22750  0.83830  Biso   1.000  H
  H40      1.0000 0.14770  0.72750  0.66170  Biso   1.000  H
  H41      1.0000 0.47880  0.76940  0.09550  Biso   1.000  H
  H42      1.0000 0.02120  0.26940  0.40450  Biso   1.000  H
  H43      1.0000 0.52120  0.23060  0.90450  Biso   1.000  H
  H44      1.0000 0.97880  0.73060  0.59550  Biso   1.000  H
  C21      1.0000 0.77030  0.65230  0.01970  Biso   1.000  C
  C22      1.0000 0.72970  0.15230  0.48030  Biso   1.000  C
  C23      1.0000 0.22970  0.34770  0.98030  Biso   1.000  C
  C24      1.0000 0.27030  0.84770  0.51970  Biso   1.000  C
  H45      1.0000 0.82040  0.63450  0.96560  Biso   1.000  H
  H46      1.0000 0.67960  0.13450  0.53440  Biso   1.000  H
  H47      1.0000 0.17960  0.36550  0.03440  Biso   1.000  H
  H48      1.0000 0.32040  0.86550  0.46560  Biso   1.000  H
  H49      1.0000 0.66530  0.60560  0.01950  Biso   1.000  H
  H50      1.0000 0.83470  0.10560  0.48050  Biso   1.000  H
  H51      1.0000 0.33470  0.39440  0.98050  Biso   1.000  H
  H52      1.0000 0.16530  0.89440  0.51950  Biso   1.000  H
  C25      1.0000 0.89430  0.61390  0.09630  Biso   1.000  C
  C26      1.0000 0.60570  0.11390  0.40370  Biso   1.000  C
  C27      1.0000 0.10570  0.38610  0.90370  Biso   1.000  C
  C28      1.0000 0.39430  0.88610  0.59630  Biso   1.000  C
  H53      1.0000 0.91750  0.52990  0.09160  Biso   1.000  H
  H54      1.0000 0.58250  0.02990  0.40840  Biso   1.000  H
  H55      1.0000 0.08250  0.47010  0.90840  Biso   1.000  H
  H56      1.0000 0.41750  0.97010  0.59160  Biso   1.000  H
  H57      1.0000 0.00010  0.65790  0.09620  Biso   1.000  H
  H58      1.0000 0.49990  0.15790  0.40380  Biso   1.000  H
  H59      1.0000 0.99990  0.34210  0.90380  Biso   1.000  H
  H60      1.0000 0.50010  0.84210  0.59620  Biso   1.000  H
  H61      1.0000 0.84470  0.62900  0.15020  Biso   1.000  H
  H62      1.0000 0.65530  0.12900  0.34980  Biso   1.000  H
  H63      1.0000 0.15530  0.37100  0.84980  Biso   1.000  H
  H64      1.0000 0.34470  0.87100  0.65020  Biso   1.000  H
  O9       1.0000 0.66610  0.34160  0.05570  Biso   1.000  O
  O10      1.0000 0.83390  0.84160  0.44430  Biso   1.000  O
  O11      1.0000 0.33390  0.65840  0.94430  Biso   1.000  O
  O12      1.0000 0.16610  0.15840  0.55570  Biso   1.000  O
  O13      1.0000 0.70500  0.22010  0.17800  Biso   1.000  O
  O14      1.0000 0.79500  0.72010  0.32200  Biso   1.000  O
  O15      1.0000 0.29500  0.77990  0.82200  Biso   1.000  O
  O16      1.0000 0.20500  0.27990  0.67800  Biso   1.000  O
  O17      1.0000 0.94210  0.29150  0.11620  Biso   1.000  O
  O18      1.0000 0.55790  0.79150  0.38380  Biso   1.000  O
  O19      1.0000 0.05790  0.70850  0.88380  Biso   1.000  O
  O20      1.0000 0.44210  0.20850  0.61620  Biso   1.000  O
  Cl1      1.0000 0.76970  0.25088  0.09755  Biso   1.000  Cl
  Cl2      1.0000 0.73030  0.75088  0.40245  Biso   1.000  Cl
  Cl3      1.0000 0.23030  0.74912  0.90245  Biso   1.000  Cl
  Cl4      1.0000 0.26970  0.24912  0.59755  Biso   1.000  Cl
  O21      1.0000 0.76640  0.14830  0.04230  Biso   1.000  O
  O22      1.0000 0.73360  0.64830  0.45770  Biso   1.000  O
  O23      1.0000 0.23360  0.85170  0.95770  Biso   1.000  O
  O24      1.0000 0.26640  0.35170  0.54230  Biso   1.000  O
