data_image0
_cell_length_a       11.844
_cell_length_b       11.924
_cell_length_c       27.91
_cell_angle_alpha    94.575
_cell_angle_beta     99.754
_cell_angle_gamma    90.059

_symmetry_space_group_name_H-M    "P 1"
_symmetry_int_tables_number       1

loop_
  _symmetry_equiv_pos_as_xyz
  'x, y, z'

loop_
  _atom_site_label
  _atom_site_occupancy
  _atom_site_fract_x
  _atom_site_fract_y
  _atom_site_fract_z
  _atom_site_thermal_displace_type
  _atom_site_B_iso_or_equiv
  _atom_site_type_symbol
  Cu1      1.0000 0.31365  0.28344  0.64405  Biso   1.000  Cu
  Cu2      1.0000 0.68635  0.71656  0.35595  Biso   1.000  Cu
  Cu3      1.0000 0.89222  0.80660  0.82923  Biso   1.000  Cu
  Cu4      1.0000 0.10778  0.19340  0.17077  Biso   1.000  Cu
  S1       1.0000 0.79020  0.04283  0.81812  Biso   1.000  S
  S2       1.0000 0.20980  0.95717  0.18188  Biso   1.000  S
  S3       1.0000 0.64910  0.70402  0.81972  Biso   1.000  S
  S4       1.0000 0.35090  0.29598  0.18028  Biso   1.000  S
  S5       1.0000 0.99090  0.56762  0.81647  Biso   1.000  S
  S6       1.0000 0.00910  0.43238  0.18353  Biso   1.000  S
  S7       1.0000 0.12660  0.91099  0.81942  Biso   1.000  S
  S8       1.0000 0.87340  0.08901  0.18058  Biso   1.000  S
  S9       1.0000 0.18620  0.08600  0.67385  Biso   1.000  S
  S10      1.0000 0.81380  0.91400  0.32615  Biso   1.000  S
  S11      1.0000 0.52840  0.14742  0.67527  Biso   1.000  S
  S12      1.0000 0.47160  0.85258  0.32473  Biso   1.000  S
  S13      1.0000 0.46730  0.49111  0.67051  Biso   1.000  S
  S14      1.0000 0.53270  0.50889  0.32949  Biso   1.000  S
  S15      1.0000 0.12020  0.42807  0.66836  Biso   1.000  S
  S16      1.0000 0.87980  0.57193  0.33164  Biso   1.000  S
  Cl1      1.0000 0.82650  0.78820  0.67450  Biso   1.000  Cl
  Cl2      1.0000 0.17350  0.21180  0.32550  Biso   1.000  Cl
  Cl3      1.0000 0.36380  0.30860  0.77814  Biso   1.000  Cl
  Cl4      1.0000 0.63620  0.69140  0.22186  Biso   1.000  Cl
  O1       1.0000 0.78070  0.92170  0.83380  Biso   1.000  O
  O2       1.0000 0.21930  0.07830  0.16620  Biso   1.000  O
  O3       1.0000 0.77940  0.69280  0.83560  Biso   1.000  O
  O4       1.0000 0.22060  0.30720  0.16440  Biso   1.000  O
  O5       1.0000 0.01160  0.69660  0.83480  Biso   1.000  O
  O6       1.0000 0.98840  0.30340  0.16520  Biso   1.000  O
  O7       1.0000 0.01050  0.92460  0.83740  Biso   1.000  O
  O8       1.0000 0.98950  0.07540  0.16260  Biso   1.000  O
  O9       1.0000 0.17690  0.18810  0.64170  Biso   1.000  O
  O10      1.0000 0.82310  0.81190  0.35830  Biso   1.000  O
  O11      1.0000 0.40720  0.15180  0.64360  Biso   1.000  O
  O12      1.0000 0.59280  0.84820  0.35640  Biso   1.000  O
  O13      1.0000 0.44590  0.37750  0.63890  Biso   1.000  O
  O14      1.0000 0.55410  0.62250  0.36110  Biso   1.000  O
  O15      1.0000 0.21380  0.41410  0.63800  Biso   1.000  O
  O16      1.0000 0.78620  0.58590  0.36200  Biso   1.000  O
  O17      1.0000 0.85030  0.79420  0.73310  Biso   1.000  O
  O18      1.0000 0.14970  0.20580  0.26690  Biso   1.000  O
  O19      1.0000 0.93010  0.76860  0.65600  Biso   1.000  O
  O20      1.0000 0.06990  0.23140  0.34400  Biso   1.000  O
  O21      1.0000 0.80330  0.67770  0.65480  Biso   1.000  O
  O22      1.0000 0.19670  0.32230  0.34520  Biso   1.000  O
  O23      1.0000 0.82830  0.90490  0.65860  Biso   1.000  O
  O24      1.0000 0.17170  0.09510  0.34140  Biso   1.000  O
  O25      1.0000 0.34320  0.33810  0.72910  Biso   1.000  O
  O26      1.0000 0.65680  0.66190  0.27090  Biso   1.000  O
  O27      1.0000 0.25830  0.29480  0.79360  Biso   1.000  O
  O28      1.0000 0.74170  0.70520  0.20640  Biso   1.000  O
  O29      1.0000 0.41220  0.38510  0.80600  Biso   1.000  O
  O30      1.0000 0.58780  0.61490  0.19400  Biso   1.000  O
  O31      1.0000 0.40290  0.20990  0.78740  Biso   1.000  O
  O32      1.0000 0.59710  0.79010  0.21260  Biso   1.000  O
  C1       1.0000 0.02790  0.17120  0.99060  Biso   1.000  C
  C2       1.0000 0.97210  0.82880  0.00940  Biso   1.000  C
  H1       1.0000 0.02100  0.20350  0.02260  Biso   1.000  H
  H2       1.0000 0.97900  0.79650  0.97740  Biso   1.000  H
  H3       1.0000 0.08100  0.21550  0.97730  Biso   1.000  H
  H4       1.0000 0.91900  0.78450  0.02270  Biso   1.000  H
  H5       1.0000 0.05520  0.09570  0.99270  Biso   1.000  H
  H6       1.0000 0.94480  0.90430  0.00730  Biso   1.000  H
  C3       1.0000 0.90600  0.16960  0.95620  Biso   1.000  C
  C4       1.0000 0.09400  0.83040  0.04380  Biso   1.000  C
  H7       1.0000 0.85340  0.12360  0.96960  Biso   1.000  H
  H8       1.0000 0.14660  0.87640  0.03040  Biso   1.000  H
  H9       1.0000 0.87670  0.24550  0.95610  Biso   1.000  H
  H10      1.0000 0.12330  0.75450  0.04390  Biso   1.000  H
  C5       1.0000 0.90890  0.12780  0.90790  Biso   1.000  C
  C6       1.0000 0.09110  0.87220  0.09210  Biso   1.000  C
  H11      1.0000 0.93410  0.05050  0.90780  Biso   1.000  H
  H12      1.0000 0.06590  0.94950  0.09220  Biso   1.000  H
  H13      1.0000 0.96480  0.17120  0.89510  Biso   1.000  H
  H14      1.0000 0.03520  0.82880  0.10490  Biso   1.000  H
  C7       1.0000 0.79040  0.13240  0.87340  Biso   1.000  C
  C8       1.0000 0.20960  0.86760  0.12660  Biso   1.000  C
  H15      1.0000 0.77520  0.20920  0.86530  Biso   1.000  H
  H16      1.0000 0.22480  0.79080  0.13470  Biso   1.000  H
  H17      1.0000 0.73020  0.10810  0.89000  Biso   1.000  H
  H18      1.0000 0.26980  0.89190  0.11000  Biso   1.000  H
  C9       1.0000 0.65080  0.06770  0.78760  Biso   1.000  C
  C10      1.0000 0.34920  0.93230  0.21240  Biso   1.000  C
  H19      1.0000 0.59520  0.04990  0.80770  Biso   1.000  H
  H20      1.0000 0.40480  0.95010  0.19230  Biso   1.000  H
  H21      1.0000 0.64340  0.14650  0.78130  Biso   1.000  H
  H22      1.0000 0.35660  0.85350  0.21870  Biso   1.000  H
  C11      1.0000 0.62880  0.99680  0.74090  Biso   1.000  C
  C12      1.0000 0.37120  0.00320  0.25910  Biso   1.000  C
  H23      1.0000 0.62650  0.91890  0.74840  Biso   1.000  H
  H24      1.0000 0.37350  0.08110  0.25160  Biso   1.000  H
  H25      1.0000 0.69380  0.00550  0.72450  Biso   1.000  H
  H26      1.0000 0.30620  0.99450  0.27550  Biso   1.000  H
  C13      1.0000 0.64200  0.93730  0.95950  Biso   1.000  C
  C14      1.0000 0.35800  0.06270  0.04050  Biso   1.000  C
  H27      1.0000 0.61820  0.01390  0.95710  Biso   1.000  H
  H28      1.0000 0.38180  0.98610  0.04290  Biso   1.000  H
  H29      1.0000 0.72410  0.93440  0.96400  Biso   1.000  H
  H30      1.0000 0.27590  0.06560  0.03600  Biso   1.000  H
  H31      1.0000 0.61570  0.90800  0.98680  Biso   1.000  H
  H32      1.0000 0.38430  0.09200  0.01320  Biso   1.000  H
  C15      1.0000 0.59210  0.86820  0.91360  Biso   1.000  C
  C16      1.0000 0.40790  0.13180  0.08640  Biso   1.000  C
  H33      1.0000 0.61630  0.89970  0.88600  Biso   1.000  H
  H34      1.0000 0.38370  0.10030  0.11400  Biso   1.000  H
  H35      1.0000 0.50910  0.87100  0.90920  Biso   1.000  H
  H36      1.0000 0.49090  0.12900  0.09080  Biso   1.000  H
  C17      1.0000 0.62990  0.74460  0.91520  Biso   1.000  C
  C18      1.0000 0.37010  0.25540  0.08480  Biso   1.000  C
  H37      1.0000 0.71300  0.74400  0.92170  Biso   1.000  H
  H38      1.0000 0.28700  0.25600  0.07830  Biso   1.000  H
  H39      1.0000 0.60350  0.71430  0.94270  Biso   1.000  H
  H40      1.0000 0.39650  0.28570  0.05730  Biso   1.000  H
  C19      1.0000 0.59110  0.66850  0.87210  Biso   1.000  C
  C20      1.0000 0.40890  0.33150  0.12790  Biso   1.000  C
  H41      1.0000 0.50820  0.66990  0.86450  Biso   1.000  H
  H42      1.0000 0.49180  0.33010  0.13550  Biso   1.000  H
  H43      1.0000 0.61310  0.59240  0.87920  Biso   1.000  H
  H44      1.0000 0.38690  0.40760  0.12080  Biso   1.000  H
  C21      1.0000 0.60590  0.57380  0.78250  Biso   1.000  C
  C22      1.0000 0.39410  0.42620  0.21750  Biso   1.000  C
  H45      1.0000 0.63370  0.50960  0.80010  Biso   1.000  H
  H46      1.0000 0.36630  0.49040  0.19990  Biso   1.000  H
  H47      1.0000 0.52300  0.56820  0.77460  Biso   1.000  H
  H48      1.0000 0.47700  0.43180  0.22540  Biso   1.000  H
  C23      1.0000 0.65760  0.57510  0.73530  Biso   1.000  C
  C24      1.0000 0.34240  0.42490  0.26470  Biso   1.000  C
  H49      1.0000 0.63840  0.64530  0.72070  Biso   1.000  H
  H50      1.0000 0.36160  0.35470  0.27930  Biso   1.000  H
  H51      1.0000 0.74040  0.57210  0.74350  Biso   1.000  H
  H52      1.0000 0.25960  0.42790  0.25650  Biso   1.000  H
  C25      1.0000 0.82210  0.48880  0.94990  Biso   1.000  C
  C26      1.0000 0.17790  0.51120  0.05010  Biso   1.000  C
  H53      1.0000 0.74510  0.45930  0.94390  Biso   1.000  H
  H54      1.0000 0.25490  0.54070  0.05610  Biso   1.000  H
  H55      1.0000 0.82120  0.56820  0.95890  Biso   1.000  H
  H56      1.0000 0.17880  0.43180  0.04110  Biso   1.000  H
  H57      1.0000 0.86660  0.45190  0.97590  Biso   1.000  H
  H58      1.0000 0.13340  0.54810  0.02410  Biso   1.000  H
  C27      1.0000 0.87500  0.46810  0.90380  Biso   1.000  C
  C28      1.0000 0.12500  0.53190  0.09620  Biso   1.000  C
  H59      1.0000 0.87690  0.38790  0.89490  Biso   1.000  H
  H60      1.0000 0.12310  0.61210  0.10510  Biso   1.000  H
  H61      1.0000 0.82870  0.50310  0.87710  Biso   1.000  H
  H62      1.0000 0.17130  0.49690  0.12290  Biso   1.000  H
  C29      1.0000 0.99010  0.51480  0.91240  Biso   1.000  C
  C30      1.0000 0.00990  0.48520  0.08760  Biso   1.000  C
  H63      1.0000 0.03430  0.48040  0.93980  Biso   1.000  H
  H64      1.0000 0.96570  0.51960  0.06020  Biso   1.000  H
  H65      1.0000 0.98650  0.59470  0.92160  Biso   1.000  H
  H66      1.0000 0.01350  0.40530  0.07840  Biso   1.000  H
  C31      1.0000 0.05410  0.49880  0.86880  Biso   1.000  C
  C32      1.0000 0.94590  0.50120  0.13120  Biso   1.000  C
  H67      1.0000 0.05780  0.41890  0.85950  Biso   1.000  H
  H68      1.0000 0.94220  0.58110  0.14050  Biso   1.000  H
  H69      1.0000 0.13210  0.52680  0.87910  Biso   1.000  H
  H70      1.0000 0.86790  0.47320  0.12090  Biso   1.000  H
  C33      1.0000 0.09850  0.53870  0.77960  Biso   1.000  C
  C34      1.0000 0.90150  0.46130  0.22040  Biso   1.000  C
  H71      1.0000 0.17320  0.56150  0.79790  Biso   1.000  H
  H72      1.0000 0.82680  0.43850  0.20210  Biso   1.000  H
  H73      1.0000 0.09980  0.45870  0.77030  Biso   1.000  H
  H74      1.0000 0.90020  0.54130  0.22970  Biso   1.000  H
  C35      1.0000 0.28760  0.70120  0.94900  Biso   1.000  C
  C36      1.0000 0.71240  0.29880  0.05100  Biso   1.000  C
  H75      1.0000 0.31070  0.62580  0.94090  Biso   1.000  H
  H76      1.0000 0.68930  0.37420  0.05910  Biso   1.000  H
  H77      1.0000 0.21660  0.69900  0.96120  Biso   1.000  H
  H78      1.0000 0.78340  0.30100  0.03880  Biso   1.000  H
  H79      1.0000 0.34550  0.73790  0.97350  Biso   1.000  H
  H80      1.0000 0.65450  0.26210  0.02650  Biso   1.000  H
  C37      1.0000 0.27190  0.76540  0.90400  Biso   1.000  C
  C38      1.0000 0.72810  0.23460  0.09600  Biso   1.000  C
  H81      1.0000 0.21610  0.72630  0.87870  Biso   1.000  H
  H82      1.0000 0.78390  0.27370  0.12130  Biso   1.000  H
  H83      1.0000 0.34400  0.76870  0.89200  Biso   1.000  H
  H84      1.0000 0.65600  0.23130  0.10800  Biso   1.000  H
  C39      1.0000 0.22960  0.88980  0.91560  Biso   1.000  C
  C40      1.0000 0.77040  0.11020  0.08440  Biso   1.000  C
  H85      1.0000 0.15370  0.88590  0.92410  Biso   1.000  H
  H86      1.0000 0.84630  0.11410  0.07590  Biso   1.000  H
  H87      1.0000 0.28060  0.92500  0.94360  Biso   1.000  H
  H88      1.0000 0.71940  0.07500  0.05640  Biso   1.000  H
  C41      1.0000 0.22560  0.96100  0.87410  Biso   1.000  C
  C42      1.0000 0.77440  0.03900  0.12590  Biso   1.000  C
  H89      1.0000 0.30190  0.96550  0.86600  Biso   1.000  H
  H90      1.0000 0.69810  0.03450  0.13400  Biso   1.000  H
  H91      1.0000 0.20430  0.03650  0.88440  Biso   1.000  H
  H92      1.0000 0.79570  0.96350  0.11560  Biso   1.000  H
  C43      1.0000 0.13150  0.02830  0.78210  Biso   1.000  C
  C44      1.0000 0.86850  0.97170  0.21790  Biso   1.000  C
  H93      1.0000 0.11750  0.09760  0.80070  Biso   1.000  H
  H94      1.0000 0.88250  0.90240  0.19930  Biso   1.000  H
  H95      1.0000 0.20750  0.03390  0.77370  Biso   1.000  H
  H96      1.0000 0.79250  0.96610  0.22630  Biso   1.000  H
  C45      1.0000 0.04470  0.01530  0.73610  Biso   1.000  C
  C46      1.0000 0.95530  0.98470  0.26390  Biso   1.000  C
  H97      1.0000 0.05160  0.94140  0.71970  Biso   1.000  H
  H98      1.0000 0.94840  0.05860  0.28030  Biso   1.000  H
  H99      1.0000 0.96840  0.02070  0.74430  Biso   1.000  H
  H100     1.0000 0.03160  0.97930  0.25570  Biso   1.000  H
  C47      1.0000 0.06100  0.10340  0.70270  Biso   1.000  C
  C48      1.0000 0.93900  0.89660  0.29730  Biso   1.000  C
  H101     1.0000 0.06620  0.17630  0.72100  Biso   1.000  H
  H102     1.0000 0.93380  0.82370  0.27900  Biso   1.000  H
  H103     1.0000 0.99370  0.10340  0.67740  Biso   1.000  H
  H104     1.0000 0.00630  0.89660  0.32260  Biso   1.000  H
  C49      1.0000 0.14000  0.96880  0.62970  Biso   1.000  C
  C50      1.0000 0.86000  0.03120  0.37030  Biso   1.000  C
  C51      1.0000 0.05600  0.97280  0.59310  Biso   1.000  C
  C52      1.0000 0.94400  0.02720  0.40690  Biso   1.000  C
  H105     1.0000 0.05220  0.04470  0.57900  Biso   1.000  H
  H106     1.0000 0.94780  0.95530  0.42100  Biso   1.000  H
  H107     1.0000 0.98260  0.95410  0.60160  Biso   1.000  H
  H108     1.0000 0.01740  0.04590  0.39840  Biso   1.000  H
  C53      1.0000 0.62610  0.16500  0.58470  Biso   1.000  C
  C54      1.0000 0.37390  0.83500  0.41530  Biso   1.000  C
  H109     1.0000 0.55910  0.14680  0.56010  Biso   1.000  H
  H110     1.0000 0.44090  0.85320  0.43990  Biso   1.000  H
  H111     1.0000 0.62740  0.24570  0.59290  Biso   1.000  H
  H112     1.0000 0.37260  0.75430  0.40710  Biso   1.000  H
  C55      1.0000 0.61640  0.10610  0.62920  Biso   1.000  C
  C56      1.0000 0.38360  0.89390  0.37080  Biso   1.000  C
  H113     1.0000 0.69400  0.10200  0.64690  Biso   1.000  H
  H114     1.0000 0.30600  0.89800  0.35310  Biso   1.000  H
  H115     1.0000 0.59310  0.02940  0.61740  Biso   1.000  H
  H116     1.0000 0.40690  0.97060  0.38260  Biso   1.000  H
  C57      1.0000 0.51670  0.01910  0.70370  Biso   1.000  C
  C58      1.0000 0.48330  0.98090  0.29630  Biso   1.000  C
  H117     1.0000 0.45170  0.02320  0.72070  Biso   1.000  H
  H118     1.0000 0.54830  0.97680  0.27930  Biso   1.000  H
  H119     1.0000 0.50310  0.95670  0.67880  Biso   1.000  H
  H120     1.0000 0.49690  0.04330  0.32120  Biso   1.000  H
  C59      1.0000 0.61540  0.47810  0.69830  Biso   1.000  C
  C60      1.0000 0.38460  0.52190  0.30170  Biso   1.000  C
  H121     1.0000 0.62420  0.40850  0.71430  Biso   1.000  H
  H122     1.0000 0.37580  0.59150  0.28570  Biso   1.000  H
  H123     1.0000 0.66250  0.47380  0.67300  Biso   1.000  H
  H124     1.0000 0.33750  0.52620  0.32700  Biso   1.000  H
  C61      1.0000 0.14850  0.56750  0.69630  Biso   1.000  C
  C62      1.0000 0.85150  0.43250  0.30370  Biso   1.000  C
  H125     1.0000 0.22820  0.57320  0.71190  Biso   1.000  H
  H126     1.0000 0.77180  0.42680  0.28810  Biso   1.000  H
  H127     1.0000 0.13730  0.61990  0.67110  Biso   1.000  H
  H128     1.0000 0.86270  0.38010  0.32890  Biso   1.000  H
  C63      1.0000 0.07260  0.60270  0.73440  Biso   1.000  C
  C64      1.0000 0.92740  0.39730  0.26560  Biso   1.000  C
  H129     1.0000 0.08370  0.68250  0.74380  Biso   1.000  H
  H130     1.0000 0.91630  0.31750  0.25620  Biso   1.000  H
  H131     1.0000 0.99290  0.59010  0.71980  Biso   1.000  H
  H132     1.0000 0.00710  0.40990  0.28020  Biso   1.000  H
  C65      1.0000 0.40200  0.68510  0.55030  Biso   1.000  C
  C66      1.0000 0.59800  0.31490  0.44970  Biso   1.000  C
  H133     1.0000 0.46580  0.65000  0.53750  Biso   1.000  H
  H134     1.0000 0.53420  0.35000  0.46250  Biso   1.000  H
  H135     1.0000 0.33770  0.68800  0.52390  Biso   1.000  H
  H136     1.0000 0.66230  0.31200  0.47610  Biso   1.000  H
  C67      1.0000 0.36950  0.61910  0.59120  Biso   1.000  C
  C68      1.0000 0.63050  0.38090  0.40880  Biso   1.000  C
  H137     1.0000 0.32190  0.66440  0.61000  Biso   1.000  H
  H138     1.0000 0.67810  0.33560  0.39000  Biso   1.000  H
  H139     1.0000 0.32720  0.55100  0.57750  Biso   1.000  H
  H140     1.0000 0.67280  0.44900  0.42250  Biso   1.000  H
  C69      1.0000 0.48000  0.58990  0.62350  Biso   1.000  C
  C70      1.0000 0.52000  0.41010  0.37650  Biso   1.000  C
  H141     1.0000 0.51530  0.65920  0.63990  Biso   1.000  H
  H142     1.0000 0.48470  0.34080  0.36010  Biso   1.000  H
  H143     1.0000 0.53160  0.55770  0.60280  Biso   1.000  H
  H144     1.0000 0.46840  0.44230  0.39720  Biso   1.000  H
  C71      1.0000 0.84460  0.38400  0.55360  Biso   1.000  C
  C72      1.0000 0.15540  0.61600  0.44640  Biso   1.000  C
  H145     1.0000 0.86670  0.43820  0.53270  Biso   1.000  H
  H146     1.0000 0.13330  0.56180  0.46730  Biso   1.000  H
  H147     1.0000 0.83400  0.31320  0.53360  Biso   1.000  H
  H148     1.0000 0.16600  0.68680  0.46640  Biso   1.000  H
  C73      1.0000 0.94870  0.36800  0.58780  Biso   1.000  C
  C74      1.0000 0.05130  0.63200  0.41220  Biso   1.000  C
  H149     1.0000 0.93530  0.30330  0.60510  Biso   1.000  H
  H150     1.0000 0.06470  0.69670  0.39490  Biso   1.000  H
  H151     1.0000 0.00730  0.34700  0.56850  Biso   1.000  H
  H152     1.0000 0.99270  0.65300  0.43150  Biso   1.000  H
  C75      1.0000 0.99690  0.45320  0.62330  Biso   1.000  C
  C76      1.0000 0.00310  0.54680  0.37670  Biso   1.000  C
  H153     1.0000 0.93660  0.47890  0.64090  Biso   1.000  H
  H154     1.0000 0.06340  0.52110  0.35910  Biso   1.000  H
  H155     1.0000 0.01670  0.51570  0.60600  Biso   1.000  H
  H156     1.0000 0.98330  0.48430  0.39400  Biso   1.000  H
  C77      1.0000 0.73100  0.13300  0.56430  Biso   1.000  C
  C78      1.0000 0.26900  0.86700  0.43570  Biso   1.000  C
  H157     1.0000 0.70160  0.07250  0.54010  Biso   1.000  H
  H158     1.0000 0.29840  0.92750  0.45990  Biso   1.000  H
  H159     1.0000 0.74000  0.19650  0.54540  Biso   1.000  H
  H160     1.0000 0.26000  0.80350  0.45460  Biso   1.000  H
  C79      1.0000 0.43540  0.80210  0.57350  Biso   1.000  C
  C80      1.0000 0.56460  0.19790  0.42650  Biso   1.000  C
  H161     1.0000 0.45120  0.84910  0.54900  Biso   1.000  H
  H162     1.0000 0.54880  0.15090  0.45100  Biso   1.000  H
  H163     1.0000 0.50250  0.79820  0.59800  Biso   1.000  H
  H164     1.0000 0.49750  0.20180  0.40200  Biso   1.000  H
  H165     1.0000 0.37360  0.83310  0.58830  Biso   1.000  H
  H166     1.0000 0.62640  0.16690  0.41170  Biso   1.000  H
  C81      1.0000 0.74800  0.41100  0.55830  Biso   1.000  C
  C82      1.0000 0.25200  0.58900  0.44170  Biso   1.000  C
  H167     1.0000 0.70550  0.42840  0.52740  Biso   1.000  H
  H168     1.0000 0.29450  0.57160  0.47260  Biso   1.000  H
  H169     1.0000 0.75050  0.47530  0.58130  Biso   1.000  H
  H170     1.0000 0.24950  0.52470  0.41870  Biso   1.000  H
  H171     1.0000 0.71020  0.34930  0.57000  Biso   1.000  H
  H172     1.0000 0.28980  0.65070  0.43000  Biso   1.000  H
  C83      1.0000 0.10700  0.86500  0.55570  Biso   1.000  C
  C84      1.0000 0.89300  0.13500  0.44430  Biso   1.000  C
  C85      1.0000 0.96700  0.84300  0.52110  Biso   1.000  C
  C86      1.0000 0.03300  0.15700  0.47890  Biso   1.000  C
  H173     1.0000 0.96570  0.77710  0.49890  Biso   1.000  H
  H174     1.0000 0.03430  0.22290  0.50110  Biso   1.000  H
  H175     1.0000 0.94540  0.90710  0.50290  Biso   1.000  H
  H176     1.0000 0.05460  0.09290  0.49710  Biso   1.000  H
  H177     1.0000 0.91290  0.83320  0.54270  Biso   1.000  H
  H178     1.0000 0.08710  0.16680  0.45730  Biso   1.000  H
  C87      1.0000 0.81410  0.11000  0.57390  Biso   1.000  C
  C88      1.0000 0.18590  0.89000  0.42610  Biso   1.000  C
  H179     1.0000 0.85240  0.11080  0.54620  Biso   1.000  H
  H180     1.0000 0.14760  0.88920  0.45380  Biso   1.000  H
  H181     1.0000 0.81600  0.03510  0.58460  Biso   1.000  H
  H182     1.0000 0.18400  0.96490  0.41540  Biso   1.000  H
  H183     1.0000 0.85200  0.16120  0.59980  Biso   1.000  H
  H184     1.0000 0.14800  0.83880  0.40020  Biso   1.000  H
  Cl5      1.0000 0.63780  0.20300  0.24550  Biso   1.000  Cl
  Cl6      1.0000 0.36220  0.79700  0.75450  Biso   1.000  Cl
  O33      1.0000 0.65820  0.29620  0.21760  Biso   1.000  O
  O34      1.0000 0.34180  0.70380  0.78240  Biso   1.000  O
  O35      1.0000 0.74320  0.17620  0.27600  Biso   1.000  O
  O36      1.0000 0.25680  0.82380  0.72400  Biso   1.000  O
  O37      1.0000 0.55570  0.23310  0.27610  Biso   1.000  O
  O38      1.0000 0.44430  0.76690  0.72390  Biso   1.000  O
  O39      1.0000 0.59470  0.10520  0.21060  Biso   1.000  O
  O40      1.0000 0.40530  0.89480  0.78940  Biso   1.000  O
  Cl7      1.0000 0.14350  0.70260  0.24464  Biso   1.000  Cl
  Cl8      1.0000 0.85650  0.29740  0.75536  Biso   1.000  Cl
  O41      1.0000 0.18310  0.80420  0.27610  Biso   1.000  O
  O42      1.0000 0.81690  0.19580  0.72390  Biso   1.000  O
  O43      1.0000 0.22930  0.66380  0.21610  Biso   1.000  O
  O44      1.0000 0.77070  0.33620  0.78390  Biso   1.000  O
  O45      1.0000 0.12270  0.61640  0.27630  Biso   1.000  O
  O46      1.0000 0.87730  0.38360  0.72370  Biso   1.000  O
  O47      1.0000 0.03840  0.72550  0.21130  Biso   1.000  O
  O48      1.0000 0.96160  0.27450  0.78870  Biso   1.000  O
  Cl9      1.0000 0.52540  0.58220  0.05150  Biso   1.000  Cl
  Cl10     1.0000 0.47460  0.41780  0.94850  Biso   1.000  Cl
  Cl11     1.0000 0.53360  0.81800  0.08060  Biso   1.000  Cl
  Cl12     1.0000 0.46640  0.18200  0.91940  Biso   1.000  Cl
  Cl13     1.0000 0.73640  0.70780  0.06813  Biso   1.000  Cl
  Cl14     1.0000 0.26360  0.29220  0.93187  Biso   1.000  Cl
  C89      1.0000 0.61130  0.69480  0.08710  Biso   1.000  C
  C90      1.0000 0.38870  0.30520  0.91290  Biso   1.000  C
  H185     1.0000 0.62510  0.67900  0.12150  Biso   1.000  H
  H186     1.0000 0.37490  0.32100  0.87850  Biso   1.000  H
  O49      1.0000 0.70960  0.80090  0.66000  Biso   1.000  O
  O50      1.0000 0.29040  0.19910  0.34000  Biso   1.000  O
  C91      1.0000 0.22840  0.93700  0.60240  Biso   1.000  C
  C92      1.0000 0.77160  0.06300  0.39760  Biso   1.000  C
  H187     1.0000 0.28390  0.88570  0.61800  Biso   1.000  H
  H188     1.0000 0.71610  0.11430  0.38200  Biso   1.000  H
  H189     1.0000 0.26550  0.99950  0.59080  Biso   1.000  H
  H190     1.0000 0.73450  0.00050  0.40920  Biso   1.000  H
