data_image0
_cell_length_a       14.6317
_cell_length_b       14.6317
_cell_length_c       15.875
_cell_angle_alpha    90
_cell_angle_beta     90
_cell_angle_gamma    90

_symmetry_space_group_name_H-M    "P 1"
_symmetry_int_tables_number       1

loop_
  _symmetry_equiv_pos_as_xyz
  'x, y, z'

loop_
  _atom_site_label
  _atom_site_occupancy
  _atom_site_fract_x
  _atom_site_fract_y
  _atom_site_fract_z
  _atom_site_thermal_displace_type
  _atom_site_B_iso_or_equiv
  _atom_site_type_symbol
  Cu1      1.0000 0.25000  0.25000  0.39420  Biso   1.000  Cu
  Cu2      1.0000 0.75000  0.75000  0.10580  Biso   1.000  Cu
  Cu3      1.0000 0.75000  0.75000  0.60580  Biso   1.000  Cu
  Cu4      1.0000 0.25000  0.25000  0.89420  Biso   1.000  Cu
  S1       1.0000 0.45410  0.29061  0.41441  Biso   1.000  S
  S2       1.0000 0.20939  0.45410  0.41441  Biso   1.000  S
  S3       1.0000 0.29061  0.04590  0.41441  Biso   1.000  S
  S4       1.0000 0.79061  0.95410  0.08559  Biso   1.000  S
  S5       1.0000 0.04590  0.20939  0.41441  Biso   1.000  S
  S6       1.0000 0.54590  0.79061  0.08559  Biso   1.000  S
  S7       1.0000 0.95410  0.70939  0.08559  Biso   1.000  S
  S8       1.0000 0.70939  0.54590  0.08559  Biso   1.000  S
  S9       1.0000 0.54590  0.70939  0.58559  Biso   1.000  S
  S10      1.0000 0.79061  0.54590  0.58559  Biso   1.000  S
  S11      1.0000 0.70939  0.95410  0.58559  Biso   1.000  S
  S12      1.0000 0.20939  0.04590  0.91441  Biso   1.000  S
  S13      1.0000 0.95410  0.79061  0.58559  Biso   1.000  S
  S14      1.0000 0.45410  0.20939  0.91441  Biso   1.000  S
  S15      1.0000 0.04590  0.29061  0.91441  Biso   1.000  S
  S16      1.0000 0.29061  0.45410  0.91441  Biso   1.000  S
  C1       1.0000 0.54800  0.24790  0.17620  Biso   1.000  C
  C2       1.0000 0.25210  0.54800  0.17620  Biso   1.000  C
  C3       1.0000 0.24790  0.95200  0.17620  Biso   1.000  C
  C4       1.0000 0.74790  0.04800  0.32380  Biso   1.000  C
  C5       1.0000 0.95200  0.25210  0.17620  Biso   1.000  C
  C6       1.0000 0.45200  0.74790  0.32380  Biso   1.000  C
  C7       1.0000 0.04800  0.75210  0.32380  Biso   1.000  C
  C8       1.0000 0.75210  0.45200  0.32380  Biso   1.000  C
  C9       1.0000 0.45200  0.75210  0.82380  Biso   1.000  C
  C10      1.0000 0.74790  0.45200  0.82380  Biso   1.000  C
  C11      1.0000 0.75210  0.04800  0.82380  Biso   1.000  C
  C12      1.0000 0.25210  0.95200  0.67620  Biso   1.000  C
  C13      1.0000 0.04800  0.74790  0.82380  Biso   1.000  C
  C14      1.0000 0.54800  0.25210  0.67620  Biso   1.000  C
  C15      1.0000 0.95200  0.24790  0.67620  Biso   1.000  C
  C16      1.0000 0.24790  0.54800  0.67620  Biso   1.000  C
  H1       1.0000 0.50820  0.24060  0.12850  Biso   1.000  H
  H2       1.0000 0.25940  0.50820  0.12850  Biso   1.000  H
  H3       1.0000 0.24060  0.99180  0.12850  Biso   1.000  H
  H4       1.0000 0.74060  0.00820  0.37150  Biso   1.000  H
  H5       1.0000 0.99180  0.25940  0.12850  Biso   1.000  H
  H6       1.0000 0.49180  0.74060  0.37150  Biso   1.000  H
  H7       1.0000 0.00820  0.75940  0.37150  Biso   1.000  H
  H8       1.0000 0.75940  0.49180  0.37150  Biso   1.000  H
  H9       1.0000 0.49180  0.75940  0.87150  Biso   1.000  H
  H10      1.0000 0.74060  0.49180  0.87150  Biso   1.000  H
  H11      1.0000 0.75940  0.00820  0.87150  Biso   1.000  H
  H12      1.0000 0.25940  0.99180  0.62850  Biso   1.000  H
  H13      1.0000 0.00820  0.74060  0.87150  Biso   1.000  H
  H14      1.0000 0.50820  0.25940  0.62850  Biso   1.000  H
  H15      1.0000 0.99180  0.24060  0.62850  Biso   1.000  H
  H16      1.0000 0.24060  0.50820  0.62850  Biso   1.000  H
  H17      1.0000 0.58220  0.19270  0.18470  Biso   1.000  H
  H18      1.0000 0.30730  0.58220  0.18470  Biso   1.000  H
  H19      1.0000 0.19270  0.91780  0.18470  Biso   1.000  H
  H20      1.0000 0.69270  0.08220  0.31530  Biso   1.000  H
  H21      1.0000 0.91780  0.30730  0.18470  Biso   1.000  H
  H22      1.0000 0.41780  0.69270  0.31530  Biso   1.000  H
  H23      1.0000 0.08220  0.80730  0.31530  Biso   1.000  H
  H24      1.0000 0.80730  0.41780  0.31530  Biso   1.000  H
  H25      1.0000 0.41780  0.80730  0.81530  Biso   1.000  H
  H26      1.0000 0.69270  0.41780  0.81530  Biso   1.000  H
  H27      1.0000 0.80730  0.08220  0.81530  Biso   1.000  H
  H28      1.0000 0.30730  0.91780  0.68470  Biso   1.000  H
  H29      1.0000 0.08220  0.69270  0.81530  Biso   1.000  H
  H30      1.0000 0.58220  0.30730  0.68470  Biso   1.000  H
  H31      1.0000 0.91780  0.19270  0.68470  Biso   1.000  H
  H32      1.0000 0.19270  0.58220  0.68470  Biso   1.000  H
  H33      1.0000 0.58930  0.29770  0.16600  Biso   1.000  H
  H34      1.0000 0.20230  0.58930  0.16600  Biso   1.000  H
  H35      1.0000 0.29770  0.91070  0.16600  Biso   1.000  H
  H36      1.0000 0.79770  0.08930  0.33400  Biso   1.000  H
  H37      1.0000 0.91070  0.20230  0.16600  Biso   1.000  H
  H38      1.0000 0.41070  0.79770  0.33400  Biso   1.000  H
  H39      1.0000 0.08930  0.70230  0.33400  Biso   1.000  H
  H40      1.0000 0.70230  0.41070  0.33400  Biso   1.000  H
  H41      1.0000 0.41070  0.70230  0.83400  Biso   1.000  H
  H42      1.0000 0.79770  0.41070  0.83400  Biso   1.000  H
  H43      1.0000 0.70230  0.08930  0.83400  Biso   1.000  H
  H44      1.0000 0.20230  0.91070  0.66600  Biso   1.000  H
  H45      1.0000 0.08930  0.79770  0.83400  Biso   1.000  H
  H46      1.0000 0.58930  0.20230  0.66600  Biso   1.000  H
  H47      1.0000 0.91070  0.29770  0.66600  Biso   1.000  H
  H48      1.0000 0.29770  0.58930  0.66600  Biso   1.000  H
  C17      1.0000 0.49820  0.26570  0.24470  Biso   1.000  C
  C18      1.0000 0.23430  0.49820  0.24470  Biso   1.000  C
  C19      1.0000 0.26570  0.00180  0.24470  Biso   1.000  C
  C20      1.0000 0.76570  0.99820  0.25530  Biso   1.000  C
  C21      1.0000 0.00180  0.23430  0.24470  Biso   1.000  C
  C22      1.0000 0.50180  0.76570  0.25530  Biso   1.000  C
  C23      1.0000 0.99820  0.73430  0.25530  Biso   1.000  C
  C24      1.0000 0.73430  0.50180  0.25530  Biso   1.000  C
  C25      1.0000 0.50180  0.73430  0.75530  Biso   1.000  C
  C26      1.0000 0.76570  0.50180  0.75530  Biso   1.000  C
  C27      1.0000 0.73430  0.99820  0.75530  Biso   1.000  C
  C28      1.0000 0.23430  0.00180  0.74470  Biso   1.000  C
  C29      1.0000 0.99820  0.76570  0.75530  Biso   1.000  C
  C30      1.0000 0.49820  0.23430  0.74470  Biso   1.000  C
  C31      1.0000 0.00180  0.26570  0.74470  Biso   1.000  C
  C32      1.0000 0.26570  0.49820  0.74470  Biso   1.000  C
  H49      1.0000 0.45680  0.21410  0.24820  Biso   1.000  H
  H50      1.0000 0.28590  0.45680  0.24820  Biso   1.000  H
  H51      1.0000 0.21410  0.04320  0.24820  Biso   1.000  H
  H52      1.0000 0.71410  0.95680  0.25180  Biso   1.000  H
  H53      1.0000 0.04320  0.28590  0.24820  Biso   1.000  H
  H54      1.0000 0.54320  0.71410  0.25180  Biso   1.000  H
  H55      1.0000 0.95680  0.78590  0.25180  Biso   1.000  H
  H56      1.0000 0.78590  0.54320  0.25180  Biso   1.000  H
  H57      1.0000 0.54320  0.78590  0.75180  Biso   1.000  H
  H58      1.0000 0.71410  0.54320  0.75180  Biso   1.000  H
  H59      1.0000 0.78590  0.95680  0.75180  Biso   1.000  H
  H60      1.0000 0.28590  0.04320  0.74820  Biso   1.000  H
  H61      1.0000 0.95680  0.71410  0.75180  Biso   1.000  H
  H62      1.0000 0.45680  0.28590  0.74820  Biso   1.000  H
  H63      1.0000 0.04320  0.21410  0.74820  Biso   1.000  H
  H64      1.0000 0.21410  0.45680  0.74820  Biso   1.000  H
  H65      1.0000 0.46050  0.31710  0.22780  Biso   1.000  H
  H66      1.0000 0.18290  0.46050  0.22780  Biso   1.000  H
  H67      1.0000 0.31710  0.03950  0.22780  Biso   1.000  H
  H68      1.0000 0.81710  0.96050  0.27220  Biso   1.000  H
  H69      1.0000 0.03950  0.18290  0.22780  Biso   1.000  H
  H70      1.0000 0.53950  0.81710  0.27220  Biso   1.000  H
  H71      1.0000 0.96050  0.68290  0.27220  Biso   1.000  H
  H72      1.0000 0.68290  0.53950  0.27220  Biso   1.000  H
  H73      1.0000 0.53950  0.68290  0.77220  Biso   1.000  H
  H74      1.0000 0.81710  0.53950  0.77220  Biso   1.000  H
  H75      1.0000 0.68290  0.96050  0.77220  Biso   1.000  H
  H76      1.0000 0.18290  0.03950  0.72780  Biso   1.000  H
  H77      1.0000 0.96050  0.81710  0.77220  Biso   1.000  H
  H78      1.0000 0.46050  0.18290  0.72780  Biso   1.000  H
  H79      1.0000 0.03950  0.31710  0.72780  Biso   1.000  H
  H80      1.0000 0.31710  0.46050  0.72780  Biso   1.000  H
  C33      1.0000 0.51860  0.28410  0.32690  Biso   1.000  C
  C34      1.0000 0.21590  0.51860  0.32690  Biso   1.000  C
  C35      1.0000 0.28410  0.98140  0.32690  Biso   1.000  C
  C36      1.0000 0.78410  0.01860  0.17310  Biso   1.000  C
  C37      1.0000 0.98140  0.21590  0.32690  Biso   1.000  C
  C38      1.0000 0.48140  0.78410  0.17310  Biso   1.000  C
  C39      1.0000 0.01860  0.71590  0.17310  Biso   1.000  C
  C40      1.0000 0.71590  0.48140  0.17310  Biso   1.000  C
  C41      1.0000 0.48140  0.71590  0.67310  Biso   1.000  C
  C42      1.0000 0.78410  0.48140  0.67310  Biso   1.000  C
  C43      1.0000 0.71590  0.01860  0.67310  Biso   1.000  C
  C44      1.0000 0.21590  0.98140  0.82690  Biso   1.000  C
  C45      1.0000 0.01860  0.78410  0.67310  Biso   1.000  C
  C46      1.0000 0.51860  0.21590  0.82690  Biso   1.000  C
  C47      1.0000 0.98140  0.28410  0.82690  Biso   1.000  C
  C48      1.0000 0.28410  0.51860  0.82690  Biso   1.000  C
  H81      1.0000 0.54980  0.34260  0.32480  Biso   1.000  H
  H82      1.0000 0.15740  0.54980  0.32480  Biso   1.000  H
  H83      1.0000 0.34260  0.95020  0.32480  Biso   1.000  H
  H84      1.0000 0.84260  0.04980  0.17520  Biso   1.000  H
  H85      1.0000 0.95020  0.15740  0.32480  Biso   1.000  H
  H86      1.0000 0.45020  0.84260  0.17520  Biso   1.000  H
  H87      1.0000 0.04980  0.65740  0.17520  Biso   1.000  H
  H88      1.0000 0.65740  0.45020  0.17520  Biso   1.000  H
  H89      1.0000 0.45020  0.65740  0.67520  Biso   1.000  H
  H90      1.0000 0.84260  0.45020  0.67520  Biso   1.000  H
  H91      1.0000 0.65740  0.04980  0.67520  Biso   1.000  H
  H92      1.0000 0.15740  0.95020  0.82480  Biso   1.000  H
  H93      1.0000 0.04980  0.84260  0.67520  Biso   1.000  H
  H94      1.0000 0.54980  0.15740  0.82480  Biso   1.000  H
  H95      1.0000 0.95020  0.34260  0.82480  Biso   1.000  H
  H96      1.0000 0.34260  0.54980  0.82480  Biso   1.000  H
  H97      1.0000 0.56540  0.23970  0.34100  Biso   1.000  H
  H98      1.0000 0.26030  0.56540  0.34100  Biso   1.000  H
  H99      1.0000 0.23970  0.93460  0.34100  Biso   1.000  H
  H100     1.0000 0.73970  0.06540  0.15900  Biso   1.000  H
  H101     1.0000 0.93460  0.26030  0.34100  Biso   1.000  H
  H102     1.0000 0.43460  0.73970  0.15900  Biso   1.000  H
  H103     1.0000 0.06540  0.76030  0.15900  Biso   1.000  H
  H104     1.0000 0.76030  0.43460  0.15900  Biso   1.000  H
  H105     1.0000 0.43460  0.76030  0.65900  Biso   1.000  H
  H106     1.0000 0.73970  0.43460  0.65900  Biso   1.000  H
  H107     1.0000 0.76030  0.06540  0.65900  Biso   1.000  H
  H108     1.0000 0.26030  0.93460  0.84100  Biso   1.000  H
  H109     1.0000 0.06540  0.73970  0.65900  Biso   1.000  H
  H110     1.0000 0.56540  0.26030  0.84100  Biso   1.000  H
  H111     1.0000 0.93460  0.23970  0.84100  Biso   1.000  H
  H112     1.0000 0.23970  0.56540  0.84100  Biso   1.000  H
  C49      1.0000 0.50260  0.37740  0.46260  Biso   1.000  C
  C50      1.0000 0.12260  0.50260  0.46260  Biso   1.000  C
  C51      1.0000 0.37740  0.99740  0.46260  Biso   1.000  C
  C52      1.0000 0.87740  0.00260  0.03740  Biso   1.000  C
  C53      1.0000 0.99740  0.12260  0.46260  Biso   1.000  C
  C54      1.0000 0.49740  0.87740  0.03740  Biso   1.000  C
  C55      1.0000 0.00260  0.62260  0.03740  Biso   1.000  C
  C56      1.0000 0.62260  0.49740  0.03740  Biso   1.000  C
  C57      1.0000 0.49740  0.62260  0.53740  Biso   1.000  C
  C58      1.0000 0.87740  0.49740  0.53740  Biso   1.000  C
  C59      1.0000 0.62260  0.00260  0.53740  Biso   1.000  C
  C60      1.0000 0.12260  0.99740  0.96260  Biso   1.000  C
  C61      1.0000 0.00260  0.87740  0.53740  Biso   1.000  C
  C62      1.0000 0.50260  0.12260  0.96260  Biso   1.000  C
  C63      1.0000 0.99740  0.37740  0.96260  Biso   1.000  C
  C64      1.0000 0.37740  0.50260  0.96260  Biso   1.000  C
  H113     1.0000 0.51670  0.35270  0.51770  Biso   1.000  H
  H114     1.0000 0.14730  0.51670  0.51770  Biso   1.000  H
  H115     1.0000 0.35270  0.98330  0.51770  Biso   1.000  H
  H116     1.0000 0.85270  0.01670  0.98230  Biso   1.000  H
  H117     1.0000 0.98330  0.14730  0.51770  Biso   1.000  H
  H118     1.0000 0.48330  0.85270  0.98230  Biso   1.000  H
  H119     1.0000 0.01670  0.64730  0.98230  Biso   1.000  H
  H120     1.0000 0.64730  0.48330  0.98230  Biso   1.000  H
  H121     1.0000 0.48330  0.64730  0.48230  Biso   1.000  H
  H122     1.0000 0.85270  0.48330  0.48230  Biso   1.000  H
  H123     1.0000 0.64730  0.01670  0.48230  Biso   1.000  H
  H124     1.0000 0.14730  0.98330  0.01770  Biso   1.000  H
  H125     1.0000 0.01670  0.85270  0.48230  Biso   1.000  H
  H126     1.0000 0.51670  0.14730  0.01770  Biso   1.000  H
  H127     1.0000 0.98330  0.35270  0.01770  Biso   1.000  H
  H128     1.0000 0.35270  0.51670  0.01770  Biso   1.000  H
  H129     1.0000 0.56110  0.38240  0.43420  Biso   1.000  H
  H130     1.0000 0.11760  0.56110  0.43420  Biso   1.000  H
  H131     1.0000 0.38240  0.93890  0.43420  Biso   1.000  H
  H132     1.0000 0.88240  0.06110  0.06580  Biso   1.000  H
  H133     1.0000 0.93890  0.11760  0.43420  Biso   1.000  H
  H134     1.0000 0.43890  0.88240  0.06580  Biso   1.000  H
  H135     1.0000 0.06110  0.61760  0.06580  Biso   1.000  H
  H136     1.0000 0.61760  0.43890  0.06580  Biso   1.000  H
  H137     1.0000 0.43890  0.61760  0.56580  Biso   1.000  H
  H138     1.0000 0.88240  0.43890  0.56580  Biso   1.000  H
  H139     1.0000 0.61760  0.06110  0.56580  Biso   1.000  H
  H140     1.0000 0.11760  0.93890  0.93420  Biso   1.000  H
  H141     1.0000 0.06110  0.88240  0.56580  Biso   1.000  H
  H142     1.0000 0.56110  0.11760  0.93420  Biso   1.000  H
  H143     1.0000 0.93890  0.38240  0.93420  Biso   1.000  H
  H144     1.0000 0.38240  0.56110  0.93420  Biso   1.000  H
  C65      1.0000 0.48130  0.46500  0.47950  Biso   1.000  C
  C66      1.0000 0.03500  0.48130  0.47950  Biso   1.000  C
  C67      1.0000 0.46500  0.01870  0.47950  Biso   1.000  C
  C68      1.0000 0.96500  0.98130  0.02050  Biso   1.000  C
  C69      1.0000 0.01870  0.03500  0.47950  Biso   1.000  C
  C70      1.0000 0.51870  0.96500  0.02050  Biso   1.000  C
  C71      1.0000 0.98130  0.53500  0.02050  Biso   1.000  C
  C72      1.0000 0.53500  0.51870  0.02050  Biso   1.000  C
  C73      1.0000 0.51870  0.53500  0.52050  Biso   1.000  C
  C74      1.0000 0.96500  0.51870  0.52050  Biso   1.000  C
  C75      1.0000 0.53500  0.98130  0.52050  Biso   1.000  C
  C76      1.0000 0.03500  0.01870  0.97950  Biso   1.000  C
  C77      1.0000 0.98130  0.96500  0.52050  Biso   1.000  C
  C78      1.0000 0.48130  0.03500  0.97950  Biso   1.000  C
  C79      1.0000 0.01870  0.46500  0.97950  Biso   1.000  C
  C80      1.0000 0.46500  0.48130  0.97950  Biso   1.000  C
  H145     1.0000 0.47010  0.49030  0.42390  Biso   1.000  H
  H146     1.0000 0.00970  0.47010  0.42390  Biso   1.000  H
  H147     1.0000 0.49030  0.02990  0.42390  Biso   1.000  H
  H148     1.0000 0.99030  0.97010  0.07610  Biso   1.000  H
  H149     1.0000 0.02990  0.00970  0.42390  Biso   1.000  H
  H150     1.0000 0.52990  0.99030  0.07610  Biso   1.000  H
  H151     1.0000 0.97010  0.50970  0.07610  Biso   1.000  H
  H152     1.0000 0.50970  0.52990  0.07610  Biso   1.000  H
  H153     1.0000 0.52990  0.50970  0.57610  Biso   1.000  H
  H154     1.0000 0.99030  0.52990  0.57610  Biso   1.000  H
  H155     1.0000 0.50970  0.97010  0.57610  Biso   1.000  H
  H156     1.0000 0.00970  0.02990  0.92390  Biso   1.000  H
  H157     1.0000 0.97010  0.99030  0.57610  Biso   1.000  H
  H158     1.0000 0.47010  0.00970  0.92390  Biso   1.000  H
  H159     1.0000 0.02990  0.49030  0.92390  Biso   1.000  H
  H160     1.0000 0.49030  0.47010  0.92390  Biso   1.000  H
  H161     1.0000 0.42140  0.46000  0.50530  Biso   1.000  H
  H162     1.0000 0.04000  0.42140  0.50530  Biso   1.000  H
  H163     1.0000 0.46000  0.07860  0.50530  Biso   1.000  H
  H164     1.0000 0.96000  0.92140  0.99470  Biso   1.000  H
  H165     1.0000 0.07860  0.04000  0.50530  Biso   1.000  H
  H166     1.0000 0.57860  0.96000  0.99470  Biso   1.000  H
  H167     1.0000 0.92140  0.54000  0.99470  Biso   1.000  H
  H168     1.0000 0.54000  0.57860  0.99470  Biso   1.000  H
  H169     1.0000 0.57860  0.54000  0.49470  Biso   1.000  H
  H170     1.0000 0.96000  0.57860  0.49470  Biso   1.000  H
  H171     1.0000 0.54000  0.92140  0.49470  Biso   1.000  H
  H172     1.0000 0.04000  0.07860  0.00530  Biso   1.000  H
  H173     1.0000 0.92140  0.96000  0.49470  Biso   1.000  H
  H174     1.0000 0.42140  0.04000  0.00530  Biso   1.000  H
  H175     1.0000 0.07860  0.46000  0.00530  Biso   1.000  H
  H176     1.0000 0.46000  0.42140  0.00530  Biso   1.000  H
  Cl1      1.0000 0.75000  0.25000  0.00000  Biso   1.000  Cl
  Cl2      1.0000 0.25000  0.75000  0.00000  Biso   1.000  Cl
  Cl3      1.0000 0.75000  0.25000  0.50000  Biso   1.000  Cl
  Cl4      1.0000 0.25000  0.75000  0.50000  Biso   1.000  Cl
  Cl5      1.0000 0.25000  0.25000  0.61249  Biso   1.000  Cl
  Cl6      1.0000 0.75000  0.75000  0.88751  Biso   1.000  Cl
  Cl7      1.0000 0.75000  0.75000  0.38751  Biso   1.000  Cl
  Cl8      1.0000 0.25000  0.25000  0.11249  Biso   1.000  Cl
  O1       1.0000 0.35907  0.32363  0.38598  Biso   1.000  O
  O2       1.0000 0.17637  0.35907  0.38598  Biso   1.000  O
  O3       1.0000 0.32363  0.14093  0.38598  Biso   1.000  O
  O4       1.0000 0.82363  0.85907  0.11402  Biso   1.000  O
  O5       1.0000 0.14093  0.17637  0.38598  Biso   1.000  O
  O6       1.0000 0.64093  0.82363  0.11402  Biso   1.000  O
  O7       1.0000 0.85907  0.67637  0.11402  Biso   1.000  O
  O8       1.0000 0.67637  0.64093  0.11402  Biso   1.000  O
  O9       1.0000 0.64093  0.67637  0.61402  Biso   1.000  O
  O10      1.0000 0.82363  0.64093  0.61402  Biso   1.000  O
  O11      1.0000 0.67637  0.85907  0.61402  Biso   1.000  O
  O12      1.0000 0.17637  0.14093  0.88598  Biso   1.000  O
  O13      1.0000 0.85907  0.82363  0.61402  Biso   1.000  O
  O14      1.0000 0.35907  0.17637  0.88598  Biso   1.000  O
  O15      1.0000 0.14093  0.32363  0.88598  Biso   1.000  O
  O16      1.0000 0.32363  0.35907  0.88598  Biso   1.000  O
  O17      1.0000 0.71950  0.17210  0.03680  Biso   1.000  O
  O18      1.0000 0.32790  0.71950  0.03680  Biso   1.000  O
  O19      1.0000 0.17210  0.78050  0.03680  Biso   1.000  O
  O20      1.0000 0.67210  0.21950  0.46320  Biso   1.000  O
  O21      1.0000 0.78050  0.32790  0.03680  Biso   1.000  O
  O22      1.0000 0.28050  0.67210  0.46320  Biso   1.000  O
  O23      1.0000 0.21950  0.82790  0.46320  Biso   1.000  O
  O24      1.0000 0.82790  0.28050  0.46320  Biso   1.000  O
  O25      1.0000 0.28050  0.82790  0.96320  Biso   1.000  O
  O26      1.0000 0.67210  0.28050  0.96320  Biso   1.000  O
  O27      1.0000 0.82790  0.21950  0.96320  Biso   1.000  O
  O28      1.0000 0.32790  0.78050  0.53680  Biso   1.000  O
  O29      1.0000 0.21950  0.67210  0.96320  Biso   1.000  O
  O30      1.0000 0.71950  0.32790  0.53680  Biso   1.000  O
  O31      1.0000 0.78050  0.17210  0.53680  Biso   1.000  O
  O32      1.0000 0.17210  0.71950  0.53680  Biso   1.000  O
  O33      1.0000 0.25000  0.25000  0.69980  Biso   1.000  O
  O34      1.0000 0.75000  0.75000  0.80020  Biso   1.000  O
  O35      1.0000 0.75000  0.75000  0.30020  Biso   1.000  O
  O36      1.0000 0.25000  0.25000  0.19980  Biso   1.000  O
  O37      1.0000 0.20580  0.15720  0.60270  Biso   1.000  O
  O38      1.0000 0.34280  0.20580  0.60270  Biso   1.000  O
  O39      1.0000 0.15720  0.29420  0.60270  Biso   1.000  O
  O40      1.0000 0.65720  0.70580  0.89730  Biso   1.000  O
  O41      1.0000 0.29420  0.34280  0.60270  Biso   1.000  O
  O42      1.0000 0.79420  0.65720  0.89730  Biso   1.000  O
  O43      1.0000 0.70580  0.84280  0.89730  Biso   1.000  O
  O44      1.0000 0.84280  0.79420  0.89730  Biso   1.000  O
  O45      1.0000 0.79420  0.84280  0.39730  Biso   1.000  O
  O46      1.0000 0.65720  0.79420  0.39730  Biso   1.000  O
  O47      1.0000 0.84280  0.70580  0.39730  Biso   1.000  O
  O48      1.0000 0.34280  0.29420  0.10270  Biso   1.000  O
  O49      1.0000 0.70580  0.65720  0.39730  Biso   1.000  O
  O50      1.0000 0.20580  0.34280  0.10270  Biso   1.000  O
  O51      1.0000 0.29420  0.15720  0.10270  Biso   1.000  O
  O52      1.0000 0.15720  0.20580  0.10270  Biso   1.000  O
  O53      1.0000 0.21120  0.28160  0.53640  Biso   1.000  O
  O54      1.0000 0.21840  0.21120  0.53640  Biso   1.000  O
  O55      1.0000 0.28160  0.28880  0.53640  Biso   1.000  O
  O56      1.0000 0.78160  0.71120  0.96360  Biso   1.000  O
  O57      1.0000 0.28880  0.21840  0.53640  Biso   1.000  O
  O58      1.0000 0.78880  0.78160  0.96360  Biso   1.000  O
  O59      1.0000 0.71120  0.71840  0.96360  Biso   1.000  O
  O60      1.0000 0.71840  0.78880  0.96360  Biso   1.000  O
  O61      1.0000 0.78880  0.71840  0.46360  Biso   1.000  O
  O62      1.0000 0.78160  0.78880  0.46360  Biso   1.000  O
  O63      1.0000 0.71840  0.71120  0.46360  Biso   1.000  O
  O64      1.0000 0.21840  0.28880  0.03640  Biso   1.000  O
  O65      1.0000 0.71120  0.78160  0.46360  Biso   1.000  O
  O66      1.0000 0.21120  0.21840  0.03640  Biso   1.000  O
  O67      1.0000 0.28880  0.28160  0.03640  Biso   1.000  O
  O68      1.0000 0.28160  0.21120  0.03640  Biso   1.000  O
