data_image0
_cell_length_a       10.339
_cell_length_b       10.339
_cell_length_c       65.69
_cell_angle_alpha    90
_cell_angle_beta     90
_cell_angle_gamma    120

_symmetry_space_group_name_H-M    "P 1"
_symmetry_int_tables_number       1

loop_
  _symmetry_equiv_pos_as_xyz
  'x, y, z'

loop_
  _atom_site_label
  _atom_site_occupancy
  _atom_site_fract_x
  _atom_site_fract_y
  _atom_site_fract_z
  _atom_site_thermal_displace_type
  _atom_site_B_iso_or_equiv
  _atom_site_type_symbol
  Cu1      1.0000 0.00000  0.00000  0.00000  Biso   1.000  Cu
  Cu2      1.0000 0.00000  0.00000  0.50000  Biso   1.000  Cu
  Cu3      1.0000 0.66667  0.33333  0.33333  Biso   1.000  Cu
  Cu4      1.0000 0.66667  0.33333  0.83333  Biso   1.000  Cu
  Cu5      1.0000 0.33333  0.66667  0.66667  Biso   1.000  Cu
  Cu6      1.0000 0.33333  0.66667  0.16667  Biso   1.000  Cu
  Cl1      1.0000 0.00000  0.00000  0.11015  Biso   1.000  Cl
  Cl2      1.0000 0.00000  0.00000  0.38985  Biso   1.000  Cl
  Cl3      1.0000 0.66667  0.33333  0.44348  Biso   1.000  Cl
  Cl4      1.0000 0.66667  0.33333  0.72318  Biso   1.000  Cl
  Cl5      1.0000 0.33333  0.66667  0.77682  Biso   1.000  Cl
  Cl6      1.0000 0.33333  0.66667  0.05652  Biso   1.000  Cl
  Cl7      1.0000 0.00000  0.00000  0.88985  Biso   1.000  Cl
  Cl8      1.0000 0.00000  0.00000  0.61015  Biso   1.000  Cl
  Cl9      1.0000 0.66667  0.33333  0.22318  Biso   1.000  Cl
  Cl10     1.0000 0.66667  0.33333  0.94348  Biso   1.000  Cl
  Cl11     1.0000 0.33333  0.66667  0.55652  Biso   1.000  Cl
  Cl12     1.0000 0.33333  0.66667  0.27682  Biso   1.000  Cl
  S1       1.0000 0.77871  0.03453  0.97022  Biso   1.000  S
  S2       1.0000 0.96547  0.74418  0.97022  Biso   1.000  S
  S3       1.0000 0.25582  0.22129  0.97022  Biso   1.000  S
  S4       1.0000 0.03453  0.77871  0.52978  Biso   1.000  S
  S5       1.0000 0.44538  0.36786  0.30355  Biso   1.000  S
  S6       1.0000 0.63214  0.07751  0.30355  Biso   1.000  S
  S7       1.0000 0.92249  0.55462  0.30355  Biso   1.000  S
  S8       1.0000 0.70120  0.11204  0.86311  Biso   1.000  S
  S9       1.0000 0.11204  0.70120  0.63689  Biso   1.000  S
  S10      1.0000 0.36786  0.44538  0.19645  Biso   1.000  S
  S11      1.0000 0.74418  0.96547  0.52978  Biso   1.000  S
  S12      1.0000 0.22129  0.25582  0.52978  Biso   1.000  S
  S13      1.0000 0.29880  0.41085  0.63689  Biso   1.000  S
  S14      1.0000 0.58915  0.88796  0.63689  Biso   1.000  S
  S15      1.0000 0.07751  0.63214  0.19645  Biso   1.000  S
  S16      1.0000 0.55462  0.92249  0.19645  Biso   1.000  S
  S17      1.0000 0.41085  0.29880  0.86311  Biso   1.000  S
  S18      1.0000 0.88796  0.58915  0.86311  Biso   1.000  S
  S19      1.0000 0.22129  0.96547  0.02978  Biso   1.000  S
  S20      1.0000 0.03453  0.25582  0.02978  Biso   1.000  S
  S21      1.0000 0.74418  0.77871  0.02978  Biso   1.000  S
  S22      1.0000 0.96547  0.22129  0.47022  Biso   1.000  S
  S23      1.0000 0.88796  0.29880  0.36311  Biso   1.000  S
  S24      1.0000 0.70120  0.58915  0.36311  Biso   1.000  S
  S25      1.0000 0.41085  0.11204  0.36311  Biso   1.000  S
  S26      1.0000 0.63214  0.55462  0.80355  Biso   1.000  S
  S27      1.0000 0.55462  0.63214  0.69645  Biso   1.000  S
  S28      1.0000 0.29880  0.88796  0.13689  Biso   1.000  S
  S29      1.0000 0.25582  0.03453  0.47022  Biso   1.000  S
  S30      1.0000 0.77871  0.74418  0.47022  Biso   1.000  S
  S31      1.0000 0.36786  0.92249  0.69645  Biso   1.000  S
  S32      1.0000 0.07751  0.44538  0.69645  Biso   1.000  S
  S33      1.0000 0.58915  0.70120  0.13689  Biso   1.000  S
  S34      1.0000 0.11204  0.41085  0.13689  Biso   1.000  S
  S35      1.0000 0.92249  0.36786  0.80355  Biso   1.000  S
  S36      1.0000 0.44538  0.07751  0.80355  Biso   1.000  S
  C1       1.0000 0.65620  0.81600  0.93994  Biso   1.000  C
  C2       1.0000 0.18400  0.84020  0.93994  Biso   1.000  C
  C3       1.0000 0.15980  0.34380  0.93994  Biso   1.000  C
  C4       1.0000 0.81600  0.65620  0.56006  Biso   1.000  C
  C5       1.0000 0.32287  0.14933  0.27327  Biso   1.000  C
  C6       1.0000 0.85067  0.17353  0.27327  Biso   1.000  C
  C7       1.0000 0.82647  0.67713  0.27327  Biso   1.000  C
  C8       1.0000 0.48267  0.98953  0.89339  Biso   1.000  C
  C9       1.0000 0.98953  0.48267  0.60661  Biso   1.000  C
  C10      1.0000 0.14933  0.32287  0.22673  Biso   1.000  C
  C11      1.0000 0.84020  0.18400  0.56006  Biso   1.000  C
  C12      1.0000 0.34380  0.15980  0.56006  Biso   1.000  C
  C13      1.0000 0.51733  0.50687  0.60661  Biso   1.000  C
  C14      1.0000 0.49313  0.01047  0.60661  Biso   1.000  C
  C15      1.0000 0.17353  0.85067  0.22673  Biso   1.000  C
  C16      1.0000 0.67713  0.82647  0.22673  Biso   1.000  C
  C17      1.0000 0.50687  0.51733  0.89339  Biso   1.000  C
  C18      1.0000 0.01047  0.49313  0.89339  Biso   1.000  C
  C19      1.0000 0.34380  0.18400  0.06006  Biso   1.000  C
  C20      1.0000 0.81600  0.15980  0.06006  Biso   1.000  C
  C21      1.0000 0.84020  0.65620  0.06006  Biso   1.000  C
  C22      1.0000 0.18400  0.34380  0.43994  Biso   1.000  C
  C23      1.0000 0.01047  0.51733  0.39339  Biso   1.000  C
  C24      1.0000 0.48267  0.49313  0.39339  Biso   1.000  C
  C25      1.0000 0.50687  0.98953  0.39339  Biso   1.000  C
  C26      1.0000 0.85067  0.67713  0.77327  Biso   1.000  C
  C27      1.0000 0.67713  0.85067  0.72673  Biso   1.000  C
  C28      1.0000 0.51733  0.01047  0.10661  Biso   1.000  C
  C29      1.0000 0.15980  0.81600  0.43994  Biso   1.000  C
  C30      1.0000 0.65620  0.84020  0.43994  Biso   1.000  C
  C31      1.0000 0.14933  0.82647  0.72673  Biso   1.000  C
  C32      1.0000 0.17353  0.32287  0.72673  Biso   1.000  C
  C33      1.0000 0.49313  0.48267  0.10661  Biso   1.000  C
  C34      1.0000 0.98953  0.50687  0.10661  Biso   1.000  C
  C35      1.0000 0.82647  0.14933  0.77327  Biso   1.000  C
  C36      1.0000 0.32287  0.17353  0.77327  Biso   1.000  C
  H1       1.0000 0.65340  0.79770  0.92560  Biso   1.000  H
  H2       1.0000 0.20230  0.85570  0.92560  Biso   1.000  H
  H3       1.0000 0.14430  0.34660  0.92560  Biso   1.000  H
  H4       1.0000 0.79770  0.65340  0.57440  Biso   1.000  H
  H5       1.0000 0.32007  0.13103  0.25893  Biso   1.000  H
  H6       1.0000 0.86897  0.18903  0.25893  Biso   1.000  H
  H7       1.0000 0.81097  0.67993  0.25893  Biso   1.000  H
  H8       1.0000 0.46437  0.98673  0.90773  Biso   1.000  H
  H9       1.0000 0.98673  0.46437  0.59227  Biso   1.000  H
  H10      1.0000 0.13103  0.32007  0.24107  Biso   1.000  H
  H11      1.0000 0.85570  0.20230  0.57440  Biso   1.000  H
  H12      1.0000 0.34660  0.14430  0.57440  Biso   1.000  H
  H13      1.0000 0.53563  0.52237  0.59227  Biso   1.000  H
  H14      1.0000 0.47763  0.01327  0.59227  Biso   1.000  H
  H15      1.0000 0.18903  0.86897  0.24107  Biso   1.000  H
  H16      1.0000 0.67993  0.81097  0.24107  Biso   1.000  H
  H17      1.0000 0.52237  0.53563  0.90773  Biso   1.000  H
  H18      1.0000 0.01327  0.47763  0.90773  Biso   1.000  H
  H19      1.0000 0.34660  0.20230  0.07440  Biso   1.000  H
  H20      1.0000 0.79770  0.14430  0.07440  Biso   1.000  H
  H21      1.0000 0.85570  0.65340  0.07440  Biso   1.000  H
  H22      1.0000 0.20230  0.34660  0.42560  Biso   1.000  H
  H23      1.0000 0.01327  0.53563  0.40773  Biso   1.000  H
  H24      1.0000 0.46437  0.47763  0.40773  Biso   1.000  H
  H25      1.0000 0.52237  0.98673  0.40773  Biso   1.000  H
  H26      1.0000 0.86897  0.67993  0.75893  Biso   1.000  H
  H27      1.0000 0.67993  0.86897  0.74107  Biso   1.000  H
  H28      1.0000 0.53563  0.01327  0.09227  Biso   1.000  H
  H29      1.0000 0.14430  0.79770  0.42560  Biso   1.000  H
  H30      1.0000 0.65340  0.85570  0.42560  Biso   1.000  H
  H31      1.0000 0.13103  0.81097  0.74107  Biso   1.000  H
  H32      1.0000 0.18903  0.32007  0.74107  Biso   1.000  H
  H33      1.0000 0.47763  0.46437  0.09227  Biso   1.000  H
  H34      1.0000 0.98673  0.52237  0.09227  Biso   1.000  H
  H35      1.0000 0.81097  0.13103  0.75893  Biso   1.000  H
  H36      1.0000 0.32007  0.18903  0.75893  Biso   1.000  H
  H37      1.0000 0.69160  0.75830  0.94700  Biso   1.000  H
  H38      1.0000 0.24170  0.93330  0.94700  Biso   1.000  H
  H39      1.0000 0.06670  0.30840  0.94700  Biso   1.000  H
  H40      1.0000 0.75830  0.69160  0.55300  Biso   1.000  H
  H41      1.0000 0.35827  0.09163  0.28033  Biso   1.000  H
  H42      1.0000 0.90837  0.26663  0.28033  Biso   1.000  H
  H43      1.0000 0.73337  0.64173  0.28033  Biso   1.000  H
  H44      1.0000 0.42497  0.02493  0.88633  Biso   1.000  H
  H45      1.0000 0.02493  0.42497  0.61367  Biso   1.000  H
  H46      1.0000 0.09163  0.35827  0.21967  Biso   1.000  H
  H47      1.0000 0.93330  0.24170  0.55300  Biso   1.000  H
  H48      1.0000 0.30840  0.06670  0.55300  Biso   1.000  H
  H49      1.0000 0.57503  0.59997  0.61367  Biso   1.000  H
  H50      1.0000 0.40003  0.97507  0.61367  Biso   1.000  H
  H51      1.0000 0.26663  0.90837  0.21967  Biso   1.000  H
  H52      1.0000 0.64173  0.73337  0.21967  Biso   1.000  H
  H53      1.0000 0.59997  0.57503  0.88633  Biso   1.000  H
  H54      1.0000 0.97507  0.40003  0.88633  Biso   1.000  H
  H55      1.0000 0.30840  0.24170  0.05300  Biso   1.000  H
  H56      1.0000 0.75830  0.06670  0.05300  Biso   1.000  H
  H57      1.0000 0.93330  0.69160  0.05300  Biso   1.000  H
  H58      1.0000 0.24170  0.30840  0.44700  Biso   1.000  H
  H59      1.0000 0.97507  0.57503  0.38633  Biso   1.000  H
  H60      1.0000 0.42497  0.40003  0.38633  Biso   1.000  H
  H61      1.0000 0.59997  0.02493  0.38633  Biso   1.000  H
  H62      1.0000 0.90837  0.64173  0.78033  Biso   1.000  H
  H63      1.0000 0.64173  0.90837  0.71967  Biso   1.000  H
  H64      1.0000 0.57503  0.97507  0.11367  Biso   1.000  H
  H65      1.0000 0.06670  0.75830  0.44700  Biso   1.000  H
  H66      1.0000 0.69160  0.93330  0.44700  Biso   1.000  H
  H67      1.0000 0.09163  0.73337  0.71967  Biso   1.000  H
  H68      1.0000 0.26663  0.35827  0.71967  Biso   1.000  H
  H69      1.0000 0.40003  0.42497  0.11367  Biso   1.000  H
  H70      1.0000 0.02493  0.59997  0.11367  Biso   1.000  H
  H71      1.0000 0.73337  0.09163  0.78033  Biso   1.000  H
  H72      1.0000 0.35827  0.26663  0.78033  Biso   1.000  H
  H73      1.0000 0.55760  0.78780  0.94460  Biso   1.000  H
  H74      1.0000 0.21220  0.76980  0.94460  Biso   1.000  H
  H75      1.0000 0.23020  0.44240  0.94460  Biso   1.000  H
  H76      1.0000 0.78780  0.55760  0.55540  Biso   1.000  H
  H77      1.0000 0.22427  0.12113  0.27793  Biso   1.000  H
  H78      1.0000 0.87887  0.10313  0.27793  Biso   1.000  H
  H79      1.0000 0.89687  0.77573  0.27793  Biso   1.000  H
  H80      1.0000 0.45447  0.89093  0.88873  Biso   1.000  H
  H81      1.0000 0.89093  0.45447  0.61127  Biso   1.000  H
  H82      1.0000 0.12113  0.22427  0.22207  Biso   1.000  H
  H83      1.0000 0.76980  0.21220  0.55540  Biso   1.000  H
  H84      1.0000 0.44240  0.23020  0.55540  Biso   1.000  H
  H85      1.0000 0.54553  0.43647  0.61127  Biso   1.000  H
  H86      1.0000 0.56353  0.10907  0.61127  Biso   1.000  H
  H87      1.0000 0.10313  0.87887  0.22207  Biso   1.000  H
  H88      1.0000 0.77573  0.89687  0.22207  Biso   1.000  H
  H89      1.0000 0.43647  0.54553  0.88873  Biso   1.000  H
  H90      1.0000 0.10907  0.56353  0.88873  Biso   1.000  H
  H91      1.0000 0.44240  0.21220  0.05540  Biso   1.000  H
  H92      1.0000 0.78780  0.23020  0.05540  Biso   1.000  H
  H93      1.0000 0.76980  0.55760  0.05540  Biso   1.000  H
  H94      1.0000 0.21220  0.44240  0.44460  Biso   1.000  H
  H95      1.0000 0.10907  0.54553  0.38873  Biso   1.000  H
  H96      1.0000 0.45447  0.56353  0.38873  Biso   1.000  H
  H97      1.0000 0.43647  0.89093  0.38873  Biso   1.000  H
  H98      1.0000 0.87887  0.77573  0.77793  Biso   1.000  H
  H99      1.0000 0.77573  0.87887  0.72207  Biso   1.000  H
  H100     1.0000 0.54553  0.10907  0.11127  Biso   1.000  H
  H101     1.0000 0.23020  0.78780  0.44460  Biso   1.000  H
  H102     1.0000 0.55760  0.76980  0.44460  Biso   1.000  H
  H103     1.0000 0.12113  0.89687  0.72207  Biso   1.000  H
  H104     1.0000 0.10313  0.22427  0.72207  Biso   1.000  H
  H105     1.0000 0.56353  0.45447  0.11127  Biso   1.000  H
  H106     1.0000 0.89093  0.43647  0.11127  Biso   1.000  H
  H107     1.0000 0.89687  0.12113  0.77793  Biso   1.000  H
  H108     1.0000 0.22427  0.10313  0.77793  Biso   1.000  H
  C37      1.0000 0.75910  0.97860  0.94405  Biso   1.000  C
  C38      1.0000 0.02140  0.78050  0.94405  Biso   1.000  C
  C39      1.0000 0.21950  0.24090  0.94405  Biso   1.000  C
  C40      1.0000 0.97860  0.75910  0.55595  Biso   1.000  C
  C41      1.0000 0.42577  0.31193  0.27738  Biso   1.000  C
  C42      1.0000 0.68807  0.11383  0.27738  Biso   1.000  C
  C43      1.0000 0.88617  0.57423  0.27738  Biso   1.000  C
  C44      1.0000 0.64527  0.09243  0.88928  Biso   1.000  C
  C45      1.0000 0.09243  0.64527  0.61072  Biso   1.000  C
  C46      1.0000 0.31193  0.42577  0.22262  Biso   1.000  C
  C47      1.0000 0.78050  0.02140  0.55595  Biso   1.000  C
  C48      1.0000 0.24090  0.21950  0.55595  Biso   1.000  C
  C49      1.0000 0.35473  0.44717  0.61072  Biso   1.000  C
  C50      1.0000 0.55283  0.90757  0.61072  Biso   1.000  C
  C51      1.0000 0.11383  0.68807  0.22262  Biso   1.000  C
  C52      1.0000 0.57423  0.88617  0.22262  Biso   1.000  C
  C53      1.0000 0.44717  0.35473  0.88928  Biso   1.000  C
  C54      1.0000 0.90757  0.55283  0.88928  Biso   1.000  C
  C55      1.0000 0.24090  0.02140  0.05595  Biso   1.000  C
  C56      1.0000 0.97860  0.21950  0.05595  Biso   1.000  C
  C57      1.0000 0.78050  0.75910  0.05595  Biso   1.000  C
  C58      1.0000 0.02140  0.24090  0.44405  Biso   1.000  C
  C59      1.0000 0.90757  0.35473  0.38928  Biso   1.000  C
  C60      1.0000 0.64527  0.55283  0.38928  Biso   1.000  C
  C61      1.0000 0.44717  0.09243  0.38928  Biso   1.000  C
  C62      1.0000 0.68807  0.57423  0.77738  Biso   1.000  C
  C63      1.0000 0.57423  0.68807  0.72262  Biso   1.000  C
  C64      1.0000 0.35473  0.90757  0.11072  Biso   1.000  C
  C65      1.0000 0.21950  0.97860  0.44405  Biso   1.000  C
  C66      1.0000 0.75910  0.78050  0.44405  Biso   1.000  C
  C67      1.0000 0.31193  0.88617  0.72262  Biso   1.000  C
  C68      1.0000 0.11383  0.42577  0.72262  Biso   1.000  C
  C69      1.0000 0.55283  0.64527  0.11072  Biso   1.000  C
  C70      1.0000 0.09243  0.44717  0.11072  Biso   1.000  C
  C71      1.0000 0.88617  0.31193  0.77738  Biso   1.000  C
  C72      1.0000 0.42577  0.11383  0.77738  Biso   1.000  C
  H109     1.0000 0.85720  0.00580  0.93880  Biso   1.000  H
  H110     1.0000 0.99420  0.85140  0.93880  Biso   1.000  H
  H111     1.0000 0.14860  0.14280  0.93880  Biso   1.000  H
  H112     1.0000 0.00580  0.85720  0.56120  Biso   1.000  H
  H113     1.0000 0.52387  0.33913  0.27213  Biso   1.000  H
  H114     1.0000 0.66087  0.18473  0.27213  Biso   1.000  H
  H115     1.0000 0.81527  0.47613  0.27213  Biso   1.000  H
  H116     1.0000 0.67247  0.19053  0.89453  Biso   1.000  H
  H117     1.0000 0.19053  0.67247  0.60547  Biso   1.000  H
  H118     1.0000 0.33913  0.52387  0.22787  Biso   1.000  H
  H119     1.0000 0.85140  0.99420  0.56120  Biso   1.000  H
  H120     1.0000 0.14280  0.14860  0.56120  Biso   1.000  H
  H121     1.0000 0.32753  0.51807  0.60547  Biso   1.000  H
  H122     1.0000 0.48193  0.80947  0.60547  Biso   1.000  H
  H123     1.0000 0.18473  0.66087  0.22787  Biso   1.000  H
  H124     1.0000 0.47613  0.81527  0.22787  Biso   1.000  H
  H125     1.0000 0.51807  0.32753  0.89453  Biso   1.000  H
  H126     1.0000 0.80947  0.48193  0.89453  Biso   1.000  H
  H127     1.0000 0.14280  0.99420  0.06120  Biso   1.000  H
  H128     1.0000 0.00580  0.14860  0.06120  Biso   1.000  H
  H129     1.0000 0.85140  0.85720  0.06120  Biso   1.000  H
  H130     1.0000 0.99420  0.14280  0.43880  Biso   1.000  H
  H131     1.0000 0.80947  0.32753  0.39453  Biso   1.000  H
  H132     1.0000 0.67247  0.48193  0.39453  Biso   1.000  H
  H133     1.0000 0.51807  0.19053  0.39453  Biso   1.000  H
  H134     1.0000 0.66087  0.47613  0.77213  Biso   1.000  H
  H135     1.0000 0.47613  0.66087  0.72787  Biso   1.000  H
  H136     1.0000 0.32753  0.80947  0.10547  Biso   1.000  H
  H137     1.0000 0.14860  0.00580  0.43880  Biso   1.000  H
  H138     1.0000 0.85720  0.85140  0.43880  Biso   1.000  H
  H139     1.0000 0.33913  0.81527  0.72787  Biso   1.000  H
  H140     1.0000 0.18473  0.52387  0.72787  Biso   1.000  H
  H141     1.0000 0.48193  0.67247  0.10547  Biso   1.000  H
  H142     1.0000 0.19053  0.51807  0.10547  Biso   1.000  H
  H143     1.0000 0.81527  0.33913  0.77213  Biso   1.000  H
  H144     1.0000 0.52387  0.18473  0.77213  Biso   1.000  H
  H145     1.0000 0.72360  0.03520  0.93650  Biso   1.000  H
  H146     1.0000 0.96480  0.68840  0.93650  Biso   1.000  H
  H147     1.0000 0.31160  0.27640  0.93650  Biso   1.000  H
  H148     1.0000 0.03520  0.72360  0.56350  Biso   1.000  H
  H149     1.0000 0.39027  0.36853  0.26983  Biso   1.000  H
  H150     1.0000 0.63147  0.02173  0.26983  Biso   1.000  H
  H151     1.0000 0.97827  0.60973  0.26983  Biso   1.000  H
  H152     1.0000 0.70187  0.05693  0.89683  Biso   1.000  H
  H153     1.0000 0.05693  0.70187  0.60317  Biso   1.000  H
  H154     1.0000 0.36853  0.39027  0.23017  Biso   1.000  H
  H155     1.0000 0.68840  0.96480  0.56350  Biso   1.000  H
  H156     1.0000 0.27640  0.31160  0.56350  Biso   1.000  H
  H157     1.0000 0.29813  0.35507  0.60317  Biso   1.000  H
  H158     1.0000 0.64493  0.94307  0.60317  Biso   1.000  H
  H159     1.0000 0.02173  0.63147  0.23017  Biso   1.000  H
  H160     1.0000 0.60973  0.97827  0.23017  Biso   1.000  H
  H161     1.0000 0.35507  0.29813  0.89683  Biso   1.000  H
  H162     1.0000 0.94307  0.64493  0.89683  Biso   1.000  H
  H163     1.0000 0.27640  0.96480  0.06350  Biso   1.000  H
  H164     1.0000 0.03520  0.31160  0.06350  Biso   1.000  H
  H165     1.0000 0.68840  0.72360  0.06350  Biso   1.000  H
  H166     1.0000 0.96480  0.27640  0.43650  Biso   1.000  H
  H167     1.0000 0.94307  0.29813  0.39683  Biso   1.000  H
  H168     1.0000 0.70187  0.64493  0.39683  Biso   1.000  H
  H169     1.0000 0.35507  0.05693  0.39683  Biso   1.000  H
  H170     1.0000 0.63147  0.60973  0.76983  Biso   1.000  H
  H171     1.0000 0.60973  0.63147  0.73017  Biso   1.000  H
  H172     1.0000 0.29813  0.94307  0.10317  Biso   1.000  H
  H173     1.0000 0.31160  0.03520  0.43650  Biso   1.000  H
  H174     1.0000 0.72360  0.68840  0.43650  Biso   1.000  H
  H175     1.0000 0.36853  0.97827  0.73017  Biso   1.000  H
  H176     1.0000 0.02173  0.39027  0.73017  Biso   1.000  H
  H177     1.0000 0.64493  0.70187  0.10317  Biso   1.000  H
  H178     1.0000 0.05693  0.35507  0.10317  Biso   1.000  H
  H179     1.0000 0.97827  0.36853  0.76983  Biso   1.000  H
  H180     1.0000 0.39027  0.02173  0.76983  Biso   1.000  H
  C73      1.0000 0.58860  0.97150  0.97601  Biso   1.000  C
  C74      1.0000 0.02850  0.61710  0.97601  Biso   1.000  C
  C75      1.0000 0.38290  0.41140  0.97601  Biso   1.000  C
  C76      1.0000 0.97150  0.58860  0.52399  Biso   1.000  C
  C77      1.0000 0.25527  0.30483  0.30934  Biso   1.000  C
  C78      1.0000 0.69517  0.95043  0.30934  Biso   1.000  C
  C79      1.0000 0.04957  0.74473  0.30934  Biso   1.000  C
  C80      1.0000 0.63817  0.92193  0.85732  Biso   1.000  C
  C81      1.0000 0.92193  0.63817  0.64268  Biso   1.000  C
  C82      1.0000 0.30483  0.25527  0.19066  Biso   1.000  C
  C83      1.0000 0.61710  0.02850  0.52399  Biso   1.000  C
  C84      1.0000 0.41140  0.38290  0.52399  Biso   1.000  C
  C85      1.0000 0.36183  0.28377  0.64268  Biso   1.000  C
  C86      1.0000 0.71623  0.07807  0.64268  Biso   1.000  C
  C87      1.0000 0.95043  0.69517  0.19066  Biso   1.000  C
  C88      1.0000 0.74473  0.04957  0.19066  Biso   1.000  C
  C89      1.0000 0.28377  0.36183  0.85732  Biso   1.000  C
  C90      1.0000 0.07807  0.71623  0.85732  Biso   1.000  C
  C91      1.0000 0.41140  0.02850  0.02399  Biso   1.000  C
  C92      1.0000 0.97150  0.38290  0.02399  Biso   1.000  C
  C93      1.0000 0.61710  0.58860  0.02399  Biso   1.000  C
  C94      1.0000 0.02850  0.41140  0.47601  Biso   1.000  C
  C95      1.0000 0.07807  0.36183  0.35732  Biso   1.000  C
  C96      1.0000 0.63817  0.71623  0.35732  Biso   1.000  C
  C97      1.0000 0.28377  0.92193  0.35732  Biso   1.000  C
  C98      1.0000 0.69517  0.74473  0.80934  Biso   1.000  C
  C99      1.0000 0.74473  0.69517  0.69066  Biso   1.000  C
  C100     1.0000 0.36183  0.07807  0.14268  Biso   1.000  C
  C101     1.0000 0.38290  0.97150  0.47601  Biso   1.000  C
  C102     1.0000 0.58860  0.61710  0.47601  Biso   1.000  C
  C103     1.0000 0.30483  0.04957  0.69066  Biso   1.000  C
  C104     1.0000 0.95043  0.25527  0.69066  Biso   1.000  C
  C105     1.0000 0.71623  0.63817  0.14268  Biso   1.000  C
  C106     1.0000 0.92193  0.28377  0.14268  Biso   1.000  C
  C107     1.0000 0.04957  0.30483  0.80934  Biso   1.000  C
  C108     1.0000 0.25527  0.95043  0.80934  Biso   1.000  C
  H181     1.0000 0.53170  0.86330  0.97550  Biso   1.000  H
  H182     1.0000 0.13670  0.66840  0.97550  Biso   1.000  H
  H183     1.0000 0.33160  0.46830  0.97550  Biso   1.000  H
  H184     1.0000 0.86330  0.53170  0.52450  Biso   1.000  H
  H185     1.0000 0.19837  0.19663  0.30883  Biso   1.000  H
  H186     1.0000 0.80337  0.00173  0.30883  Biso   1.000  H
  H187     1.0000 0.99827  0.80163  0.30883  Biso   1.000  H
  H188     1.0000 0.52997  0.86503  0.85783  Biso   1.000  H
  H189     1.0000 0.86503  0.52997  0.64217  Biso   1.000  H
  H190     1.0000 0.19663  0.19837  0.19117  Biso   1.000  H
  H191     1.0000 0.66840  0.13670  0.52450  Biso   1.000  H
  H192     1.0000 0.46830  0.33160  0.52450  Biso   1.000  H
  H193     1.0000 0.47003  0.33507  0.64217  Biso   1.000  H
  H194     1.0000 0.66493  0.13497  0.64217  Biso   1.000  H
  H195     1.0000 0.00173  0.80337  0.19117  Biso   1.000  H
  H196     1.0000 0.80163  0.99827  0.19117  Biso   1.000  H
  H197     1.0000 0.33507  0.47003  0.85783  Biso   1.000  H
  H198     1.0000 0.13497  0.66493  0.85783  Biso   1.000  H
  H199     1.0000 0.46830  0.13670  0.02450  Biso   1.000  H
  H200     1.0000 0.86330  0.33160  0.02450  Biso   1.000  H
  H201     1.0000 0.66840  0.53170  0.02450  Biso   1.000  H
  H202     1.0000 0.13670  0.46830  0.47550  Biso   1.000  H
  H203     1.0000 0.13497  0.47003  0.35783  Biso   1.000  H
  H204     1.0000 0.52997  0.66493  0.35783  Biso   1.000  H
  H205     1.0000 0.33507  0.86503  0.35783  Biso   1.000  H
  H206     1.0000 0.80337  0.80163  0.80883  Biso   1.000  H
  H207     1.0000 0.80163  0.80337  0.69117  Biso   1.000  H
  H208     1.0000 0.47003  0.13497  0.14217  Biso   1.000  H
  H209     1.0000 0.33160  0.86330  0.47550  Biso   1.000  H
  H210     1.0000 0.53170  0.66840  0.47550  Biso   1.000  H
  H211     1.0000 0.19663  0.99827  0.69117  Biso   1.000  H
  H212     1.0000 0.00173  0.19837  0.69117  Biso   1.000  H
  H213     1.0000 0.66493  0.52997  0.14217  Biso   1.000  H
  H214     1.0000 0.86503  0.33507  0.14217  Biso   1.000  H
  H215     1.0000 0.99827  0.19663  0.80883  Biso   1.000  H
  H216     1.0000 0.19837  0.00173  0.80883  Biso   1.000  H
  H217     1.0000 0.54730  0.01000  0.96600  Biso   1.000  H
  H218     1.0000 0.99000  0.53730  0.96600  Biso   1.000  H
  H219     1.0000 0.46270  0.45270  0.96600  Biso   1.000  H
  H220     1.0000 0.01000  0.54730  0.53400  Biso   1.000  H
  H221     1.0000 0.21397  0.34333  0.29933  Biso   1.000  H
  H222     1.0000 0.65667  0.87063  0.29933  Biso   1.000  H
  H223     1.0000 0.12937  0.78603  0.29933  Biso   1.000  H
  H224     1.0000 0.67667  0.88063  0.86733  Biso   1.000  H
  H225     1.0000 0.88063  0.67667  0.63267  Biso   1.000  H
  H226     1.0000 0.34333  0.21397  0.20067  Biso   1.000  H
  H227     1.0000 0.53730  0.99000  0.53400  Biso   1.000  H
  H228     1.0000 0.45270  0.46270  0.53400  Biso   1.000  H
  H229     1.0000 0.32333  0.20397  0.63267  Biso   1.000  H
  H230     1.0000 0.79603  0.11937  0.63267  Biso   1.000  H
  H231     1.0000 0.87063  0.65667  0.20067  Biso   1.000  H
  H232     1.0000 0.78603  0.12937  0.20067  Biso   1.000  H
  H233     1.0000 0.20397  0.32333  0.86733  Biso   1.000  H
  H234     1.0000 0.11937  0.79603  0.86733  Biso   1.000  H
  H235     1.0000 0.45270  0.99000  0.03400  Biso   1.000  H
  H236     1.0000 0.01000  0.46270  0.03400  Biso   1.000  H
  H237     1.0000 0.53730  0.54730  0.03400  Biso   1.000  H
  H238     1.0000 0.99000  0.45270  0.46600  Biso   1.000  H
  H239     1.0000 0.11937  0.32333  0.36733  Biso   1.000  H
  H240     1.0000 0.67667  0.79603  0.36733  Biso   1.000  H
  H241     1.0000 0.20397  0.88063  0.36733  Biso   1.000  H
  H242     1.0000 0.65667  0.78603  0.79933  Biso   1.000  H
  H243     1.0000 0.78603  0.65667  0.70067  Biso   1.000  H
  H244     1.0000 0.32333  0.11937  0.13267  Biso   1.000  H
  H245     1.0000 0.46270  0.01000  0.46600  Biso   1.000  H
  H246     1.0000 0.54730  0.53730  0.46600  Biso   1.000  H
  H247     1.0000 0.34333  0.12937  0.70067  Biso   1.000  H
  H248     1.0000 0.87063  0.21397  0.70067  Biso   1.000  H
  H249     1.0000 0.79603  0.67667  0.13267  Biso   1.000  H
  H250     1.0000 0.88063  0.20397  0.13267  Biso   1.000  H
  H251     1.0000 0.12937  0.34333  0.79933  Biso   1.000  H
  H252     1.0000 0.21397  0.87063  0.79933  Biso   1.000  H
  C109     1.0000 0.57760  0.02520  0.99712  Biso   1.000  C
  C110     1.0000 0.97480  0.55240  0.99712  Biso   1.000  C
  C111     1.0000 0.44760  0.42240  0.99712  Biso   1.000  C
  C112     1.0000 0.02520  0.57760  0.50288  Biso   1.000  C
  C113     1.0000 0.24427  0.35853  0.33045  Biso   1.000  C
  C114     1.0000 0.64147  0.88573  0.33045  Biso   1.000  C
  C115     1.0000 0.11427  0.75573  0.33045  Biso   1.000  C
  C116     1.0000 0.69187  0.91093  0.83621  Biso   1.000  C
  C117     1.0000 0.91093  0.69187  0.66379  Biso   1.000  C
  C118     1.0000 0.35853  0.24427  0.16955  Biso   1.000  C
  C119     1.0000 0.55240  0.97480  0.50288  Biso   1.000  C
  C120     1.0000 0.42240  0.44760  0.50288  Biso   1.000  C
  C121     1.0000 0.30813  0.21907  0.66379  Biso   1.000  C
  C122     1.0000 0.78093  0.08907  0.66379  Biso   1.000  C
  C123     1.0000 0.88573  0.64147  0.16955  Biso   1.000  C
  C124     1.0000 0.75573  0.11427  0.16955  Biso   1.000  C
  C125     1.0000 0.21907  0.30813  0.83621  Biso   1.000  C
  C126     1.0000 0.08907  0.78093  0.83621  Biso   1.000  C
  C127     1.0000 0.42240  0.97480  0.00288  Biso   1.000  C
  C128     1.0000 0.02520  0.44760  0.00288  Biso   1.000  C
  C129     1.0000 0.55240  0.57760  0.00288  Biso   1.000  C
  C130     1.0000 0.97480  0.42240  0.49712  Biso   1.000  C
  C131     1.0000 0.08907  0.30813  0.33621  Biso   1.000  C
  C132     1.0000 0.69187  0.78093  0.33621  Biso   1.000  C
  C133     1.0000 0.21907  0.91093  0.33621  Biso   1.000  C
  C134     1.0000 0.64147  0.75573  0.83045  Biso   1.000  C
  C135     1.0000 0.75573  0.64147  0.66955  Biso   1.000  C
  C136     1.0000 0.30813  0.08907  0.16379  Biso   1.000  C
  C137     1.0000 0.44760  0.02520  0.49712  Biso   1.000  C
  C138     1.0000 0.57760  0.55240  0.49712  Biso   1.000  C
  C139     1.0000 0.35853  0.11427  0.66955  Biso   1.000  C
  C140     1.0000 0.88573  0.24427  0.66955  Biso   1.000  C
  C141     1.0000 0.78093  0.69187  0.16379  Biso   1.000  C
  C142     1.0000 0.91093  0.21907  0.16379  Biso   1.000  C
  C143     1.0000 0.11427  0.35853  0.83045  Biso   1.000  C
  C144     1.0000 0.24427  0.88573  0.83045  Biso   1.000  C
  H253     1.0000 0.86650  0.50110  0.99750  Biso   1.000  H
  H254     1.0000 0.49890  0.36540  0.99750  Biso   1.000  H
  H255     1.0000 0.63460  0.13350  0.99750  Biso   1.000  H
  H256     1.0000 0.50110  0.86650  0.50250  Biso   1.000  H
  H257     1.0000 0.53317  0.83443  0.33083  Biso   1.000  H
  H258     1.0000 0.16557  0.69873  0.33083  Biso   1.000  H
  H259     1.0000 0.30127  0.46683  0.33083  Biso   1.000  H
  H260     1.0000 0.16777  0.19983  0.83583  Biso   1.000  H
  H261     1.0000 0.19983  0.16777  0.66417  Biso   1.000  H
  H262     1.0000 0.83443  0.53317  0.16917  Biso   1.000  H
  H263     1.0000 0.36540  0.49890  0.50250  Biso   1.000  H
  H264     1.0000 0.13350  0.63460  0.50250  Biso   1.000  H
  H265     1.0000 0.83223  0.03207  0.66417  Biso   1.000  H
  H266     1.0000 0.96793  0.80017  0.66417  Biso   1.000  H
  H267     1.0000 0.69873  0.16557  0.16917  Biso   1.000  H
  H268     1.0000 0.46683  0.30127  0.16917  Biso   1.000  H
  H269     1.0000 0.03207  0.83223  0.83583  Biso   1.000  H
  H270     1.0000 0.80017  0.96793  0.83583  Biso   1.000  H
  H271     1.0000 0.13350  0.49890  0.00250  Biso   1.000  H
  H272     1.0000 0.50110  0.63460  0.00250  Biso   1.000  H
  H273     1.0000 0.36540  0.86650  0.00250  Biso   1.000  H
  H274     1.0000 0.49890  0.13350  0.49750  Biso   1.000  H
  H275     1.0000 0.80017  0.83223  0.33583  Biso   1.000  H
  H276     1.0000 0.16777  0.96793  0.33583  Biso   1.000  H
  H277     1.0000 0.03207  0.19983  0.33583  Biso   1.000  H
  H278     1.0000 0.16557  0.46683  0.83083  Biso   1.000  H
  H279     1.0000 0.46683  0.16557  0.66917  Biso   1.000  H
  H280     1.0000 0.83223  0.80017  0.16417  Biso   1.000  H
  H281     1.0000 0.63460  0.50110  0.49750  Biso   1.000  H
  H282     1.0000 0.86650  0.36540  0.49750  Biso   1.000  H
  H283     1.0000 0.83443  0.30127  0.66917  Biso   1.000  H
  H284     1.0000 0.69873  0.53317  0.66917  Biso   1.000  H
  H285     1.0000 0.96793  0.16777  0.16417  Biso   1.000  H
  H286     1.0000 0.19983  0.03207  0.16417  Biso   1.000  H
  H287     1.0000 0.30127  0.83443  0.83083  Biso   1.000  H
  H288     1.0000 0.53317  0.69873  0.83083  Biso   1.000  H
  H289     1.0000 0.01200  0.63310  0.00700  Biso   1.000  H
  H290     1.0000 0.36690  0.37890  0.00700  Biso   1.000  H
  H291     1.0000 0.62110  0.98800  0.00700  Biso   1.000  H
  H292     1.0000 0.63310  0.01200  0.49300  Biso   1.000  H
  H293     1.0000 0.67867  0.96643  0.34033  Biso   1.000  H
  H294     1.0000 0.03357  0.71223  0.34033  Biso   1.000  H
  H295     1.0000 0.28777  0.32133  0.34033  Biso   1.000  H
  H296     1.0000 0.29977  0.34533  0.82633  Biso   1.000  H
  H297     1.0000 0.34533  0.29977  0.67367  Biso   1.000  H
  H298     1.0000 0.96643  0.67867  0.15967  Biso   1.000  H
  H299     1.0000 0.37890  0.36690  0.49300  Biso   1.000  H
  H300     1.0000 0.98800  0.62110  0.49300  Biso   1.000  H
  H301     1.0000 0.70023  0.04557  0.67367  Biso   1.000  H
  H302     1.0000 0.95443  0.65467  0.67367  Biso   1.000  H
  H303     1.0000 0.71223  0.03357  0.15967  Biso   1.000  H
  H304     1.0000 0.32133  0.28777  0.15967  Biso   1.000  H
  H305     1.0000 0.04557  0.70023  0.82633  Biso   1.000  H
  H306     1.0000 0.65467  0.95443  0.82633  Biso   1.000  H
  H307     1.0000 0.98800  0.36690  0.99300  Biso   1.000  H
  H308     1.0000 0.63310  0.62110  0.99300  Biso   1.000  H
  H309     1.0000 0.37890  0.01200  0.99300  Biso   1.000  H
  H310     1.0000 0.36690  0.98800  0.50700  Biso   1.000  H
  H311     1.0000 0.65467  0.70023  0.32633  Biso   1.000  H
  H312     1.0000 0.29977  0.95443  0.32633  Biso   1.000  H
  H313     1.0000 0.04557  0.34533  0.32633  Biso   1.000  H
  H314     1.0000 0.03357  0.32133  0.84033  Biso   1.000  H
  H315     1.0000 0.32133  0.03357  0.65967  Biso   1.000  H
  H316     1.0000 0.70023  0.65467  0.17367  Biso   1.000  H
  H317     1.0000 0.62110  0.63310  0.50700  Biso   1.000  H
  H318     1.0000 0.01200  0.37890  0.50700  Biso   1.000  H
  H319     1.0000 0.96643  0.28777  0.65967  Biso   1.000  H
  H320     1.0000 0.71223  0.67867  0.65967  Biso   1.000  H
  H321     1.0000 0.95443  0.29977  0.17367  Biso   1.000  H
  H322     1.0000 0.34533  0.04557  0.17367  Biso   1.000  H
  H323     1.0000 0.28777  0.96643  0.84033  Biso   1.000  H
  H324     1.0000 0.67867  0.71223  0.84033  Biso   1.000  H
  O1       1.0000 0.81210  0.92630  0.98162  Biso   1.000  O
  O2       1.0000 0.07370  0.88580  0.98162  Biso   1.000  O
  O3       1.0000 0.11420  0.18790  0.98162  Biso   1.000  O
  O4       1.0000 0.92630  0.81210  0.51838  Biso   1.000  O
  O5       1.0000 0.47877  0.25963  0.31495  Biso   1.000  O
  O6       1.0000 0.74037  0.21913  0.31495  Biso   1.000  O
  O7       1.0000 0.78087  0.52123  0.31495  Biso   1.000  O
  O8       1.0000 0.59297  0.14543  0.85171  Biso   1.000  O
  O9       1.0000 0.14543  0.59297  0.64829  Biso   1.000  O
  O10      1.0000 0.25963  0.47877  0.18505  Biso   1.000  O
  O11      1.0000 0.88580  0.07370  0.51838  Biso   1.000  O
  O12      1.0000 0.18790  0.11420  0.51838  Biso   1.000  O
  O13      1.0000 0.40703  0.55247  0.64829  Biso   1.000  O
  O14      1.0000 0.44753  0.85457  0.64829  Biso   1.000  O
  O15      1.0000 0.21913  0.74037  0.18505  Biso   1.000  O
  O16      1.0000 0.52123  0.78087  0.18505  Biso   1.000  O
  O17      1.0000 0.55247  0.40703  0.85171  Biso   1.000  O
  O18      1.0000 0.85457  0.44753  0.85171  Biso   1.000  O
  O19      1.0000 0.18790  0.07370  0.01838  Biso   1.000  O
  O20      1.0000 0.92630  0.11420  0.01838  Biso   1.000  O
  O21      1.0000 0.88580  0.81210  0.01838  Biso   1.000  O
  O22      1.0000 0.07370  0.18790  0.48162  Biso   1.000  O
  O23      1.0000 0.85457  0.40703  0.35171  Biso   1.000  O
  O24      1.0000 0.59297  0.44753  0.35171  Biso   1.000  O
  O25      1.0000 0.55247  0.14543  0.35171  Biso   1.000  O
  O26      1.0000 0.74037  0.52123  0.81495  Biso   1.000  O
  O27      1.0000 0.52123  0.74037  0.68505  Biso   1.000  O
  O28      1.0000 0.40703  0.85457  0.14829  Biso   1.000  O
  O29      1.0000 0.11420  0.92630  0.48162  Biso   1.000  O
  O30      1.0000 0.81210  0.88580  0.48162  Biso   1.000  O
  O31      1.0000 0.25963  0.78087  0.68505  Biso   1.000  O
  O32      1.0000 0.21913  0.47877  0.68505  Biso   1.000  O
  O33      1.0000 0.44753  0.59297  0.14829  Biso   1.000  O
  O34      1.0000 0.14543  0.55247  0.14829  Biso   1.000  O
  O35      1.0000 0.78087  0.25963  0.81495  Biso   1.000  O
  O36      1.0000 0.47877  0.21913  0.81495  Biso   1.000  O
  O37      1.0000 0.13040  0.12460  0.10362  Biso   1.000  O
  O38      1.0000 0.87540  0.00580  0.10362  Biso   1.000  O
  O39      1.0000 0.99420  0.86960  0.10362  Biso   1.000  O
  O40      1.0000 0.12460  0.13040  0.39638  Biso   1.000  O
  O41      1.0000 0.79707  0.45793  0.43695  Biso   1.000  O
  O42      1.0000 0.54207  0.33913  0.43695  Biso   1.000  O
  O43      1.0000 0.66087  0.20293  0.43695  Biso   1.000  O
  O44      1.0000 0.79127  0.46373  0.72971  Biso   1.000  O
  O45      1.0000 0.46373  0.79127  0.77029  Biso   1.000  O
  O46      1.0000 0.45793  0.79707  0.06305  Biso   1.000  O
  O47      1.0000 0.00580  0.87540  0.39638  Biso   1.000  O
  O48      1.0000 0.86960  0.99420  0.39638  Biso   1.000  O
  O49      1.0000 0.20873  0.67247  0.77029  Biso   1.000  O
  O50      1.0000 0.32753  0.53627  0.77029  Biso   1.000  O
  O51      1.0000 0.33913  0.54207  0.06305  Biso   1.000  O
  O52      1.0000 0.20293  0.66087  0.06305  Biso   1.000  O
  O53      1.0000 0.67247  0.20873  0.72971  Biso   1.000  O
  O54      1.0000 0.53627  0.32753  0.72971  Biso   1.000  O
  O55      1.0000 0.86960  0.87540  0.89638  Biso   1.000  O
  O56      1.0000 0.12460  0.99420  0.89638  Biso   1.000  O
  O57      1.0000 0.00580  0.13040  0.89638  Biso   1.000  O
  O58      1.0000 0.87540  0.86960  0.60362  Biso   1.000  O
  O59      1.0000 0.53627  0.20873  0.22971  Biso   1.000  O
  O60      1.0000 0.79127  0.32753  0.22971  Biso   1.000  O
  O61      1.0000 0.67247  0.46373  0.22971  Biso   1.000  O
  O62      1.0000 0.54207  0.20293  0.93695  Biso   1.000  O
  O63      1.0000 0.20293  0.54207  0.56305  Biso   1.000  O
  O64      1.0000 0.20873  0.53627  0.27029  Biso   1.000  O
  O65      1.0000 0.99420  0.12460  0.60362  Biso   1.000  O
  O66      1.0000 0.13040  0.00580  0.60362  Biso   1.000  O
  O67      1.0000 0.45793  0.66087  0.56305  Biso   1.000  O
  O68      1.0000 0.33913  0.79707  0.56305  Biso   1.000  O
  O69      1.0000 0.32753  0.79127  0.27029  Biso   1.000  O
  O70      1.0000 0.46373  0.67247  0.27029  Biso   1.000  O
  O71      1.0000 0.66087  0.45793  0.93695  Biso   1.000  O
  O72      1.0000 0.79707  0.33913  0.93695  Biso   1.000  O
  O73      1.0000 0.00000  0.00000  0.13084  Biso   1.000  O
  O74      1.0000 0.00000  0.00000  0.36916  Biso   1.000  O
  O75      1.0000 0.66667  0.33333  0.46417  Biso   1.000  O
  O76      1.0000 0.66667  0.33333  0.70249  Biso   1.000  O
  O77      1.0000 0.33333  0.66667  0.79751  Biso   1.000  O
  O78      1.0000 0.33333  0.66667  0.03583  Biso   1.000  O
  O79      1.0000 0.00000  0.00000  0.86916  Biso   1.000  O
  O80      1.0000 0.00000  0.00000  0.63084  Biso   1.000  O
  O81      1.0000 0.66667  0.33333  0.20249  Biso   1.000  O
  O82      1.0000 0.66667  0.33333  0.96417  Biso   1.000  O
  O83      1.0000 0.33333  0.66667  0.53583  Biso   1.000  O
  O84      1.0000 0.33333  0.66667  0.29751  Biso   1.000  O
