data_image0
_cell_length_a       12.715
_cell_length_b       11.765
_cell_length_c       24.747
_cell_angle_alpha    90
_cell_angle_beta     90
_cell_angle_gamma    90

_symmetry_space_group_name_H-M    "P 1"
_symmetry_int_tables_number       1

loop_
  _symmetry_equiv_pos_as_xyz
  'x, y, z'

loop_
  _atom_site_label
  _atom_site_occupancy
  _atom_site_fract_x
  _atom_site_fract_y
  _atom_site_fract_z
  _atom_site_thermal_displace_type
  _atom_site_B_iso_or_equiv
  _atom_site_type_symbol
  Cu1      1.0000 0.50000  0.00000  0.50000  Biso   1.000  Cu
  Cu2      1.0000 0.00000  0.00000  0.00000  Biso   1.000  Cu
  Cu3      1.0000 0.50000  0.50000  0.00000  Biso   1.000  Cu
  Cu4      1.0000 0.00000  0.50000  0.50000  Biso   1.000  Cu
  S1       1.0000 0.37795  0.12502  0.41065  Biso   1.000  S
  S2       1.0000 0.12205  0.87498  0.91065  Biso   1.000  S
  S3       1.0000 0.62205  0.62502  0.08935  Biso   1.000  S
  S4       1.0000 0.87795  0.37498  0.58935  Biso   1.000  S
  S5       1.0000 0.62205  0.87498  0.58935  Biso   1.000  S
  S6       1.0000 0.87795  0.12502  0.08935  Biso   1.000  S
  S7       1.0000 0.37795  0.37498  0.91065  Biso   1.000  S
  S8       1.0000 0.12205  0.62502  0.41065  Biso   1.000  S
  S9       1.0000 0.21834  0.46174  0.55334  Biso   1.000  S
  S10      1.0000 0.28166  0.53826  0.05334  Biso   1.000  S
  S11      1.0000 0.78166  0.96174  0.94666  Biso   1.000  S
  S12      1.0000 0.71834  0.03826  0.44666  Biso   1.000  S
  S13      1.0000 0.78166  0.53826  0.44666  Biso   1.000  S
  S14      1.0000 0.71834  0.46174  0.94666  Biso   1.000  S
  S15      1.0000 0.21834  0.03826  0.05334  Biso   1.000  S
  S16      1.0000 0.28166  0.96174  0.55334  Biso   1.000  S
  Cl1      1.0000 0.56321  0.26449  0.59597  Biso   1.000  Cl
  Cl2      1.0000 0.93679  0.73551  0.09597  Biso   1.000  Cl
  Cl3      1.0000 0.43679  0.76449  0.90403  Biso   1.000  Cl
  Cl4      1.0000 0.06321  0.23551  0.40403  Biso   1.000  Cl
  Cl5      1.0000 0.43679  0.73551  0.40403  Biso   1.000  Cl
  Cl6      1.0000 0.06321  0.26449  0.90403  Biso   1.000  Cl
  Cl7      1.0000 0.56321  0.23551  0.09597  Biso   1.000  Cl
  Cl8      1.0000 0.93679  0.76449  0.59597  Biso   1.000  Cl
  O1       1.0000 0.48510  0.08710  0.43347  Biso   1.000  O
  O2       1.0000 0.01490  0.91290  0.93347  Biso   1.000  O
  O3       1.0000 0.51490  0.58710  0.06653  Biso   1.000  O
  O4       1.0000 0.98510  0.41290  0.56653  Biso   1.000  O
  O5       1.0000 0.51490  0.91290  0.56653  Biso   1.000  O
  O6       1.0000 0.98510  0.08710  0.06653  Biso   1.000  O
  O7       1.0000 0.48510  0.41290  0.93347  Biso   1.000  O
  O8       1.0000 0.01490  0.58710  0.43347  Biso   1.000  O
  O9       1.0000 0.14540  0.52740  0.51705  Biso   1.000  O
  O10      1.0000 0.35460  0.47260  0.01705  Biso   1.000  O
  O11      1.0000 0.85460  0.02740  0.98295  Biso   1.000  O
  O12      1.0000 0.64540  0.97260  0.48295  Biso   1.000  O
  O13      1.0000 0.85460  0.47260  0.48295  Biso   1.000  O
  O14      1.0000 0.64540  0.52740  0.98295  Biso   1.000  O
  O15      1.0000 0.14540  0.97260  0.01705  Biso   1.000  O
  O16      1.0000 0.35460  0.02740  0.51705  Biso   1.000  O
  O17      1.0000 0.47280  0.31250  0.61360  Biso   1.000  O
  O18      1.0000 0.02720  0.68750  0.11360  Biso   1.000  O
  O19      1.0000 0.52720  0.81250  0.88640  Biso   1.000  O
  O20      1.0000 0.97280  0.18750  0.38640  Biso   1.000  O
  O21      1.0000 0.52720  0.68750  0.38640  Biso   1.000  O
  O22      1.0000 0.97280  0.31250  0.88640  Biso   1.000  O
  O23      1.0000 0.47280  0.18750  0.11360  Biso   1.000  O
  O24      1.0000 0.02720  0.81250  0.61360  Biso   1.000  O
  O25      1.0000 0.63990  0.24080  0.63260  Biso   1.000  O
  O26      1.0000 0.86010  0.75920  0.13260  Biso   1.000  O
  O27      1.0000 0.36010  0.74080  0.86740  Biso   1.000  O
  O28      1.0000 0.13990  0.25920  0.36740  Biso   1.000  O
  O29      1.0000 0.36010  0.75920  0.36740  Biso   1.000  O
  O30      1.0000 0.13990  0.24080  0.86740  Biso   1.000  O
  O31      1.0000 0.63990  0.25920  0.13260  Biso   1.000  O
  O32      1.0000 0.86010  0.74080  0.63260  Biso   1.000  O
  O33      1.0000 0.60180  0.35260  0.57110  Biso   1.000  O
  O34      1.0000 0.89820  0.64740  0.07110  Biso   1.000  O
  O35      1.0000 0.39820  0.85260  0.92890  Biso   1.000  O
  O36      1.0000 0.10180  0.14740  0.42890  Biso   1.000  O
  O37      1.0000 0.39820  0.64740  0.42890  Biso   1.000  O
  O38      1.0000 0.10180  0.35260  0.92890  Biso   1.000  O
  O39      1.0000 0.60180  0.14740  0.07110  Biso   1.000  O
  O40      1.0000 0.89820  0.85260  0.57110  Biso   1.000  O
  O41      1.0000 0.55620  0.18380  0.55730  Biso   1.000  O
  O42      1.0000 0.94380  0.81620  0.05730  Biso   1.000  O
  O43      1.0000 0.44380  0.68380  0.94270  Biso   1.000  O
  O44      1.0000 0.05620  0.31620  0.44270  Biso   1.000  O
  O45      1.0000 0.44380  0.81620  0.44270  Biso   1.000  O
  O46      1.0000 0.05620  0.18380  0.94270  Biso   1.000  O
  O47      1.0000 0.55620  0.31620  0.05730  Biso   1.000  O
  O48      1.0000 0.94380  0.68380  0.55730  Biso   1.000  O
  C1       1.0000 0.54900  0.01390  0.22350  Biso   1.000  C
  C2       1.0000 0.95100  0.98610  0.72350  Biso   1.000  C
  C3       1.0000 0.45100  0.51390  0.27650  Biso   1.000  C
  C4       1.0000 0.04900  0.48610  0.77650  Biso   1.000  C
  C5       1.0000 0.45100  0.98610  0.77650  Biso   1.000  C
  C6       1.0000 0.04900  0.01390  0.27650  Biso   1.000  C
  C7       1.0000 0.54900  0.48610  0.72350  Biso   1.000  C
  C8       1.0000 0.95100  0.51390  0.22350  Biso   1.000  C
  H1       1.0000 0.53920  0.96510  0.19280  Biso   1.000  H
  H2       1.0000 0.96080  0.03490  0.69280  Biso   1.000  H
  H3       1.0000 0.46080  0.46510  0.30720  Biso   1.000  H
  H4       1.0000 0.03920  0.53490  0.80720  Biso   1.000  H
  H5       1.0000 0.46080  0.03490  0.80720  Biso   1.000  H
  H6       1.0000 0.03920  0.96510  0.30720  Biso   1.000  H
  H7       1.0000 0.53920  0.53490  0.69280  Biso   1.000  H
  H8       1.0000 0.96080  0.46510  0.19280  Biso   1.000  H
  H9       1.0000 0.61320  0.99400  0.24160  Biso   1.000  H
  H10      1.0000 0.88680  0.00600  0.74160  Biso   1.000  H
  H11      1.0000 0.38680  0.49400  0.25840  Biso   1.000  H
  H12      1.0000 0.11320  0.50600  0.75840  Biso   1.000  H
  H13      1.0000 0.38680  0.00600  0.75840  Biso   1.000  H
  H14      1.0000 0.11320  0.99400  0.25840  Biso   1.000  H
  H15      1.0000 0.61320  0.50600  0.74160  Biso   1.000  H
  H16      1.0000 0.88680  0.49400  0.24160  Biso   1.000  H
  H17      1.0000 0.55260  0.09150  0.21170  Biso   1.000  H
  H18      1.0000 0.94740  0.90850  0.71170  Biso   1.000  H
  H19      1.0000 0.44740  0.59150  0.28830  Biso   1.000  H
  H20      1.0000 0.05260  0.40850  0.78830  Biso   1.000  H
  H21      1.0000 0.44740  0.90850  0.78830  Biso   1.000  H
  H22      1.0000 0.05260  0.09150  0.28830  Biso   1.000  H
  H23      1.0000 0.55260  0.40850  0.71170  Biso   1.000  H
  H24      1.0000 0.94740  0.59150  0.21170  Biso   1.000  H
  C9       1.0000 0.46200  0.00050  0.26020  Biso   1.000  C
  C10      1.0000 0.03800  0.99950  0.76020  Biso   1.000  C
  C11      1.0000 0.53800  0.50050  0.23980  Biso   1.000  C
  C12      1.0000 0.96200  0.49950  0.73980  Biso   1.000  C
  C13      1.0000 0.53800  0.99950  0.73980  Biso   1.000  C
  C14      1.0000 0.96200  0.00050  0.23980  Biso   1.000  C
  C15      1.0000 0.46200  0.49950  0.76020  Biso   1.000  C
  C16      1.0000 0.03800  0.50050  0.26020  Biso   1.000  C
  H25      1.0000 0.45810  0.92120  0.27060  Biso   1.000  H
  H26      1.0000 0.04190  0.07880  0.77060  Biso   1.000  H
  H27      1.0000 0.54190  0.42120  0.22940  Biso   1.000  H
  H28      1.0000 0.95810  0.57880  0.72940  Biso   1.000  H
  H29      1.0000 0.54190  0.07880  0.72940  Biso   1.000  H
  H30      1.0000 0.95810  0.92120  0.22940  Biso   1.000  H
  H31      1.0000 0.45810  0.57880  0.77060  Biso   1.000  H
  H32      1.0000 0.04190  0.42120  0.27060  Biso   1.000  H
  H33      1.0000 0.39770  0.01850  0.24090  Biso   1.000  H
  H34      1.0000 0.10230  0.98150  0.74090  Biso   1.000  H
  H35      1.0000 0.60230  0.51850  0.25910  Biso   1.000  H
  H36      1.0000 0.89770  0.48150  0.75910  Biso   1.000  H
  H37      1.0000 0.60230  0.98150  0.75910  Biso   1.000  H
  H38      1.0000 0.89770  0.01850  0.25910  Biso   1.000  H
  H39      1.0000 0.39770  0.48150  0.74090  Biso   1.000  H
  H40      1.0000 0.10230  0.51850  0.24090  Biso   1.000  H
  C17      1.0000 0.46560  0.07030  0.30980  Biso   1.000  C
  C18      1.0000 0.03440  0.92970  0.80980  Biso   1.000  C
  C19      1.0000 0.53440  0.57030  0.19020  Biso   1.000  C
  C20      1.0000 0.96560  0.42970  0.69020  Biso   1.000  C
  C21      1.0000 0.53440  0.92970  0.69020  Biso   1.000  C
  C22      1.0000 0.96560  0.07030  0.19020  Biso   1.000  C
  C23      1.0000 0.46560  0.42970  0.80980  Biso   1.000  C
  C24      1.0000 0.03440  0.57030  0.30980  Biso   1.000  C
  H41      1.0000 0.47490  0.14920  0.29950  Biso   1.000  H
  H42      1.0000 0.02510  0.85080  0.79950  Biso   1.000  H
  H43      1.0000 0.52510  0.64920  0.20050  Biso   1.000  H
  H44      1.0000 0.97490  0.35080  0.70050  Biso   1.000  H
  H45      1.0000 0.52510  0.85080  0.70050  Biso   1.000  H
  H46      1.0000 0.97490  0.14920  0.20050  Biso   1.000  H
  H47      1.0000 0.47490  0.35080  0.79950  Biso   1.000  H
  H48      1.0000 0.02510  0.64920  0.29950  Biso   1.000  H
  H49      1.0000 0.52680  0.04790  0.33070  Biso   1.000  H
  H50      1.0000 0.97320  0.95210  0.83070  Biso   1.000  H
  H51      1.0000 0.47320  0.54790  0.16930  Biso   1.000  H
  H52      1.0000 0.02680  0.45210  0.66930  Biso   1.000  H
  H53      1.0000 0.47320  0.95210  0.66930  Biso   1.000  H
  H54      1.0000 0.02680  0.04790  0.16930  Biso   1.000  H
  H55      1.0000 0.52680  0.45210  0.83070  Biso   1.000  H
  H56      1.0000 0.97320  0.54790  0.33070  Biso   1.000  H
  C25      1.0000 0.37050  0.06170  0.34530  Biso   1.000  C
  C26      1.0000 0.12950  0.93830  0.84530  Biso   1.000  C
  C27      1.0000 0.62950  0.56170  0.15470  Biso   1.000  C
  C28      1.0000 0.87050  0.43830  0.65470  Biso   1.000  C
  C29      1.0000 0.62950  0.93830  0.65470  Biso   1.000  C
  C30      1.0000 0.87050  0.06170  0.15470  Biso   1.000  C
  C31      1.0000 0.37050  0.43830  0.84530  Biso   1.000  C
  C32      1.0000 0.12950  0.56170  0.34530  Biso   1.000  C
  H57      1.0000 0.35420  0.98180  0.35000  Biso   1.000  H
  H58      1.0000 0.14580  0.01820  0.85000  Biso   1.000  H
  H59      1.0000 0.64580  0.48180  0.15000  Biso   1.000  H
  H60      1.0000 0.85420  0.51820  0.65000  Biso   1.000  H
  H61      1.0000 0.64580  0.01820  0.65000  Biso   1.000  H
  H62      1.0000 0.85420  0.98180  0.15000  Biso   1.000  H
  H63      1.0000 0.35420  0.51820  0.85000  Biso   1.000  H
  H64      1.0000 0.14580  0.48180  0.35000  Biso   1.000  H
  H65      1.0000 0.31190  0.09600  0.32630  Biso   1.000  H
  H66      1.0000 0.18810  0.90400  0.82630  Biso   1.000  H
  H67      1.0000 0.68810  0.59600  0.17370  Biso   1.000  H
  H68      1.0000 0.81190  0.40400  0.67370  Biso   1.000  H
  H69      1.0000 0.68810  0.90400  0.67370  Biso   1.000  H
  H70      1.0000 0.81190  0.09600  0.17370  Biso   1.000  H
  H71      1.0000 0.31190  0.40400  0.82630  Biso   1.000  H
  H72      1.0000 0.18810  0.59600  0.32630  Biso   1.000  H
  C33      1.0000 0.40070  0.26760  0.39140  Biso   1.000  C
  C34      1.0000 0.09930  0.73240  0.89140  Biso   1.000  C
  C35      1.0000 0.59930  0.76760  0.10860  Biso   1.000  C
  C36      1.0000 0.90070  0.23240  0.60860  Biso   1.000  C
  C37      1.0000 0.59930  0.73240  0.60860  Biso   1.000  C
  C38      1.0000 0.90070  0.26760  0.10860  Biso   1.000  C
  C39      1.0000 0.40070  0.23240  0.89140  Biso   1.000  C
  C40      1.0000 0.09930  0.76760  0.39140  Biso   1.000  C
  H73      1.0000 0.46160  0.27040  0.36790  Biso   1.000  H
  H74      1.0000 0.03840  0.72960  0.86790  Biso   1.000  H
  H75      1.0000 0.53840  0.77040  0.13210  Biso   1.000  H
  H76      1.0000 0.96160  0.22960  0.63210  Biso   1.000  H
  H77      1.0000 0.53840  0.72960  0.63210  Biso   1.000  H
  H78      1.0000 0.96160  0.27040  0.13210  Biso   1.000  H
  H79      1.0000 0.46160  0.22960  0.86790  Biso   1.000  H
  H80      1.0000 0.03840  0.77040  0.36790  Biso   1.000  H
  H81      1.0000 0.34060  0.29480  0.37100  Biso   1.000  H
  H82      1.0000 0.15940  0.70520  0.87100  Biso   1.000  H
  H83      1.0000 0.65940  0.79480  0.12900  Biso   1.000  H
  H84      1.0000 0.84060  0.20520  0.62900  Biso   1.000  H
  H85      1.0000 0.65940  0.70520  0.62900  Biso   1.000  H
  H86      1.0000 0.84060  0.29480  0.12900  Biso   1.000  H
  H87      1.0000 0.34060  0.20520  0.87100  Biso   1.000  H
  H88      1.0000 0.15940  0.79480  0.37100  Biso   1.000  H
  C41      1.0000 0.41840  0.34430  0.43790  Biso   1.000  C
  C42      1.0000 0.08160  0.65570  0.93790  Biso   1.000  C
  C43      1.0000 0.58160  0.84430  0.06210  Biso   1.000  C
  C44      1.0000 0.91840  0.15570  0.56210  Biso   1.000  C
  C45      1.0000 0.58160  0.65570  0.56210  Biso   1.000  C
  C46      1.0000 0.91840  0.34430  0.06210  Biso   1.000  C
  C47      1.0000 0.41840  0.15570  0.93790  Biso   1.000  C
  C48      1.0000 0.08160  0.84430  0.43790  Biso   1.000  C
  H89      1.0000 0.44420  0.41670  0.42460  Biso   1.000  H
  H90      1.0000 0.05580  0.58330  0.92460  Biso   1.000  H
  H91      1.0000 0.55580  0.91670  0.07540  Biso   1.000  H
  H92      1.0000 0.94420  0.08330  0.57540  Biso   1.000  H
  H93      1.0000 0.55580  0.58330  0.57540  Biso   1.000  H
  H94      1.0000 0.94420  0.41670  0.07540  Biso   1.000  H
  H95      1.0000 0.44420  0.08330  0.92460  Biso   1.000  H
  H96      1.0000 0.05580  0.91670  0.42460  Biso   1.000  H
  H97      1.0000 0.47230  0.31180  0.46100  Biso   1.000  H
  H98      1.0000 0.02770  0.68820  0.96100  Biso   1.000  H
  H99      1.0000 0.52770  0.81180  0.03900  Biso   1.000  H
  H100     1.0000 0.97230  0.18820  0.53900  Biso   1.000  H
  H101     1.0000 0.52770  0.68820  0.53900  Biso   1.000  H
  H102     1.0000 0.97230  0.31180  0.03900  Biso   1.000  H
  H103     1.0000 0.47230  0.18820  0.96100  Biso   1.000  H
  H104     1.0000 0.02770  0.81180  0.46100  Biso   1.000  H
  C49      1.0000 0.31760  0.36470  0.47170  Biso   1.000  C
  C50      1.0000 0.18240  0.63530  0.97170  Biso   1.000  C
  C51      1.0000 0.68240  0.86470  0.02830  Biso   1.000  C
  C52      1.0000 0.81760  0.13530  0.52830  Biso   1.000  C
  C53      1.0000 0.68240  0.63530  0.52830  Biso   1.000  C
  C54      1.0000 0.81760  0.36470  0.02830  Biso   1.000  C
  C55      1.0000 0.31760  0.13530  0.97170  Biso   1.000  C
  C56      1.0000 0.18240  0.86470  0.47170  Biso   1.000  C
  H105     1.0000 0.26170  0.39060  0.44810  Biso   1.000  H
  H106     1.0000 0.23830  0.60940  0.94810  Biso   1.000  H
  H107     1.0000 0.73830  0.89060  0.05190  Biso   1.000  H
  H108     1.0000 0.76170  0.10940  0.55190  Biso   1.000  H
  H109     1.0000 0.73830  0.60940  0.55190  Biso   1.000  H
  H110     1.0000 0.76170  0.39060  0.05190  Biso   1.000  H
  H111     1.0000 0.26170  0.10940  0.94810  Biso   1.000  H
  H112     1.0000 0.23830  0.89060  0.44810  Biso   1.000  H
  H113     1.0000 0.29550  0.29350  0.48790  Biso   1.000  H
  H114     1.0000 0.20450  0.70650  0.98790  Biso   1.000  H
  H115     1.0000 0.70450  0.79350  0.01210  Biso   1.000  H
  H116     1.0000 0.79550  0.20650  0.51210  Biso   1.000  H
  H117     1.0000 0.70450  0.70650  0.51210  Biso   1.000  H
  H118     1.0000 0.79550  0.29350  0.01210  Biso   1.000  H
  H119     1.0000 0.29550  0.20650  0.98790  Biso   1.000  H
  H120     1.0000 0.20450  0.79350  0.48790  Biso   1.000  H
  C57      1.0000 0.33500  0.45090  0.51530  Biso   1.000  C
  C58      1.0000 0.16500  0.54910  0.01530  Biso   1.000  C
  C59      1.0000 0.66500  0.95090  0.98470  Biso   1.000  C
  C60      1.0000 0.83500  0.04910  0.48470  Biso   1.000  C
  C61      1.0000 0.66500  0.54910  0.48470  Biso   1.000  C
  C62      1.0000 0.83500  0.45090  0.98470  Biso   1.000  C
  C63      1.0000 0.33500  0.04910  0.01530  Biso   1.000  C
  C64      1.0000 0.16500  0.95090  0.51530  Biso   1.000  C
  H121     1.0000 0.89270  0.07250  0.46160  Biso   1.000  H
  H122     1.0000 0.60730  0.92750  0.96160  Biso   1.000  H
  H123     1.0000 0.10730  0.57250  0.03840  Biso   1.000  H
  H124     1.0000 0.39270  0.42750  0.53840  Biso   1.000  H
  H125     1.0000 0.10730  0.92750  0.53840  Biso   1.000  H
  H126     1.0000 0.39270  0.07250  0.03840  Biso   1.000  H
  H127     1.0000 0.89270  0.42750  0.96160  Biso   1.000  H
  H128     1.0000 0.60730  0.57250  0.46160  Biso   1.000  H
  H129     1.0000 0.85230  0.97600  0.50050  Biso   1.000  H
  H130     1.0000 0.64770  0.02400  0.00050  Biso   1.000  H
  H131     1.0000 0.14770  0.47600  0.99950  Biso   1.000  H
  H132     1.0000 0.35230  0.52400  0.49950  Biso   1.000  H
  H133     1.0000 0.14770  0.02400  0.49950  Biso   1.000  H
  H134     1.0000 0.35230  0.97600  0.99950  Biso   1.000  H
  H135     1.0000 0.85230  0.52400  0.00050  Biso   1.000  H
  H136     1.0000 0.64770  0.47600  0.50050  Biso   1.000  H
  C65      1.0000 0.77280  0.91150  0.40420  Biso   1.000  C
  C66      1.0000 0.72720  0.08850  0.90420  Biso   1.000  C
  C67      1.0000 0.22720  0.41150  0.09580  Biso   1.000  C
  C68      1.0000 0.27280  0.58850  0.59580  Biso   1.000  C
  C69      1.0000 0.22720  0.08850  0.59580  Biso   1.000  C
  C70      1.0000 0.27280  0.91150  0.09580  Biso   1.000  C
  C71      1.0000 0.77280  0.58850  0.90420  Biso   1.000  C
  C72      1.0000 0.72720  0.41150  0.40420  Biso   1.000  C
  H137     1.0000 0.76090  0.84170  0.42410  Biso   1.000  H
  H138     1.0000 0.73910  0.15830  0.92410  Biso   1.000  H
  H139     1.0000 0.23910  0.34170  0.07590  Biso   1.000  H
  H140     1.0000 0.26090  0.65830  0.57590  Biso   1.000  H
  H141     1.0000 0.23910  0.15830  0.57590  Biso   1.000  H
  H142     1.0000 0.26090  0.84170  0.07590  Biso   1.000  H
  H143     1.0000 0.76090  0.65830  0.92410  Biso   1.000  H
  H144     1.0000 0.73910  0.34170  0.42410  Biso   1.000  H
  H145     1.0000 0.84820  0.92090  0.40020  Biso   1.000  H
  H146     1.0000 0.65180  0.07910  0.90020  Biso   1.000  H
  H147     1.0000 0.15180  0.42090  0.09980  Biso   1.000  H
  H148     1.0000 0.34820  0.57910  0.59980  Biso   1.000  H
  H149     1.0000 0.15180  0.07910  0.59980  Biso   1.000  H
  H150     1.0000 0.34820  0.92090  0.09980  Biso   1.000  H
  H151     1.0000 0.84820  0.57910  0.90020  Biso   1.000  H
  H152     1.0000 0.65180  0.42090  0.40020  Biso   1.000  H
  C73      1.0000 0.73700  0.90260  0.36300  Biso   1.000  C
  C74      1.0000 0.76300  0.09740  0.86300  Biso   1.000  C
  C75      1.0000 0.26300  0.40260  0.13700  Biso   1.000  C
  C76      1.0000 0.23700  0.59740  0.63700  Biso   1.000  C
  C77      1.0000 0.26300  0.09740  0.63700  Biso   1.000  C
  C78      1.0000 0.23700  0.90260  0.13700  Biso   1.000  C
  C79      1.0000 0.73700  0.59740  0.86300  Biso   1.000  C
  C80      1.0000 0.76300  0.40260  0.36300  Biso   1.000  C
  H153     1.0000 0.66190  0.89010  0.36660  Biso   1.000  H
  H154     1.0000 0.83810  0.10990  0.86660  Biso   1.000  H
  H155     1.0000 0.33810  0.39010  0.13340  Biso   1.000  H
  H156     1.0000 0.16190  0.60990  0.63340  Biso   1.000  H
  H157     1.0000 0.33810  0.10990  0.63340  Biso   1.000  H
  H158     1.0000 0.16190  0.89010  0.13340  Biso   1.000  H
  H159     1.0000 0.66190  0.60990  0.86660  Biso   1.000  H
  H160     1.0000 0.83810  0.39010  0.36660  Biso   1.000  H
  H161     1.0000 0.74730  0.97260  0.34290  Biso   1.000  H
  H162     1.0000 0.75270  0.02740  0.84290  Biso   1.000  H
  H163     1.0000 0.25270  0.47260  0.15710  Biso   1.000  H
  H164     1.0000 0.24730  0.52740  0.65710  Biso   1.000  H
  H165     1.0000 0.25270  0.02740  0.65710  Biso   1.000  H
  H166     1.0000 0.24730  0.97260  0.15710  Biso   1.000  H
  H167     1.0000 0.74730  0.52740  0.84290  Biso   1.000  H
  H168     1.0000 0.75270  0.47260  0.34290  Biso   1.000  H
  C81      1.0000 0.79000  0.79560  0.32920  Biso   1.000  C
  C82      1.0000 0.71000  0.20440  0.82920  Biso   1.000  C
  C83      1.0000 0.21000  0.29560  0.17080  Biso   1.000  C
  C84      1.0000 0.29000  0.70440  0.67080  Biso   1.000  C
  C85      1.0000 0.21000  0.20440  0.67080  Biso   1.000  C
  C86      1.0000 0.29000  0.79560  0.17080  Biso   1.000  C
  C87      1.0000 0.79000  0.70440  0.82920  Biso   1.000  C
  C88      1.0000 0.71000  0.29560  0.32920  Biso   1.000  C
  H169     1.0000 0.79870  0.73130  0.35340  Biso   1.000  H
  H170     1.0000 0.70130  0.26870  0.85340  Biso   1.000  H
  H171     1.0000 0.20130  0.23130  0.14660  Biso   1.000  H
  H172     1.0000 0.29870  0.76870  0.64660  Biso   1.000  H
  H173     1.0000 0.20130  0.26870  0.64660  Biso   1.000  H
  H174     1.0000 0.29870  0.73130  0.14660  Biso   1.000  H
  H175     1.0000 0.79870  0.76870  0.85340  Biso   1.000  H
  H176     1.0000 0.70130  0.23130  0.35340  Biso   1.000  H
  H177     1.0000 0.85920  0.81780  0.31650  Biso   1.000  H
  H178     1.0000 0.64080  0.18220  0.81650  Biso   1.000  H
  H179     1.0000 0.14080  0.31780  0.18350  Biso   1.000  H
  H180     1.0000 0.35920  0.68220  0.68350  Biso   1.000  H
  H181     1.0000 0.14080  0.18220  0.68350  Biso   1.000  H
  H182     1.0000 0.35920  0.81780  0.18350  Biso   1.000  H
  H183     1.0000 0.85920  0.68220  0.81650  Biso   1.000  H
  H184     1.0000 0.64080  0.31780  0.31650  Biso   1.000  H
  C89      1.0000 0.72950  0.76310  0.28580  Biso   1.000  C
  C90      1.0000 0.77050  0.23690  0.78580  Biso   1.000  C
  C91      1.0000 0.27050  0.26310  0.21420  Biso   1.000  C
  C92      1.0000 0.22950  0.73690  0.71420  Biso   1.000  C
  C93      1.0000 0.27050  0.23690  0.71420  Biso   1.000  C
  C94      1.0000 0.22950  0.76310  0.21420  Biso   1.000  C
  C95      1.0000 0.72950  0.73690  0.78580  Biso   1.000  C
  C96      1.0000 0.77050  0.26310  0.28580  Biso   1.000  C
  H185     1.0000 0.76260  0.70050  0.26770  Biso   1.000  H
  H186     1.0000 0.73740  0.29950  0.76770  Biso   1.000  H
  H187     1.0000 0.23740  0.20050  0.23230  Biso   1.000  H
  H188     1.0000 0.26260  0.79950  0.73230  Biso   1.000  H
  H189     1.0000 0.23740  0.29950  0.73230  Biso   1.000  H
  H190     1.0000 0.26260  0.70050  0.23230  Biso   1.000  H
  H191     1.0000 0.76260  0.79950  0.76770  Biso   1.000  H
  H192     1.0000 0.73740  0.20050  0.26770  Biso   1.000  H
  H193     1.0000 0.66120  0.74040  0.29830  Biso   1.000  H
  H194     1.0000 0.83880  0.25960  0.79830  Biso   1.000  H
  H195     1.0000 0.33880  0.24040  0.20170  Biso   1.000  H
  H196     1.0000 0.16120  0.75960  0.70170  Biso   1.000  H
  H197     1.0000 0.33880  0.25960  0.70170  Biso   1.000  H
  H198     1.0000 0.16120  0.74040  0.20170  Biso   1.000  H
  H199     1.0000 0.66120  0.75960  0.79830  Biso   1.000  H
  H200     1.0000 0.83880  0.24040  0.29830  Biso   1.000  H
  H201     1.0000 0.72260  0.82580  0.26120  Biso   1.000  H
  H202     1.0000 0.77740  0.17420  0.76120  Biso   1.000  H
  H203     1.0000 0.27740  0.32580  0.23880  Biso   1.000  H
  H204     1.0000 0.22260  0.67420  0.73880  Biso   1.000  H
  H205     1.0000 0.27740  0.17420  0.73880  Biso   1.000  H
  H206     1.0000 0.22260  0.82580  0.23880  Biso   1.000  H
  H207     1.0000 0.72260  0.67420  0.76120  Biso   1.000  H
  H208     1.0000 0.77740  0.32580  0.26120  Biso   1.000  H
