data_image0
_cell_length_a       5
_cell_length_b       6
_cell_length_c       12
_cell_angle_alpha    103
_cell_angle_beta     94
_cell_angle_gamma    93

_symmetry_space_group_name_H-M    "P 1"
_symmetry_int_tables_number       1

loop_
  _symmetry_equiv_pos_as_xyz
  'x, y, z'

loop_
  _atom_site_label
  _atom_site_occupancy
  _atom_site_fract_x
  _atom_site_fract_y
  _atom_site_fract_z
  _atom_site_thermal_displace_type
  _atom_site_B_iso_or_equiv
  _atom_site_type_symbol
  O1       1.0000 0.35170  0.30810  0.91900  Biso   1.000  O
  C1       1.0000 0.15040  0.26120  0.95350  Biso   1.000  C
  O2       1.0000 0.09900  0.15090  0.24330  Biso   1.000  O
  C2       1.0000 0.31570  0.20790  0.20990  Biso   1.000  C
  O3       1.0000 0.43290  0.07580  0.13150  Biso   1.000  O
  F1       1.0000 0.47660  0.16380  0.48590  Biso   1.000  F
  F2       1.0000 0.17710  0.93060  0.51030  Biso   1.000  F
  F3       1.0000 0.56660  0.93570  0.58560  Biso   1.000  F
  Cu1      1.0000 0.73052  0.23024  0.08174  Biso   1.000  Cu
  O4       1.0000 0.02320  0.37620  0.03050  Biso   1.000  O
  N1       1.0000 0.81620  0.97540  0.96170  Biso   1.000  N
  N2       1.0000 0.64520  0.48730  0.20060  Biso   1.000  N
  C3       1.0000 0.69490  0.77120  0.93130  Biso   1.000  C
  H1       1.0000 0.56110  0.73600  0.97400  Biso   1.000  H
  F4       1.0000 0.89510  0.52420  0.57640  Biso   1.000  F
  C4       1.0000 0.36250  0.57940  0.35190  Biso   1.000  C
  H2       1.0000 0.22310  0.54080  0.39070  Biso   1.000  H
  F5       1.0000 0.28790  0.54050  0.65080  Biso   1.000  F
  F6       1.0000 0.00970  0.30320  0.68380  Biso   1.000  F
  C5       1.0000 0.09540  0.88020  0.80990  Biso   1.000  C
  H3       1.0000 0.23160  0.92060  0.76990  Biso   1.000  H
  C6       1.0000 0.76900  0.68800  0.23390  Biso   1.000  C
  H4       1.0000 0.90720  0.72520  0.19400  Biso   1.000  H
  C7       1.0000 0.76160  0.61250  0.83950  Biso   1.000  C
  H5       1.0000 0.67470  0.47230  0.82020  Biso   1.000  H
  C8       1.0000 0.69390  0.84260  0.32760  Biso   1.000  C
  H6       1.0000 0.77860  0.98360  0.34990  Biso   1.000  H
  C9       1.0000 0.01710  0.03420  0.90740  Biso   1.000  C
  C10      1.0000 0.96740  0.66750  0.77420  Biso   1.000  C
  C11      1.0000 0.44240  0.44110  0.26210  Biso   1.000  C
  C12      1.0000 0.41930  0.95080  0.49230  Biso   1.000  C
  C13      1.0000 0.49770  0.78500  0.38520  Biso   1.000  C
  C14      1.0000 0.03330  0.50320  0.67220  Biso   1.000  C
