data_image0
_cell_length_a       10.4232
_cell_length_b       10.9518
_cell_length_c       17.478
_cell_angle_alpha    72.098
_cell_angle_beta     87.542
_cell_angle_gamma    87.012

_symmetry_space_group_name_H-M    "P 1"
_symmetry_int_tables_number       1

loop_
  _symmetry_equiv_pos_as_xyz
  'x, y, z'

loop_
  _atom_site_label
  _atom_site_occupancy
  _atom_site_fract_x
  _atom_site_fract_y
  _atom_site_fract_z
  _atom_site_thermal_displace_type
  _atom_site_B_iso_or_equiv
  _atom_site_type_symbol
  Cu1      1.0000 0.88660  0.54985  0.01308  Biso   1.000  Cu
  Cu2      1.0000 0.11340  0.45015  0.98692  Biso   1.000  Cu
  Cu3      1.0000 0.46879  0.99850  0.42857  Biso   1.000  Cu
  Cu4      1.0000 0.53121  0.00150  0.57143  Biso   1.000  Cu
  S1       1.0000 0.28509  0.73753  0.09689  Biso   1.000  S
  S2       1.0000 0.71491  0.26247  0.90311  Biso   1.000  S
  S3       1.0000 0.28060  0.92765  0.08291  Biso   1.000  S
  S4       1.0000 0.71940  0.07235  0.91709  Biso   1.000  S
  O1       1.0000 0.84693  0.36768  0.05670  Biso   1.000  O
  O2       1.0000 0.15307  0.63232  0.94330  Biso   1.000  O
  O3       1.0000 0.03900  0.28182  0.03493  Biso   1.000  O
  O4       1.0000 0.96100  0.71818  0.96507  Biso   1.000  O
  O5       1.0000 0.84873  0.54780  0.90347  Biso   1.000  O
  O6       1.0000 0.15127  0.45220  0.09653  Biso   1.000  O
  O7       1.0000 0.04011  0.45880  0.88366  Biso   1.000  O
  O8       1.0000 0.95989  0.54120  0.11634  Biso   1.000  O
  O9       1.0000 0.30320  0.06340  0.45978  Biso   1.000  O
  O10      1.0000 0.69680  0.93660  0.54022  Biso   1.000  O
  O11      1.0000 0.35390  0.06180  0.58328  Biso   1.000  O
  O12      1.0000 0.64610  0.93820  0.41672  Biso   1.000  O
  O13      1.0000 0.52560  0.17670  0.38695  Biso   1.000  O
  O14      1.0000 0.47440  0.82330  0.61305  Biso   1.000  O
  O15      1.0000 0.57390  0.18008  0.50938  Biso   1.000  O
  O16      1.0000 0.42610  0.81992  0.49062  Biso   1.000  O
  N1       1.0000 0.69380  0.61350  0.04247  Biso   1.000  N
  N2       1.0000 0.30620  0.38650  0.95753  Biso   1.000  N
  N3       1.0000 0.40270  0.97600  0.31807  Biso   1.000  N
  N4       1.0000 0.59730  0.02400  0.68193  Biso   1.000  N
  C1       1.0000 0.66310  0.73520  0.03373  Biso   1.000  C
  C2       1.0000 0.33690  0.26480  0.96627  Biso   1.000  C
  H1       1.0000 0.72710  0.79410  0.01550  Biso   1.000  H
  H2       1.0000 0.27290  0.20590  0.98450  Biso   1.000  H
  C3       1.0000 0.54300  0.78110  0.04900  Biso   1.000  C
  C4       1.0000 0.45700  0.21890  0.95100  Biso   1.000  C
  H3       1.0000 0.52790  0.86790  0.04290  Biso   1.000  H
  H4       1.0000 0.47210  0.13210  0.95710  Biso   1.000  H
  C5       1.0000 0.44590  0.69720  0.07441  Biso   1.000  C
  C6       1.0000 0.55410  0.30280  0.92559  Biso   1.000  C
  C7       1.0000 0.47640  0.56950  0.08550  Biso   1.000  C
  C8       1.0000 0.52360  0.43050  0.91450  Biso   1.000  C
  H5       1.0000 0.41390  0.50880  0.10370  Biso   1.000  H
  H6       1.0000 0.58610  0.49120  0.89630  Biso   1.000  H
  C9       1.0000 0.59900  0.53210  0.06890  Biso   1.000  C
  C10      1.0000 0.40100  0.46790  0.93110  Biso   1.000  C
  H7       1.0000 0.61780  0.44510  0.07730  Biso   1.000  H
  H8       1.0000 0.38220  0.55490  0.92270  Biso   1.000  H
  C11      1.0000 0.32590  0.93900  0.17697  Biso   1.000  C
  C12      1.0000 0.67410  0.06100  0.82303  Biso   1.000  C
  C13      1.0000 0.38510  0.84110  0.23566  Biso   1.000  C
  C14      1.0000 0.61490  0.15890  0.76434  Biso   1.000  C
  H9       1.0000 0.40150  0.76090  0.22860  Biso   1.000  H
  H10      1.0000 0.59850  0.23910  0.77140  Biso   1.000  H
  C15      1.0000 0.42090  0.86400  0.30433  Biso   1.000  C
  C16      1.0000 0.57910  0.13600  0.69567  Biso   1.000  C
  H11      1.0000 0.46060  0.79710  0.34360  Biso   1.000  H
  H12      1.0000 0.53940  0.20290  0.65640  Biso   1.000  H
  C17      1.0000 0.34340  0.06880  0.26211  Biso   1.000  C
  C18      1.0000 0.65660  0.93120  0.73789  Biso   1.000  C
  H13      1.0000 0.32800  0.14660  0.27120  Biso   1.000  H
  H14      1.0000 0.67200  0.85340  0.72880  Biso   1.000  H
  C19      1.0000 0.30210  0.05470  0.19130  Biso   1.000  C
  C20      1.0000 0.69790  0.94530  0.80870  Biso   1.000  C
  H15      1.0000 0.25910  0.12210  0.15440  Biso   1.000  H
  H16      1.0000 0.74090  0.87790  0.84560  Biso   1.000  H
  C21      1.0000 0.92400  0.27350  0.06015  Biso   1.000  C
  C22      1.0000 0.07600  0.72650  0.93985  Biso   1.000  C
  C23      1.0000 0.75470  0.12520  0.13440  Biso   1.000  C
  C24      1.0000 0.24530  0.87480  0.86560  Biso   1.000  C
  H17      1.0000 0.70490  0.19670  0.13720  Biso   1.000  H
  H18      1.0000 0.29510  0.80330  0.86280  Biso   1.000  H
  C25      1.0000 0.70740  0.00410  0.16530  Biso   1.000  C
  C26      1.0000 0.29260  0.99590  0.83470  Biso   1.000  C
  H19      1.0000 0.62980  0.99460  0.19320  Biso   1.000  H
  H20      1.0000 0.37020  0.00540  0.80680  Biso   1.000  H
  C27      1.0000 0.77830  0.90000  0.15980  Biso   1.000  C
  C28      1.0000 0.22170  0.10000  0.84020  Biso   1.000  C
  H21      1.0000 0.74700  0.81820  0.18190  Biso   1.000  H
  H22      1.0000 0.25300  0.18180  0.81810  Biso   1.000  H
  C29      1.0000 0.89570  0.91570  0.12170  Biso   1.000  C
  C30      1.0000 0.10430  0.08430  0.87830  Biso   1.000  C
  H23      1.0000 0.94390  0.84490  0.11640  Biso   1.000  H
  H24      1.0000 0.05610  0.15510  0.88360  Biso   1.000  H
  C31      1.0000 0.94300  0.03570  0.09140  Biso   1.000  C
  C32      1.0000 0.05700  0.96430  0.90860  Biso   1.000  C
  H25      1.0000 0.02450  0.04520  0.06730  Biso   1.000  H
  H26      1.0000 0.97550  0.95480  0.93270  Biso   1.000  H
  C33      1.0000 0.87350  0.14300  0.09649  Biso   1.000  C
  C34      1.0000 0.12650  0.85700  0.90351  Biso   1.000  C
  C35      1.0000 0.93100  0.50750  0.86126  Biso   1.000  C
  C36      1.0000 0.06900  0.49250  0.13874  Biso   1.000  C
  C37      1.0000 0.89520  0.51400  0.77838  Biso   1.000  C
  C38      1.0000 0.10480  0.48600  0.22162  Biso   1.000  C
  C39      1.0000 0.78250  0.57520  0.74550  Biso   1.000  C
  C40      1.0000 0.21750  0.42480  0.25450  Biso   1.000  C
  H27      1.0000 0.72790  0.61620  0.77400  Biso   1.000  H
  H28      1.0000 0.27210  0.38380  0.22600  Biso   1.000  H
  C41      1.0000 0.74890  0.57410  0.66950  Biso   1.000  C
  C42      1.0000 0.25110  0.42590  0.33050  Biso   1.000  C
  H29      1.0000 0.67730  0.64230  0.64440  Biso   1.000  H
  H30      1.0000 0.32270  0.35770  0.35560  Biso   1.000  H
  C43      1.0000 0.83020  0.52080  0.62620  Biso   1.000  C
  C44      1.0000 0.16980  0.47920  0.37380  Biso   1.000  C
  H31      1.0000 0.80800  0.52760  0.57480  Biso   1.000  H
  H32      1.0000 0.19200  0.47240  0.42520  Biso   1.000  H
  C45      1.0000 0.94430  0.46140  0.65680  Biso   1.000  C
  C46      1.0000 0.05570  0.53860  0.34320  Biso   1.000  C
  H33      1.0000 0.99800  0.42230  0.62740  Biso   1.000  H
  H34      1.0000 0.00200  0.57770  0.37260  Biso   1.000  H
  C47      1.0000 0.97400  0.45730  0.73300  Biso   1.000  C
  C48      1.0000 0.02600  0.54270  0.26700  Biso   1.000  C
  H35      1.0000 0.05050  0.41720  0.75430  Biso   1.000  H
  H36      1.0000 0.94950  0.58280  0.24570  Biso   1.000  H
  C49      1.0000 0.27620  0.07780  0.52740  Biso   1.000  C
  C50      1.0000 0.72380  0.92220  0.47260  Biso   1.000  C
  C51      1.0000 0.14110  0.11700  0.54310  Biso   1.000  C
  C52      1.0000 0.85890  0.88300  0.45690  Biso   1.000  C
  C53      1.0000 0.05620  0.16010  0.48050  Biso   1.000  C
  C54      1.0000 0.94380  0.83990  0.51950  Biso   1.000  C
  H37      1.0000 0.08400  0.16570  0.42830  Biso   1.000  H
  H38      1.0000 0.91600  0.83430  0.57170  Biso   1.000  H
  C55      1.0000 0.93010  0.19340  0.49520  Biso   1.000  C
  C56      1.0000 0.06990  0.80660  0.50480  Biso   1.000  C
  H39      1.0000 0.87330  0.22090  0.45350  Biso   1.000  H
  H40      1.0000 0.12670  0.77910  0.54650  Biso   1.000  H
  C57      1.0000 0.88840  0.18360  0.57020  Biso   1.000  C
  C58      1.0000 0.11160  0.81640  0.42980  Biso   1.000  C
  H41      1.0000 0.80360  0.20770  0.57910  Biso   1.000  H
  H42      1.0000 0.19640  0.79230  0.42090  Biso   1.000  H
  C59      1.0000 0.96930  0.14110  0.63380  Biso   1.000  C
  C60      1.0000 0.03070  0.85890  0.36620  Biso   1.000  C
  H43      1.0000 0.93920  0.13420  0.68570  Biso   1.000  H
  H44      1.0000 0.06080  0.86580  0.31430  Biso   1.000  H
  C61      1.0000 0.09760  0.10740  0.62010  Biso   1.000  C
  C62      1.0000 0.90240  0.89260  0.37990  Biso   1.000  C
  H45      1.0000 0.15360  0.07770  0.66240  Biso   1.000  H
  H46      1.0000 0.84640  0.92230  0.33760  Biso   1.000  H
  C63      1.0000 0.56570  0.23050  0.43480  Biso   1.000  C
  C64      1.0000 0.43430  0.76950  0.56520  Biso   1.000  C
  C65      1.0000 0.60670  0.36650  0.39991  Biso   1.000  C
  C66      1.0000 0.39330  0.63350  0.60009  Biso   1.000  C
  C67      1.0000 0.62380  0.42080  0.31800  Biso   1.000  C
  C68      1.0000 0.37620  0.57920  0.68200  Biso   1.000  C
  H47      1.0000 0.60850  0.37270  0.28400  Biso   1.000  H
  H48      1.0000 0.39150  0.62730  0.71600  Biso   1.000  H
  C69      1.0000 0.66180  0.54670  0.28690  Biso   1.000  C
  C70      1.0000 0.33820  0.45330  0.71310  Biso   1.000  C
  H49      1.0000 0.67500  0.58080  0.23170  Biso   1.000  H
  H50      1.0000 0.32500  0.41920  0.76830  Biso   1.000  H
  C71      1.0000 0.68230  0.61700  0.33700  Biso   1.000  C
  C72      1.0000 0.31770  0.38300  0.66300  Biso   1.000  C
  H51      1.0000 0.70570  0.70110  0.31580  Biso   1.000  H
  H52      1.0000 0.29430  0.29890  0.68420  Biso   1.000  H
  C73      1.0000 0.66480  0.56470  0.41800  Biso   1.000  C
  C74      1.0000 0.33520  0.43530  0.58200  Biso   1.000  C
  H53      1.0000 0.67760  0.61340  0.45150  Biso   1.000  H
  H54      1.0000 0.32240  0.38660  0.54850  Biso   1.000  H
  C75      1.0000 0.62890  0.43890  0.44890  Biso   1.000  C
  C76      1.0000 0.37110  0.56110  0.55110  Biso   1.000  C
  H55      1.0000 0.61860  0.40360  0.50420  Biso   1.000  H
  H56      1.0000 0.38140  0.59640  0.49580  Biso   1.000  H
