data_image0
_cell_length_a       12.54
_cell_length_b       18.647
_cell_length_c       18.254
_cell_angle_alpha    90
_cell_angle_beta     104.523
_cell_angle_gamma    90

_symmetry_space_group_name_H-M    "P 1"
_symmetry_int_tables_number       1

loop_
  _symmetry_equiv_pos_as_xyz
  'x, y, z'

loop_
  _atom_site_label
  _atom_site_occupancy
  _atom_site_fract_x
  _atom_site_fract_y
  _atom_site_fract_z
  _atom_site_thermal_displace_type
  _atom_site_B_iso_or_equiv
  _atom_site_type_symbol
  Cu1      1.0000 0.56907  0.83434  0.55643  Biso   1.000  Cu
  Cu2      1.0000 0.93093  0.33434  0.94357  Biso   1.000  Cu
  Cu3      1.0000 0.43093  0.16566  0.44357  Biso   1.000  Cu
  Cu4      1.0000 0.06907  0.66566  0.05643  Biso   1.000  Cu
  Cu5      1.0000 0.69028  0.73514  0.46590  Biso   1.000  Cu
  Cu6      1.0000 0.80972  0.23514  0.03410  Biso   1.000  Cu
  Cu7      1.0000 0.30972  0.26486  0.53410  Biso   1.000  Cu
  Cu8      1.0000 0.19028  0.76486  0.96590  Biso   1.000  Cu
  Cu9      1.0000 0.45389  0.69358  0.51176  Biso   1.000  Cu
  Cu10     1.0000 0.04611  0.19358  0.98824  Biso   1.000  Cu
  Cu11     1.0000 0.54611  0.30642  0.48824  Biso   1.000  Cu
  Cu12     1.0000 0.95389  0.80642  0.01176  Biso   1.000  Cu
  Cu13     1.0000 0.34533  0.79089  0.61086  Biso   1.000  Cu
  Cu14     1.0000 0.15467  0.29089  0.88914  Biso   1.000  Cu
  Cu15     1.0000 0.65467  0.20911  0.38914  Biso   1.000  Cu
  Cu16     1.0000 0.84533  0.70911  0.11086  Biso   1.000  Cu
  S1       1.0000 0.41555  0.48815  0.21868  Biso   1.000  S
  S2       1.0000 0.08445  0.98815  0.28132  Biso   1.000  S
  S3       1.0000 0.58445  0.51185  0.78132  Biso   1.000  S
  S4       1.0000 0.91555  0.01185  0.71868  Biso   1.000  S
  S5       1.0000 0.38569  0.55076  0.12486  Biso   1.000  S
  S6       1.0000 0.11431  0.05076  0.37514  Biso   1.000  S
  S7       1.0000 0.61431  0.44924  0.87514  Biso   1.000  S
  S8       1.0000 0.88569  0.94924  0.62486  Biso   1.000  S
  S9       1.0000 0.57922  0.02171  0.85891  Biso   1.000  S
  S10      1.0000 0.92078  0.52171  0.64109  Biso   1.000  S
  S11      1.0000 0.42078  0.97829  0.14109  Biso   1.000  S
  S12      1.0000 0.07922  0.47829  0.35891  Biso   1.000  S
  S13      1.0000 0.62456  0.95465  0.94846  Biso   1.000  S
  S14      1.0000 0.87544  0.45465  0.55154  Biso   1.000  S
  S15      1.0000 0.37544  0.04535  0.05154  Biso   1.000  S
  S16      1.0000 0.12456  0.54535  0.44846  Biso   1.000  S
  O1       1.0000 0.54186  0.76672  0.47259  Biso   1.000  O
  O2       1.0000 0.95814  0.26672  0.02741  Biso   1.000  O
  O3       1.0000 0.45814  0.23328  0.52741  Biso   1.000  O
  O4       1.0000 0.04186  0.73328  0.97259  Biso   1.000  O
  O5       1.0000 0.62478  0.90902  0.50274  Biso   1.000  O
  O6       1.0000 0.87522  0.40902  0.99726  Biso   1.000  O
  O7       1.0000 0.37522  0.09098  0.49726  Biso   1.000  O
  O8       1.0000 0.12478  0.59098  0.00274  Biso   1.000  O
  O9       1.0000 0.39791  0.61876  0.56618  Biso   1.000  O
  O10      1.0000 0.10209  0.11876  0.93382  Biso   1.000  O
  O11      1.0000 0.60209  0.38124  0.43382  Biso   1.000  O
  O12      1.0000 0.89791  0.88124  0.06618  Biso   1.000  O
  N1       1.0000 0.42283  0.63398  0.41851  Biso   1.000  N
  N2       1.0000 0.07717  0.13398  0.08149  Biso   1.000  N
  N3       1.0000 0.57717  0.36602  0.58149  Biso   1.000  N
  N4       1.0000 0.92283  0.86602  0.91851  Biso   1.000  N
  C1       1.0000 0.51440  0.58997  0.12564  Biso   1.000  C
  C2       1.0000 0.98560  0.08997  0.37436  Biso   1.000  C
  C3       1.0000 0.48560  0.41003  0.87436  Biso   1.000  C
  C4       1.0000 0.01440  0.91003  0.62564  Biso   1.000  C
  N5       1.0000 0.32290  0.82414  0.95886  Biso   1.000  N
  N6       1.0000 0.17710  0.32414  0.54114  Biso   1.000  N
  N7       1.0000 0.67710  0.17586  0.04114  Biso   1.000  N
  N8       1.0000 0.82290  0.67586  0.45886  Biso   1.000  N
  O13      1.0000 0.26836  0.68146  0.60156  Biso   1.000  O
  O14      1.0000 0.23164  0.18146  0.89844  Biso   1.000  O
  O15      1.0000 0.73164  0.31854  0.39844  Biso   1.000  O
  O16      1.0000 0.76836  0.81854  0.10156  Biso   1.000  O
  O17      1.0000 0.75684  0.84624  0.47069  Biso   1.000  O
  O18      1.0000 0.74316  0.34624  0.02931  Biso   1.000  O
  O19      1.0000 0.24316  0.15376  0.52931  Biso   1.000  O
  O20      1.0000 0.25684  0.65376  0.97069  Biso   1.000  O
  C5       1.0000 0.58990  0.96968  0.77975  Biso   1.000  C
  C6       1.0000 0.91010  0.46968  0.72025  Biso   1.000  C
  C7       1.0000 0.41010  0.03032  0.22025  Biso   1.000  C
  C8       1.0000 0.08990  0.53032  0.27975  Biso   1.000  C
  C9       1.0000 0.41340  0.54825  0.29330  Biso   1.000  C
  C10      1.0000 0.08660  0.04825  0.20670  Biso   1.000  C
  C11      1.0000 0.58660  0.45175  0.70670  Biso   1.000  C
  C12      1.0000 0.91340  0.95175  0.79330  Biso   1.000  C
  C13      1.0000 0.40810  0.66198  0.34970  Biso   1.000  C
  C14      1.0000 0.09190  0.16198  0.15030  Biso   1.000  C
  C15      1.0000 0.59190  0.33802  0.65030  Biso   1.000  C
  C16      1.0000 0.90810  0.83802  0.84970  Biso   1.000  C
  H1       1.0000 0.40060  0.71150  0.34450  Biso   1.000  H
  H2       1.0000 0.09940  0.21150  0.15550  Biso   1.000  H
  H3       1.0000 0.59940  0.28850  0.65550  Biso   1.000  H
  H4       1.0000 0.90060  0.78850  0.84450  Biso   1.000  H
  C17      1.0000 0.40330  0.62200  0.28595  Biso   1.000  C
  C18      1.0000 0.09670  0.12200  0.21405  Biso   1.000  C
  C19      1.0000 0.59670  0.37800  0.71405  Biso   1.000  C
  C20      1.0000 0.90330  0.87800  0.78595  Biso   1.000  C
  H5       1.0000 0.39350  0.64390  0.23890  Biso   1.000  H
  H6       1.0000 0.10650  0.14390  0.26110  Biso   1.000  H
  H7       1.0000 0.60650  0.35610  0.76110  Biso   1.000  H
  H8       1.0000 0.89350  0.85610  0.73890  Biso   1.000  H
  C21      1.0000 0.40560  0.90992  0.89428  Biso   1.000  C
  C22      1.0000 0.09440  0.40992  0.60572  Biso   1.000  C
  C23      1.0000 0.59440  0.09008  0.10572  Biso   1.000  C
  C24      1.0000 0.90560  0.59008  0.39428  Biso   1.000  C
  H9       1.0000 0.39870  0.94090  0.85350  Biso   1.000  H
  H10      1.0000 0.10130  0.44090  0.64650  Biso   1.000  H
  H11      1.0000 0.60130  0.05910  0.14650  Biso   1.000  H
  H12      1.0000 0.89870  0.55910  0.35350  Biso   1.000  H
  C25      1.0000 0.50390  0.90505  0.94879  Biso   1.000  C
  C26      1.0000 0.99610  0.40505  0.55121  Biso   1.000  C
  C27      1.0000 0.49610  0.09495  0.05121  Biso   1.000  C
  C28      1.0000 0.00390  0.59495  0.44879  Biso   1.000  C
  C29      1.0000 0.32250  0.62666  0.60059  Biso   1.000  C
  C30      1.0000 0.17750  0.12666  0.89941  Biso   1.000  C
  C31      1.0000 0.67750  0.37334  0.39941  Biso   1.000  C
  C32      1.0000 0.82250  0.87334  0.10059  Biso   1.000  C
  C33      1.0000 0.51670  0.63316  0.06421  Biso   1.000  C
  C34      1.0000 0.98330  0.13316  0.43579  Biso   1.000  C
  C35      1.0000 0.48330  0.36684  0.93579  Biso   1.000  C
  C36      1.0000 0.01670  0.86684  0.56421  Biso   1.000  C
  H13      1.0000 0.45400  0.63970  0.02490  Biso   1.000  H
  H14      1.0000 0.04600  0.13970  0.47510  Biso   1.000  H
  H15      1.0000 0.54600  0.36030  0.97510  Biso   1.000  H
  H16      1.0000 0.95400  0.86030  0.52490  Biso   1.000  H
  C37      1.0000 0.55940  0.00277  0.70951  Biso   1.000  C
  C38      1.0000 0.94060  0.50277  0.79049  Biso   1.000  C
  C39      1.0000 0.44060  0.99723  0.29049  Biso   1.000  C
  C40      1.0000 0.05940  0.49723  0.20951  Biso   1.000  C
  H17      1.0000 0.53730  0.05050  0.70530  Biso   1.000  H
  H18      1.0000 0.96270  0.55050  0.79470  Biso   1.000  H
  H19      1.0000 0.46270  0.94950  0.29470  Biso   1.000  H
  H20      1.0000 0.03730  0.44950  0.20530  Biso   1.000  H
  C41      1.0000 0.62400  0.89902  0.78373  Biso   1.000  C
  C42      1.0000 0.87600  0.39902  0.71627  Biso   1.000  C
  C43      1.0000 0.37600  0.10098  0.21627  Biso   1.000  C
  C44      1.0000 0.12400  0.60098  0.28373  Biso   1.000  C
  H21      1.0000 0.64640  0.87580  0.83020  Biso   1.000  H
  H22      1.0000 0.85360  0.37580  0.66980  Biso   1.000  H
  H23      1.0000 0.35360  0.12420  0.16980  Biso   1.000  H
  H24      1.0000 0.14640  0.62420  0.33020  Biso   1.000  H
  C45      1.0000 0.60950  0.58245  0.18300  Biso   1.000  C
  C46      1.0000 0.89050  0.08245  0.31700  Biso   1.000  C
  C47      1.0000 0.39050  0.41755  0.81700  Biso   1.000  C
  C48      1.0000 0.10950  0.91755  0.68300  Biso   1.000  C
  H25      1.0000 0.61020  0.55380  0.22480  Biso   1.000  H
  H26      1.0000 0.88980  0.05380  0.27520  Biso   1.000  H
  H27      1.0000 0.38980  0.44620  0.77520  Biso   1.000  H
  H28      1.0000 0.11020  0.94620  0.72480  Biso   1.000  H
  C49      1.0000 0.31830  0.86854  0.90096  Biso   1.000  C
  C50      1.0000 0.18170  0.36854  0.59904  Biso   1.000  C
  C51      1.0000 0.68170  0.13146  0.09904  Biso   1.000  C
  C52      1.0000 0.81830  0.63146  0.40096  Biso   1.000  C
  H29      1.0000 0.25290  0.87160  0.86340  Biso   1.000  H
  H30      1.0000 0.24710  0.37160  0.63660  Biso   1.000  H
  H31      1.0000 0.74710  0.12840  0.13660  Biso   1.000  H
  H32      1.0000 0.75290  0.62840  0.36340  Biso   1.000  H
  C53      1.0000 0.41830  0.81961  0.01146  Biso   1.000  C
  C54      1.0000 0.08170  0.31961  0.48854  Biso   1.000  C
  C55      1.0000 0.58170  0.18039  0.98854  Biso   1.000  C
  C56      1.0000 0.91830  0.68039  0.51146  Biso   1.000  C
  H33      1.0000 0.42220  0.78880  0.05220  Biso   1.000  H
  H34      1.0000 0.07780  0.28880  0.44780  Biso   1.000  H
  H35      1.0000 0.57780  0.21120  0.94780  Biso   1.000  H
  H36      1.0000 0.92220  0.71120  0.55220  Biso   1.000  H
  C57      1.0000 0.42770  0.56204  0.42418  Biso   1.000  C
  C58      1.0000 0.07230  0.06204  0.07582  Biso   1.000  C
  C59      1.0000 0.57230  0.43796  0.57582  Biso   1.000  C
  C60      1.0000 0.92770  0.93796  0.92418  Biso   1.000  C
  H37      1.0000 0.43370  0.54140  0.47140  Biso   1.000  H
  H38      1.0000 0.06630  0.04140  0.02860  Biso   1.000  H
  H39      1.0000 0.56630  0.45860  0.52860  Biso   1.000  H
  H40      1.0000 0.93370  0.95860  0.97140  Biso   1.000  H
  C61      1.0000 0.42420  0.51793  0.36390  Biso   1.000  C
  C62      1.0000 0.07580  0.01793  0.13610  Biso   1.000  C
  C63      1.0000 0.57580  0.48207  0.63610  Biso   1.000  C
  C64      1.0000 0.92420  0.98207  0.86390  Biso   1.000  C
  H41      1.0000 0.42910  0.46840  0.37020  Biso   1.000  H
  H42      1.0000 0.07090  0.96840  0.12980  Biso   1.000  H
  H43      1.0000 0.57090  0.53160  0.62980  Biso   1.000  H
  H44      1.0000 0.92910  0.03160  0.87020  Biso   1.000  H
  C65      1.0000 0.29980  0.56215  0.64301  Biso   1.000  C
  C66      1.0000 0.20020  0.06215  0.85699  Biso   1.000  C
  C67      1.0000 0.70020  0.43785  0.35699  Biso   1.000  C
  C68      1.0000 0.79980  0.93785  0.14301  Biso   1.000  C
  H45      1.0000 0.22240  0.55960  0.64030  Biso   1.000  H
  H46      1.0000 0.27760  0.05960  0.85970  Biso   1.000  H
  H47      1.0000 0.77760  0.44040  0.35970  Biso   1.000  H
  H48      1.0000 0.72240  0.94040  0.14030  Biso   1.000  H
  H49      1.0000 0.34040  0.56570  0.69500  Biso   1.000  H
  H50      1.0000 0.15960  0.06570  0.80500  Biso   1.000  H
  H51      1.0000 0.65960  0.43430  0.30500  Biso   1.000  H
  H52      1.0000 0.84040  0.93430  0.19500  Biso   1.000  H
  H53      1.0000 0.32200  0.51970  0.62100  Biso   1.000  H
  H54      1.0000 0.17800  0.01970  0.87900  Biso   1.000  H
  H55      1.0000 0.67800  0.48030  0.37900  Biso   1.000  H
  H56      1.0000 0.82200  0.98030  0.12100  Biso   1.000  H
  C69      1.0000 0.51070  0.85782  0.00880  Biso   1.000  C
  C70      1.0000 0.98930  0.35782  0.49120  Biso   1.000  C
  C71      1.0000 0.48930  0.14218  0.99120  Biso   1.000  C
  C72      1.0000 0.01070  0.64218  0.50880  Biso   1.000  C
  H57      1.0000 0.57610  0.85230  0.04600  Biso   1.000  H
  H58      1.0000 0.92390  0.35230  0.45400  Biso   1.000  H
  H59      1.0000 0.42390  0.14770  0.95400  Biso   1.000  H
  H60      1.0000 0.07610  0.64770  0.54600  Biso   1.000  H
  C73      1.0000 0.72810  0.96536  0.42775  Biso   1.000  C
  C74      1.0000 0.77190  0.46536  0.07225  Biso   1.000  C
  C75      1.0000 0.27190  0.03464  0.57225  Biso   1.000  C
  C76      1.0000 0.22810  0.53464  0.92775  Biso   1.000  C
  H61      1.0000 0.69400  0.96000  0.37470  Biso   1.000  H
  H62      1.0000 0.80600  0.46000  0.12530  Biso   1.000  H
  H63      1.0000 0.30600  0.04000  0.62530  Biso   1.000  H
  H64      1.0000 0.19400  0.54000  0.87470  Biso   1.000  H
  H65      1.0000 0.80640  0.96940  0.43530  Biso   1.000  H
  H66      1.0000 0.69360  0.46940  0.06470  Biso   1.000  H
  H67      1.0000 0.19360  0.03060  0.56470  Biso   1.000  H
  H68      1.0000 0.30640  0.53060  0.93530  Biso   1.000  H
  H69      1.0000 0.70030  0.00780  0.44640  Biso   1.000  H
  H70      1.0000 0.79970  0.50780  0.05360  Biso   1.000  H
  H71      1.0000 0.29970  0.99220  0.55360  Biso   1.000  H
  H72      1.0000 0.20030  0.49220  0.94640  Biso   1.000  H
  C77      1.0000 0.70220  0.90076  0.46991  Biso   1.000  C
  C78      1.0000 0.79780  0.40076  0.03009  Biso   1.000  C
  C79      1.0000 0.29780  0.09924  0.53009  Biso   1.000  C
  C80      1.0000 0.20220  0.59924  0.96991  Biso   1.000  C
  O21      1.0000 0.48859  0.75889  0.59827  Biso   1.000  O
  O22      1.0000 0.01141  0.25889  0.90173  Biso   1.000  O
  O23      1.0000 0.51141  0.24111  0.40173  Biso   1.000  O
  O24      1.0000 0.98859  0.74111  0.09827  Biso   1.000  O
  O25      1.0000 0.64984  0.73831  0.35460  Biso   1.000  O
  O26      1.0000 0.85016  0.23831  0.14540  Biso   1.000  O
  O27      1.0000 0.35016  0.26169  0.64540  Biso   1.000  O
  O28      1.0000 0.14984  0.76169  0.85460  Biso   1.000  O
  O29      1.0000 0.38616  0.78038  0.72217  Biso   1.000  O
  O30      1.0000 0.11384  0.28038  0.77783  Biso   1.000  O
  O31      1.0000 0.61384  0.21962  0.27783  Biso   1.000  O
  O32      1.0000 0.88616  0.71962  0.22217  Biso   1.000  O
  O33      1.0000 0.51962  0.82224  0.33470  Biso   1.000  O
  O34      1.0000 0.98038  0.32224  0.16530  Biso   1.000  O
  O35      1.0000 0.48038  0.17776  0.66530  Biso   1.000  O
  O36      1.0000 0.01962  0.67776  0.83470  Biso   1.000  O
  O37      1.0000 0.52067  0.70084  0.73246  Biso   1.000  O
  O38      1.0000 0.97933  0.20084  0.76754  Biso   1.000  O
  O39      1.0000 0.47933  0.29916  0.26754  Biso   1.000  O
  O40      1.0000 0.02067  0.79916  0.23246  Biso   1.000  O
  N9       1.0000 0.70690  0.65936  0.11834  Biso   1.000  N
  N10      1.0000 0.79310  0.15936  0.38166  Biso   1.000  N
  N11      1.0000 0.29310  0.34064  0.88166  Biso   1.000  N
  N12      1.0000 0.20690  0.84064  0.61834  Biso   1.000  N
  C81      1.0000 0.58800  0.78437  0.31429  Biso   1.000  C
  C82      1.0000 0.91200  0.28437  0.18571  Biso   1.000  C
  C83      1.0000 0.41200  0.21563  0.68571  Biso   1.000  C
  C84      1.0000 0.08800  0.71563  0.81429  Biso   1.000  C
  C85      1.0000 0.62420  0.86388  0.71798  Biso   1.000  C
  C86      1.0000 0.87580  0.36388  0.78202  Biso   1.000  C
  C87      1.0000 0.37580  0.13612  0.28202  Biso   1.000  C
  C88      1.0000 0.12420  0.63612  0.21798  Biso   1.000  C
  H73      1.0000 0.64780  0.81640  0.72110  Biso   1.000  H
  H74      1.0000 0.85220  0.31640  0.77890  Biso   1.000  H
  H75      1.0000 0.35220  0.18360  0.27890  Biso   1.000  H
  H76      1.0000 0.14780  0.68360  0.22110  Biso   1.000  H
  C89      1.0000 0.45160  0.73278  0.75769  Biso   1.000  C
  C90      1.0000 0.04840  0.23278  0.74231  Biso   1.000  C
  C91      1.0000 0.54840  0.26722  0.24231  Biso   1.000  C
  C92      1.0000 0.95160  0.76722  0.25769  Biso   1.000  C
  C93      1.0000 0.61480  0.66624  0.06309  Biso   1.000  C
  C94      1.0000 0.88520  0.16624  0.43691  Biso   1.000  C
  C95      1.0000 0.38520  0.33376  0.93691  Biso   1.000  C
  C96      1.0000 0.11480  0.83376  0.56309  Biso   1.000  C
  H77      1.0000 0.61680  0.69480  0.02170  Biso   1.000  H
  H78      1.0000 0.88320  0.19480  0.47830  Biso   1.000  H
  H79      1.0000 0.38320  0.30520  0.97830  Biso   1.000  H
  H80      1.0000 0.11680  0.80520  0.52170  Biso   1.000  H
  C97      1.0000 0.56250  0.96327  0.64575  Biso   1.000  C
  C98      1.0000 0.93750  0.46327  0.85425  Biso   1.000  C
  C99      1.0000 0.43750  0.03673  0.35425  Biso   1.000  C
  C100     1.0000 0.06250  0.53673  0.14575  Biso   1.000  C
  H81      1.0000 0.54310  0.98550  0.59870  Biso   1.000  H
  H82      1.0000 0.95690  0.48550  0.90130  Biso   1.000  H
  H83      1.0000 0.45690  0.01450  0.40130  Biso   1.000  H
  H84      1.0000 0.04310  0.51450  0.09870  Biso   1.000  H
  C101     1.0000 0.74850  0.65999  0.68644  Biso   1.000  C
  C102     1.0000 0.75150  0.15999  0.81356  Biso   1.000  C
  C103     1.0000 0.25150  0.34001  0.31356  Biso   1.000  C
  C104     1.0000 0.24850  0.84001  0.18644  Biso   1.000  C
  H85      1.0000 0.69640  0.67720  0.71290  Biso   1.000  H
  H86      1.0000 0.80360  0.17720  0.78710  Biso   1.000  H
  H87      1.0000 0.30360  0.32280  0.28710  Biso   1.000  H
  H88      1.0000 0.19640  0.82280  0.21290  Biso   1.000  H
  H89      1.0000 0.81800  0.68360  0.70560  Biso   1.000  H
  H90      1.0000 0.68200  0.18360  0.79440  Biso   1.000  H
  H91      1.0000 0.18200  0.31640  0.29440  Biso   1.000  H
  H92      1.0000 0.31800  0.81640  0.20560  Biso   1.000  H
  H93      1.0000 0.75800  0.60920  0.69390  Biso   1.000  H
  H94      1.0000 0.74200  0.10920  0.80610  Biso   1.000  H
  H95      1.0000 0.24200  0.39080  0.30610  Biso   1.000  H
  H96      1.0000 0.25800  0.89080  0.19390  Biso   1.000  H
  C105     1.0000 0.31580  0.83720  0.46470  Biso   1.000  C
  C106     1.0000 0.18420  0.33720  0.03530  Biso   1.000  C
  C107     1.0000 0.68420  0.16280  0.53530  Biso   1.000  C
  C108     1.0000 0.81580  0.66280  0.96470  Biso   1.000  C
  C109     1.0000 0.59800  0.79070  0.23341  Biso   1.000  C
  C110     1.0000 0.90200  0.29070  0.26659  Biso   1.000  C
  C111     1.0000 0.40200  0.20930  0.76659  Biso   1.000  C
  C112     1.0000 0.09800  0.70930  0.73341  Biso   1.000  C
  H97      1.0000 0.58560  0.83950  0.21680  Biso   1.000  H
  H98      1.0000 0.91440  0.33950  0.28320  Biso   1.000  H
  H99      1.0000 0.41440  0.16050  0.78320  Biso   1.000  H
  H100     1.0000 0.08560  0.66050  0.71680  Biso   1.000  H
  H101     1.0000 0.54430  0.76030  0.20120  Biso   1.000  H
  H102     1.0000 0.95570  0.26030  0.29880  Biso   1.000  H
  H103     1.0000 0.45570  0.23970  0.79880  Biso   1.000  H
  H104     1.0000 0.04430  0.73970  0.70120  Biso   1.000  H
  H105     1.0000 0.67050  0.77620  0.23100  Biso   1.000  H
  H106     1.0000 0.82950  0.27620  0.26900  Biso   1.000  H
  H107     1.0000 0.32950  0.22380  0.76900  Biso   1.000  H
  H108     1.0000 0.17050  0.72380  0.73100  Biso   1.000  H
  C113     1.0000 0.44330  0.71520  0.83597  Biso   1.000  C
  C114     1.0000 0.05670  0.21520  0.66403  Biso   1.000  C
  C115     1.0000 0.55670  0.28480  0.16403  Biso   1.000  C
  C116     1.0000 0.94330  0.78480  0.33597  Biso   1.000  C
  H109     1.0000 0.45740  0.66510  0.84550  Biso   1.000  H
  H110     1.0000 0.04260  0.16510  0.65450  Biso   1.000  H
  H111     1.0000 0.54260  0.33490  0.15450  Biso   1.000  H
  H112     1.0000 0.95740  0.83490  0.34550  Biso   1.000  H
  H113     1.0000 0.37070  0.72660  0.84070  Biso   1.000  H
  H114     1.0000 0.12930  0.22660  0.65930  Biso   1.000  H
  H115     1.0000 0.62930  0.27340  0.15930  Biso   1.000  H
  H116     1.0000 0.87070  0.77340  0.34070  Biso   1.000  H
  H117     1.0000 0.49660  0.74280  0.87190  Biso   1.000  H
  H118     1.0000 0.00340  0.24280  0.62810  Biso   1.000  H
  H119     1.0000 0.50340  0.25720  0.12810  Biso   1.000  H
  H120     1.0000 0.99660  0.75720  0.37190  Biso   1.000  H
  O41      1.0000 0.39030  0.89060  0.50790  Biso   1.000  O
  O42      1.0000 0.10970  0.39060  0.99210  Biso   1.000  O
  O43      1.0000 0.60970  0.10940  0.49210  Biso   1.000  O
  O44      1.0000 0.89030  0.60940  0.00790  Biso   1.000  O
  O45      1.0000 0.29380  0.79020  0.49610  Biso   1.000  O
  O46      1.0000 0.20620  0.29020  0.00390  Biso   1.000  O
  O47      1.0000 0.70620  0.20980  0.50390  Biso   1.000  O
  O48      1.0000 0.79380  0.70980  0.99610  Biso   1.000  O
  O49      1.0000 0.34190  0.85460  0.52420  Biso   1.000  O
  O50      1.0000 0.15810  0.35460  0.97580  Biso   1.000  O
  O51      1.0000 0.65810  0.14540  0.47580  Biso   1.000  O
  O52      1.0000 0.84190  0.64540  0.02420  Biso   1.000  O
  O53      1.0000 0.29310  0.76170  0.44810  Biso   1.000  O
  O54      1.0000 0.20690  0.26170  0.05190  Biso   1.000  O
  O55      1.0000 0.70690  0.23830  0.55190  Biso   1.000  O
  O56      1.0000 0.79310  0.73830  0.94810  Biso   1.000  O
  C117     1.0000 0.70650  0.67562  0.60294  Biso   1.000  C
  C118     1.0000 0.79350  0.17562  0.89706  Biso   1.000  C
  C119     1.0000 0.29350  0.32438  0.39706  Biso   1.000  C
  C120     1.0000 0.20650  0.82438  0.10294  Biso   1.000  C
  O57      1.0000 0.73659  0.73263  0.57776  Biso   1.000  O
  O58      1.0000 0.76341  0.23263  0.92224  Biso   1.000  O
  O59      1.0000 0.26341  0.26737  0.42224  Biso   1.000  O
  O60      1.0000 0.23659  0.76737  0.07776  Biso   1.000  O
  O61      1.0000 0.64270  0.63174  0.56238  Biso   1.000  O
  O62      1.0000 0.85730  0.13174  0.93762  Biso   1.000  O
  O63      1.0000 0.35730  0.36826  0.43762  Biso   1.000  O
  O64      1.0000 0.14270  0.86826  0.06238  Biso   1.000  O
  N13      1.0000 0.59249  0.89393  0.64952  Biso   1.000  N
  N14      1.0000 0.90751  0.39393  0.85048  Biso   1.000  N
  N15      1.0000 0.40751  0.10607  0.35048  Biso   1.000  N
  N16      1.0000 0.09249  0.60607  0.14952  Biso   1.000  N
  C121     1.0000 0.28030  0.86980  0.39050  Biso   1.000  C
  C122     1.0000 0.21970  0.36980  0.10950  Biso   1.000  C
  C123     1.0000 0.71970  0.13020  0.60950  Biso   1.000  C
  C124     1.0000 0.78030  0.63020  0.89050  Biso   1.000  C
  H121     1.0000 0.33520  0.86200  0.36290  Biso   1.000  H
  H122     1.0000 0.16480  0.36200  0.13710  Biso   1.000  H
  H123     1.0000 0.66480  0.13800  0.63710  Biso   1.000  H
  H124     1.0000 0.83520  0.63800  0.86290  Biso   1.000  H
  H125     1.0000 0.27030  0.92040  0.39590  Biso   1.000  H
  H126     1.0000 0.22970  0.42040  0.10410  Biso   1.000  H
  H127     1.0000 0.72970  0.07960  0.60410  Biso   1.000  H
  H128     1.0000 0.77030  0.57960  0.89590  Biso   1.000  H
  H129     1.0000 0.21190  0.84870  0.36350  Biso   1.000  H
  H130     1.0000 0.28810  0.34870  0.13650  Biso   1.000  H
  H131     1.0000 0.78810  0.15130  0.63650  Biso   1.000  H
  H132     1.0000 0.71190  0.65130  0.86350  Biso   1.000  H
  H133     1.0000 0.52600  0.78190  0.43260  Biso   1.000  H
  H134     1.0000 0.97400  0.28190  0.06740  Biso   1.000  H
  H135     1.0000 0.47400  0.21810  0.56740  Biso   1.000  H
  H136     1.0000 0.02600  0.71810  0.93260  Biso   1.000  H
  H137     1.0000 0.50900  0.74100  0.63700  Biso   1.000  H
  H138     1.0000 0.99100  0.24100  0.86300  Biso   1.000  H
  H139     1.0000 0.49100  0.25900  0.36300  Biso   1.000  H
  H140     1.0000 0.00900  0.75900  0.13700  Biso   1.000  H
  C125     1.0000 0.70290  0.61805  0.17706  Biso   1.000  C
  C126     1.0000 0.79710  0.11805  0.32294  Biso   1.000  C
  C127     1.0000 0.29710  0.38195  0.82294  Biso   1.000  C
  C128     1.0000 0.20290  0.88195  0.67706  Biso   1.000  C
  H141     1.0000 0.76640  0.61300  0.21600  Biso   1.000  H
  H142     1.0000 0.73360  0.11300  0.28400  Biso   1.000  H
  H143     1.0000 0.23360  0.38700  0.78400  Biso   1.000  H
  H144     1.0000 0.26640  0.88700  0.71600  Biso   1.000  H
  O65      1.0000 0.73430  0.76870  0.62730  Biso   1.000  O
  O66      1.0000 0.76570  0.26870  0.87270  Biso   1.000  O
  O67      1.0000 0.26570  0.23130  0.37270  Biso   1.000  O
  O68      1.0000 0.23430  0.73130  0.12730  Biso   1.000  O
  O69      1.0000 0.69600  0.66940  0.55320  Biso   1.000  O
  O70      1.0000 0.80400  0.16940  0.94680  Biso   1.000  O
  O71      1.0000 0.30400  0.33060  0.44680  Biso   1.000  O
  O72      1.0000 0.19600  0.83060  0.05320  Biso   1.000  O
