data_image0
_cell_length_a       17.915
_cell_length_b       17.287
_cell_length_c       9.7642
_cell_angle_alpha    90
_cell_angle_beta     113.299
_cell_angle_gamma    90

_symmetry_space_group_name_H-M    "P 1"
_symmetry_int_tables_number       1

loop_
  _symmetry_equiv_pos_as_xyz
  'x, y, z'

loop_
  _atom_site_label
  _atom_site_occupancy
  _atom_site_fract_x
  _atom_site_fract_y
  _atom_site_fract_z
  _atom_site_thermal_displace_type
  _atom_site_B_iso_or_equiv
  _atom_site_type_symbol
  Cu1      1.0000 0.30244  0.23334  0.13450  Biso   1.000  Cu
  Cu2      1.0000 0.80244  0.73334  0.13450  Biso   1.000  Cu
  Cu3      1.0000 0.69756  0.23334  0.36550  Biso   1.000  Cu
  Cu4      1.0000 0.19756  0.73334  0.36550  Biso   1.000  Cu
  Cu5      1.0000 0.69756  0.76666  0.86550  Biso   1.000  Cu
  Cu6      1.0000 0.19756  0.26666  0.86550  Biso   1.000  Cu
  Cu7      1.0000 0.30244  0.76666  0.63450  Biso   1.000  Cu
  Cu8      1.0000 0.80244  0.26666  0.63450  Biso   1.000  Cu
  O1       1.0000 0.32833  0.14230  0.04170  Biso   1.000  O
  O2       1.0000 0.82833  0.64230  0.04170  Biso   1.000  O
  O3       1.0000 0.67167  0.14230  0.45830  Biso   1.000  O
  O4       1.0000 0.17167  0.64230  0.45830  Biso   1.000  O
  O5       1.0000 0.67167  0.85770  0.95830  Biso   1.000  O
  O6       1.0000 0.17167  0.35770  0.95830  Biso   1.000  O
  O7       1.0000 0.32833  0.85770  0.54170  Biso   1.000  O
  O8       1.0000 0.82833  0.35770  0.54170  Biso   1.000  O
  O9       1.0000 0.23950  0.17180  0.81470  Biso   1.000  O
  O10      1.0000 0.73950  0.67180  0.81470  Biso   1.000  O
  O11      1.0000 0.76050  0.17180  0.68530  Biso   1.000  O
  O12      1.0000 0.26050  0.67180  0.68530  Biso   1.000  O
  O13      1.0000 0.76050  0.82820  0.18530  Biso   1.000  O
  O14      1.0000 0.26050  0.32820  0.18530  Biso   1.000  O
  O15      1.0000 0.23950  0.82820  0.31470  Biso   1.000  O
  O16      1.0000 0.73950  0.32820  0.31470  Biso   1.000  O
  O17      1.0000 0.20942  0.17734  0.14400  Biso   1.000  O
  O18      1.0000 0.70942  0.67734  0.14400  Biso   1.000  O
  O19      1.0000 0.79058  0.17734  0.35600  Biso   1.000  O
  O20      1.0000 0.29058  0.67734  0.35600  Biso   1.000  O
  O21      1.0000 0.79058  0.82266  0.85600  Biso   1.000  O
  O22      1.0000 0.29058  0.32266  0.85600  Biso   1.000  O
  O23      1.0000 0.20942  0.82266  0.64400  Biso   1.000  O
  O24      1.0000 0.70942  0.32266  0.64400  Biso   1.000  O
  O25      1.0000 0.12101  0.20488  0.91590  Biso   1.000  O
  O26      1.0000 0.62101  0.70488  0.91590  Biso   1.000  O
  O27      1.0000 0.87899  0.20488  0.58410  Biso   1.000  O
  O28      1.0000 0.37899  0.70488  0.58410  Biso   1.000  O
  O29      1.0000 0.87899  0.79512  0.08410  Biso   1.000  O
  O30      1.0000 0.37899  0.29512  0.08410  Biso   1.000  O
  O31      1.0000 0.12101  0.79512  0.41590  Biso   1.000  O
  O32      1.0000 0.62101  0.29512  0.41590  Biso   1.000  O
  N1       1.0000 0.37773  0.20800  0.36430  Biso   1.000  N
  N2       1.0000 0.87773  0.70800  0.36430  Biso   1.000  N
  N3       1.0000 0.62227  0.20800  0.13570  Biso   1.000  N
  N4       1.0000 0.12227  0.70800  0.13570  Biso   1.000  N
  N5       1.0000 0.62227  0.79200  0.63570  Biso   1.000  N
  N6       1.0000 0.12227  0.29200  0.63570  Biso   1.000  N
  N7       1.0000 0.37773  0.79200  0.86430  Biso   1.000  N
  N8       1.0000 0.87773  0.29200  0.86430  Biso   1.000  N
  C1       1.0000 0.34820  0.21800  0.46740  Biso   1.000  C
  C2       1.0000 0.84820  0.71800  0.46740  Biso   1.000  C
  C3       1.0000 0.65180  0.21800  0.03260  Biso   1.000  C
  C4       1.0000 0.15180  0.71800  0.03260  Biso   1.000  C
  C5       1.0000 0.65180  0.78200  0.53260  Biso   1.000  C
  C6       1.0000 0.15180  0.28200  0.53260  Biso   1.000  C
  C7       1.0000 0.34820  0.78200  0.96740  Biso   1.000  C
  C8       1.0000 0.84820  0.28200  0.96740  Biso   1.000  C
  H1       1.0000 0.29320  0.22940  0.43570  Biso   1.000  H
  H2       1.0000 0.79320  0.72940  0.43570  Biso   1.000  H
  H3       1.0000 0.70680  0.22940  0.06430  Biso   1.000  H
  H4       1.0000 0.20680  0.72940  0.06430  Biso   1.000  H
  H5       1.0000 0.70680  0.77060  0.56430  Biso   1.000  H
  H6       1.0000 0.20680  0.27060  0.56430  Biso   1.000  H
  H7       1.0000 0.29320  0.77060  0.93570  Biso   1.000  H
  H8       1.0000 0.79320  0.27060  0.93570  Biso   1.000  H
  C9       1.0000 0.39290  0.21290  0.61710  Biso   1.000  C
  C10      1.0000 0.89290  0.71290  0.61710  Biso   1.000  C
  C11      1.0000 0.60710  0.21290  0.88290  Biso   1.000  C
  C12      1.0000 0.10710  0.71290  0.88290  Biso   1.000  C
  C13      1.0000 0.60710  0.78710  0.38290  Biso   1.000  C
  C14      1.0000 0.10710  0.28710  0.38290  Biso   1.000  C
  C15      1.0000 0.39290  0.78710  0.11710  Biso   1.000  C
  C16      1.0000 0.89290  0.28710  0.11710  Biso   1.000  C
  H9       1.0000 0.36800  0.21930  0.68380  Biso   1.000  H
  H10      1.0000 0.86800  0.71930  0.68380  Biso   1.000  H
  H11      1.0000 0.63200  0.21930  0.81620  Biso   1.000  H
  H12      1.0000 0.13200  0.71930  0.81620  Biso   1.000  H
  H13      1.0000 0.63200  0.78070  0.31620  Biso   1.000  H
  H14      1.0000 0.13200  0.28070  0.31620  Biso   1.000  H
  H15      1.0000 0.36800  0.78070  0.18380  Biso   1.000  H
  H16      1.0000 0.86800  0.28070  0.18380  Biso   1.000  H
  C17      1.0000 0.47410  0.19830  0.66880  Biso   1.000  C
  C18      1.0000 0.97410  0.69830  0.66880  Biso   1.000  C
  C19      1.0000 0.52590  0.19830  0.83120  Biso   1.000  C
  C20      1.0000 0.02590  0.69830  0.83120  Biso   1.000  C
  C21      1.0000 0.52590  0.80170  0.33120  Biso   1.000  C
  C22      1.0000 0.02590  0.30170  0.33120  Biso   1.000  C
  C23      1.0000 0.47410  0.80170  0.16880  Biso   1.000  C
  C24      1.0000 0.97410  0.30170  0.16880  Biso   1.000  C
  C25      1.0000 0.50430  0.18580  0.56340  Biso   1.000  C
  C26      1.0000 0.00430  0.68580  0.56340  Biso   1.000  C
  C27      1.0000 0.49570  0.18580  0.93660  Biso   1.000  C
  C28      1.0000 0.99570  0.68580  0.93660  Biso   1.000  C
  C29      1.0000 0.49570  0.81420  0.43660  Biso   1.000  C
  C30      1.0000 0.99570  0.31420  0.43660  Biso   1.000  C
  C31      1.0000 0.50430  0.81420  0.06340  Biso   1.000  C
  C32      1.0000 0.00430  0.31420  0.06340  Biso   1.000  C
  H17      1.0000 0.55880  0.17290  0.59180  Biso   1.000  H
  H18      1.0000 0.05880  0.67290  0.59180  Biso   1.000  H
  H19      1.0000 0.44120  0.17290  0.90820  Biso   1.000  H
  H20      1.0000 0.94120  0.67290  0.90820  Biso   1.000  H
  H21      1.0000 0.44120  0.82710  0.40820  Biso   1.000  H
  H22      1.0000 0.94120  0.32710  0.40820  Biso   1.000  H
  H23      1.0000 0.55880  0.82710  0.09180  Biso   1.000  H
  H24      1.0000 0.05880  0.32710  0.09180  Biso   1.000  H
  C33      1.0000 0.45500  0.19210  0.41550  Biso   1.000  C
  C34      1.0000 0.95500  0.69210  0.41550  Biso   1.000  C
  C35      1.0000 0.54500  0.19210  0.08450  Biso   1.000  C
  C36      1.0000 0.04500  0.69210  0.08450  Biso   1.000  C
  C37      1.0000 0.54500  0.80790  0.58450  Biso   1.000  C
  C38      1.0000 0.04500  0.30790  0.58450  Biso   1.000  C
  C39      1.0000 0.45500  0.80790  0.91550  Biso   1.000  C
  C40      1.0000 0.95500  0.30790  0.91550  Biso   1.000  C
  H25      1.0000 0.47830  0.18450  0.34670  Biso   1.000  H
  H26      1.0000 0.97830  0.68450  0.34670  Biso   1.000  H
  H27      1.0000 0.52170  0.18450  0.15330  Biso   1.000  H
  H28      1.0000 0.02170  0.68450  0.15330  Biso   1.000  H
  H29      1.0000 0.52170  0.81550  0.65330  Biso   1.000  H
  H30      1.0000 0.02170  0.31550  0.65330  Biso   1.000  H
  H31      1.0000 0.47830  0.81550  0.84670  Biso   1.000  H
  H32      1.0000 0.97830  0.31550  0.84670  Biso   1.000  H
  C41      1.0000 0.29130  0.12860  0.90530  Biso   1.000  C
  C42      1.0000 0.79130  0.62860  0.90530  Biso   1.000  C
  C43      1.0000 0.70870  0.12860  0.59470  Biso   1.000  C
  C44      1.0000 0.20870  0.62860  0.59470  Biso   1.000  C
  C45      1.0000 0.70870  0.87140  0.09470  Biso   1.000  C
  C46      1.0000 0.20870  0.37140  0.09470  Biso   1.000  C
  C47      1.0000 0.29130  0.87140  0.40530  Biso   1.000  C
  C48      1.0000 0.79130  0.37140  0.40530  Biso   1.000  C
  C49      1.0000 0.31220  0.05480  0.84820  Biso   1.000  C
  C50      1.0000 0.81220  0.55480  0.84820  Biso   1.000  C
  C51      1.0000 0.68780  0.05480  0.65180  Biso   1.000  C
  C52      1.0000 0.18780  0.55480  0.65180  Biso   1.000  C
  C53      1.0000 0.68780  0.94520  0.15180  Biso   1.000  C
  C54      1.0000 0.18780  0.44520  0.15180  Biso   1.000  C
  C55      1.0000 0.31220  0.94520  0.34820  Biso   1.000  C
  C56      1.0000 0.81220  0.44520  0.34820  Biso   1.000  C
  C57      1.0000 0.26850  0.03770  0.70240  Biso   1.000  C
  C58      1.0000 0.76850  0.53770  0.70240  Biso   1.000  C
  C59      1.0000 0.73150  0.03770  0.79760  Biso   1.000  C
  C60      1.0000 0.23150  0.53770  0.79760  Biso   1.000  C
  C61      1.0000 0.73150  0.96230  0.29760  Biso   1.000  C
  C62      1.0000 0.23150  0.46230  0.29760  Biso   1.000  C
  C63      1.0000 0.26850  0.96230  0.20240  Biso   1.000  C
  C64      1.0000 0.76850  0.46230  0.20240  Biso   1.000  C
  H33      1.0000 0.27910  0.99250  0.66170  Biso   1.000  H
  H34      1.0000 0.77910  0.49250  0.66170  Biso   1.000  H
  H35      1.0000 0.72090  0.99250  0.83830  Biso   1.000  H
  H36      1.0000 0.22090  0.49250  0.83830  Biso   1.000  H
  H37      1.0000 0.72090  0.00750  0.33830  Biso   1.000  H
  H38      1.0000 0.22090  0.50750  0.33830  Biso   1.000  H
  H39      1.0000 0.27910  0.00750  0.16170  Biso   1.000  H
  H40      1.0000 0.77910  0.50750  0.16170  Biso   1.000  H
  H41      1.0000 0.22790  0.07120  0.64330  Biso   1.000  H
  H42      1.0000 0.72790  0.57120  0.64330  Biso   1.000  H
  H43      1.0000 0.77210  0.07120  0.85670  Biso   1.000  H
  H44      1.0000 0.27210  0.57120  0.85670  Biso   1.000  H
  H45      1.0000 0.77210  0.92880  0.35670  Biso   1.000  H
  H46      1.0000 0.27210  0.42880  0.35670  Biso   1.000  H
  H47      1.0000 0.22790  0.92880  0.14330  Biso   1.000  H
  H48      1.0000 0.72790  0.42880  0.14330  Biso   1.000  H
  C65      1.0000 0.37440  0.00820  0.94620  Biso   1.000  C
  C66      1.0000 0.87440  0.50820  0.94620  Biso   1.000  C
  C67      1.0000 0.62560  0.00820  0.55380  Biso   1.000  C
  C68      1.0000 0.12560  0.50820  0.55380  Biso   1.000  C
  C69      1.0000 0.62560  0.99180  0.05380  Biso   1.000  C
  C70      1.0000 0.12560  0.49180  0.05380  Biso   1.000  C
  C71      1.0000 0.37440  0.99180  0.44620  Biso   1.000  C
  C72      1.0000 0.87440  0.49180  0.44620  Biso   1.000  C
  H49      1.0000 0.36100  0.99300  0.02830  Biso   1.000  H
  H50      1.0000 0.86100  0.49300  0.02830  Biso   1.000  H
  H51      1.0000 0.63900  0.99300  0.47170  Biso   1.000  H
  H52      1.0000 0.13900  0.49300  0.47170  Biso   1.000  H
  H53      1.0000 0.63900  0.00700  0.97170  Biso   1.000  H
  H54      1.0000 0.13900  0.50700  0.97170  Biso   1.000  H
  H55      1.0000 0.36100  0.00700  0.52830  Biso   1.000  H
  H56      1.0000 0.86100  0.50700  0.52830  Biso   1.000  H
  H57      1.0000 0.42450  0.03670  0.98290  Biso   1.000  H
  H58      1.0000 0.92450  0.53670  0.98290  Biso   1.000  H
  H59      1.0000 0.57550  0.03670  0.51710  Biso   1.000  H
  H60      1.0000 0.07550  0.53670  0.51710  Biso   1.000  H
  H61      1.0000 0.57550  0.96330  0.01710  Biso   1.000  H
  H62      1.0000 0.07550  0.46330  0.01710  Biso   1.000  H
  H63      1.0000 0.42450  0.96330  0.48290  Biso   1.000  H
  H64      1.0000 0.92450  0.46330  0.48290  Biso   1.000  H
  H65      1.0000 0.38030  0.96290  0.89450  Biso   1.000  H
  H66      1.0000 0.88030  0.46290  0.89450  Biso   1.000  H
  H67      1.0000 0.61970  0.96290  0.60550  Biso   1.000  H
  H68      1.0000 0.11970  0.46290  0.60550  Biso   1.000  H
  H69      1.0000 0.61970  0.03710  0.10550  Biso   1.000  H
  H70      1.0000 0.11970  0.53710  0.10550  Biso   1.000  H
  H71      1.0000 0.38030  0.03710  0.39450  Biso   1.000  H
  H72      1.0000 0.88030  0.53710  0.39450  Biso   1.000  H
  C73      1.0000 0.14130  0.17190  0.03910  Biso   1.000  C
  C74      1.0000 0.64130  0.67190  0.03910  Biso   1.000  C
  C75      1.0000 0.85870  0.17190  0.46090  Biso   1.000  C
  C76      1.0000 0.35870  0.67190  0.46090  Biso   1.000  C
  C77      1.0000 0.85870  0.82810  0.96090  Biso   1.000  C
  C78      1.0000 0.35870  0.32810  0.96090  Biso   1.000  C
  C79      1.0000 0.14130  0.82810  0.53910  Biso   1.000  C
  C80      1.0000 0.64130  0.32810  0.53910  Biso   1.000  C
  C81      1.0000 0.07930  0.12250  0.06730  Biso   1.000  C
  C82      1.0000 0.57930  0.62250  0.06730  Biso   1.000  C
  C83      1.0000 0.92070  0.12250  0.43270  Biso   1.000  C
  C84      1.0000 0.42070  0.62250  0.43270  Biso   1.000  C
  C85      1.0000 0.92070  0.87750  0.93270  Biso   1.000  C
  C86      1.0000 0.42070  0.37750  0.93270  Biso   1.000  C
  C87      1.0000 0.07930  0.87750  0.56730  Biso   1.000  C
  C88      1.0000 0.57930  0.37750  0.56730  Biso   1.000  C
  C89      1.0000 0.10350  0.08800  0.21200  Biso   1.000  C
  C90      1.0000 0.60350  0.58800  0.21200  Biso   1.000  C
  C91      1.0000 0.89650  0.08800  0.28800  Biso   1.000  C
  C92      1.0000 0.39650  0.58800  0.28800  Biso   1.000  C
  C93      1.0000 0.89650  0.91200  0.78800  Biso   1.000  C
  C94      1.0000 0.39650  0.41200  0.78800  Biso   1.000  C
  C95      1.0000 0.10350  0.91200  0.71200  Biso   1.000  C
  C96      1.0000 0.60350  0.41200  0.71200  Biso   1.000  C
  H73      1.0000 0.05810  0.06100  0.21840  Biso   1.000  H
  H74      1.0000 0.55810  0.56100  0.21840  Biso   1.000  H
  H75      1.0000 0.94190  0.06100  0.28160  Biso   1.000  H
  H76      1.0000 0.44190  0.56100  0.28160  Biso   1.000  H
  H77      1.0000 0.94190  0.93900  0.78160  Biso   1.000  H
  H78      1.0000 0.44190  0.43900  0.78160  Biso   1.000  H
  H79      1.0000 0.05810  0.93900  0.71840  Biso   1.000  H
  H80      1.0000 0.55810  0.43900  0.71840  Biso   1.000  H
  H81      1.0000 0.12150  0.12760  0.28700  Biso   1.000  H
  H82      1.0000 0.62150  0.62760  0.28700  Biso   1.000  H
  H83      1.0000 0.87850  0.12760  0.21300  Biso   1.000  H
  H84      1.0000 0.37850  0.62760  0.21300  Biso   1.000  H
  H85      1.0000 0.87850  0.87240  0.71300  Biso   1.000  H
  H86      1.0000 0.37850  0.37240  0.71300  Biso   1.000  H
  H87      1.0000 0.12150  0.87240  0.78700  Biso   1.000  H
  H88      1.0000 0.62150  0.37240  0.78700  Biso   1.000  H
  H89      1.0000 0.14700  0.05210  0.22750  Biso   1.000  H
  H90      1.0000 0.64700  0.55210  0.22750  Biso   1.000  H
  H91      1.0000 0.85300  0.05210  0.27250  Biso   1.000  H
  H92      1.0000 0.35300  0.55210  0.27250  Biso   1.000  H
  H93      1.0000 0.85300  0.94790  0.77250  Biso   1.000  H
  H94      1.0000 0.35300  0.44790  0.77250  Biso   1.000  H
  H95      1.0000 0.14700  0.94790  0.72750  Biso   1.000  H
  H96      1.0000 0.64700  0.44790  0.72750  Biso   1.000  H
  C97      1.0000 0.00490  0.11090  0.95670  Biso   1.000  C
  C98      1.0000 0.50490  0.61090  0.95670  Biso   1.000  C
  C99      1.0000 0.99510  0.11090  0.54330  Biso   1.000  C
  C100     1.0000 0.49510  0.61090  0.54330  Biso   1.000  C
  C101     1.0000 0.99510  0.88910  0.04330  Biso   1.000  C
  C102     1.0000 0.49510  0.38910  0.04330  Biso   1.000  C
  C103     1.0000 0.00490  0.88910  0.45670  Biso   1.000  C
  C104     1.0000 0.50490  0.38910  0.45670  Biso   1.000  C
  H97      1.0000 0.96720  0.07940  0.97330  Biso   1.000  H
  H98      1.0000 0.46720  0.57940  0.97330  Biso   1.000  H
  H99      1.0000 0.03280  0.07940  0.52670  Biso   1.000  H
  H100     1.0000 0.53280  0.57940  0.52670  Biso   1.000  H
  H101     1.0000 0.03280  0.92060  0.02670  Biso   1.000  H
  H102     1.0000 0.53280  0.42060  0.02670  Biso   1.000  H
  H103     1.0000 0.96720  0.92060  0.47330  Biso   1.000  H
  H104     1.0000 0.46720  0.42060  0.47330  Biso   1.000  H
  H105     1.0000 0.99160  0.13440  0.86430  Biso   1.000  H
  H106     1.0000 0.49160  0.63440  0.86430  Biso   1.000  H
  H107     1.0000 0.00840  0.13440  0.63570  Biso   1.000  H
  H108     1.0000 0.50840  0.63440  0.63570  Biso   1.000  H
  H109     1.0000 0.00840  0.86560  0.13570  Biso   1.000  H
  H110     1.0000 0.50840  0.36560  0.13570  Biso   1.000  H
  H111     1.0000 0.99160  0.86560  0.36430  Biso   1.000  H
  H112     1.0000 0.49160  0.36560  0.36430  Biso   1.000  H
