data_image0
_cell_length_a       8.6542
_cell_length_b       12.1882
_cell_length_c       12.4272
_cell_angle_alpha    90
_cell_angle_beta     98.39
_cell_angle_gamma    90

_symmetry_space_group_name_H-M    "P 1"
_symmetry_int_tables_number       1

loop_
  _symmetry_equiv_pos_as_xyz
  'x, y, z'

loop_
  _atom_site_label
  _atom_site_occupancy
  _atom_site_fract_x
  _atom_site_fract_y
  _atom_site_fract_z
  _atom_site_thermal_displace_type
  _atom_site_B_iso_or_equiv
  _atom_site_type_symbol
  Cu1      1.0000 0.86874  0.96498  0.53265  Biso   1.000  Cu
  Cu2      1.0000 0.63126  0.46498  0.96735  Biso   1.000  Cu
  Cu3      1.0000 0.13126  0.03502  0.46735  Biso   1.000  Cu
  Cu4      1.0000 0.36874  0.53502  0.03265  Biso   1.000  Cu
  C1       1.0000 0.81100  0.29790  0.44120  Biso   1.000  C
  C2       1.0000 0.68900  0.79790  0.05880  Biso   1.000  C
  C3       1.0000 0.18900  0.70210  0.55880  Biso   1.000  C
  C4       1.0000 0.31100  0.20210  0.94120  Biso   1.000  C
  C5       1.0000 0.74540  0.32560  0.33704  Biso   1.000  C
  C6       1.0000 0.75460  0.82560  0.16296  Biso   1.000  C
  C7       1.0000 0.25460  0.67440  0.66296  Biso   1.000  C
  C8       1.0000 0.24540  0.17440  0.83704  Biso   1.000  C
  C9       1.0000 0.66820  0.42350  0.30967  Biso   1.000  C
  C10      1.0000 0.83180  0.92350  0.19033  Biso   1.000  C
  C11      1.0000 0.33180  0.57650  0.69033  Biso   1.000  C
  C12      1.0000 0.16820  0.07650  0.80967  Biso   1.000  C
  C13      1.0000 0.65790  0.49580  0.39420  Biso   1.000  C
  C14      1.0000 0.84210  0.99580  0.10580  Biso   1.000  C
  C15      1.0000 0.34210  0.50420  0.60580  Biso   1.000  C
  C16      1.0000 0.15790  0.00420  0.89420  Biso   1.000  C
  C17      1.0000 0.72220  0.47150  0.49960  Biso   1.000  C
  C18      1.0000 0.77780  0.97150  0.00040  Biso   1.000  C
  C19      1.0000 0.27780  0.52850  0.50040  Biso   1.000  C
  C20      1.0000 0.22220  0.02850  0.99960  Biso   1.000  C
  C21      1.0000 0.79800  0.37320  0.52200  Biso   1.000  C
  C22      1.0000 0.70200  0.87320  0.97800  Biso   1.000  C
  C23      1.0000 0.20200  0.62680  0.47800  Biso   1.000  C
  C24      1.0000 0.29800  0.12680  0.02200  Biso   1.000  C
  C25      1.0000 0.88670  0.18712  0.46554  Biso   1.000  C
  C26      1.0000 0.61330  0.68712  0.03446  Biso   1.000  C
  C27      1.0000 0.11330  0.81288  0.53446  Biso   1.000  C
  C28      1.0000 0.38670  0.31288  0.96554  Biso   1.000  C
  C29      1.0000 0.60120  0.45109  0.19420  Biso   1.000  C
  C30      1.0000 0.89880  0.95109  0.30580  Biso   1.000  C
  C31      1.0000 0.39880  0.54891  0.80580  Biso   1.000  C
  C32      1.0000 0.10120  0.04891  0.69420  Biso   1.000  C
  C33      1.0000 0.60400  0.80970  0.58970  Biso   1.000  C
  C34      1.0000 0.89600  0.30970  0.91030  Biso   1.000  C
  C35      1.0000 0.39600  0.19030  0.41030  Biso   1.000  C
  C36      1.0000 0.10400  0.69030  0.08970  Biso   1.000  C
  H1       1.0000 0.50000  0.81110  0.60790  Biso   1.000  H
  H2       1.0000 0.00000  0.31110  0.89210  Biso   1.000  H
  H3       1.0000 0.50000  0.18890  0.39210  Biso   1.000  H
  H4       1.0000 0.00000  0.68890  0.10790  Biso   1.000  H
  H5       1.0000 0.67360  0.77760  0.64850  Biso   1.000  H
  H6       1.0000 0.82640  0.27760  0.85150  Biso   1.000  H
  H7       1.0000 0.32640  0.22240  0.35150  Biso   1.000  H
  H8       1.0000 0.17360  0.72240  0.14850  Biso   1.000  H
  H9       1.0000 0.60530  0.76680  0.52500  Biso   1.000  H
  H10      1.0000 0.89470  0.26680  0.97500  Biso   1.000  H
  H11      1.0000 0.39470  0.23320  0.47500  Biso   1.000  H
  H12      1.0000 0.10530  0.73320  0.02500  Biso   1.000  H
  C37      1.0000 0.09580  0.34260  0.21120  Biso   1.000  C
  C38      1.0000 0.40420  0.84260  0.28880  Biso   1.000  C
  C39      1.0000 0.90420  0.65740  0.78880  Biso   1.000  C
  C40      1.0000 0.59580  0.15740  0.71120  Biso   1.000  C
  H13      1.0000 0.20610  0.35490  0.21570  Biso   1.000  H
  H14      1.0000 0.29390  0.85490  0.28430  Biso   1.000  H
  H15      1.0000 0.79390  0.64510  0.78430  Biso   1.000  H
  H16      1.0000 0.70610  0.14510  0.71570  Biso   1.000  H
  H17      1.0000 0.06240  0.29140  0.15380  Biso   1.000  H
  H18      1.0000 0.43760  0.79140  0.34620  Biso   1.000  H
  H19      1.0000 0.93760  0.70860  0.84620  Biso   1.000  H
  H20      1.0000 0.56240  0.20860  0.65380  Biso   1.000  H
  H21      1.0000 0.07350  0.31320  0.27900  Biso   1.000  H
  H22      1.0000 0.42650  0.81320  0.22100  Biso   1.000  H
  H23      1.0000 0.92650  0.68680  0.72100  Biso   1.000  H
  H24      1.0000 0.57350  0.18680  0.77900  Biso   1.000  H
  F1       1.0000 0.75290  0.25055  0.25928  Biso   1.000  F
  F2       1.0000 0.74710  0.75055  0.24072  Biso   1.000  F
  F3       1.0000 0.24710  0.74945  0.74072  Biso   1.000  F
  F4       1.0000 0.25290  0.24945  0.75928  Biso   1.000  F
  F5       1.0000 0.58660  0.59239  0.37550  Biso   1.000  F
  F6       1.0000 0.91340  0.09239  0.12450  Biso   1.000  F
  F7       1.0000 0.41340  0.40761  0.62450  Biso   1.000  F
  F8       1.0000 0.08660  0.90761  0.87550  Biso   1.000  F
  F9       1.0000 0.70980  0.54384  0.57961  Biso   1.000  F
  F10      1.0000 0.79020  0.04384  0.92039  Biso   1.000  F
  F11      1.0000 0.29020  0.45616  0.42039  Biso   1.000  F
  F12      1.0000 0.20980  0.95616  0.07961  Biso   1.000  F
  F13      1.0000 0.86000  0.35034  0.62475  Biso   1.000  F
  F14      1.0000 0.64000  0.85034  0.87525  Biso   1.000  F
  F15      1.0000 0.14000  0.64966  0.37525  Biso   1.000  F
  F16      1.0000 0.36000  0.14966  0.12475  Biso   1.000  F
  O1       1.0000 0.80260  0.11737  0.50171  Biso   1.000  O
  O2       1.0000 0.69740  0.61737  0.99829  Biso   1.000  O
  O3       1.0000 0.19740  0.88263  0.49829  Biso   1.000  O
  O4       1.0000 0.30260  0.38263  0.00171  Biso   1.000  O
  O5       1.0000 0.02280  0.17630  0.44677  Biso   1.000  O
  O6       1.0000 0.47720  0.67630  0.05323  Biso   1.000  O
  O7       1.0000 0.97720  0.82370  0.55323  Biso   1.000  O
  O8       1.0000 0.52280  0.32370  0.94677  Biso   1.000  O
  O9       1.0000 0.46710  0.48965  0.17844  Biso   1.000  O
  O10      1.0000 0.03290  0.98965  0.32156  Biso   1.000  O
  O11      1.0000 0.53290  0.51035  0.82156  Biso   1.000  O
  O12      1.0000 0.96710  0.01035  0.67844  Biso   1.000  O
  O13      1.0000 0.68830  0.43243  0.12365  Biso   1.000  O
  O14      1.0000 0.81170  0.93243  0.37635  Biso   1.000  O
  O15      1.0000 0.31170  0.56757  0.87635  Biso   1.000  O
  O16      1.0000 0.18830  0.06757  0.62365  Biso   1.000  O
  O17      1.0000 0.65240  0.91720  0.57154  Biso   1.000  O
  O18      1.0000 0.84760  0.41720  0.92846  Biso   1.000  O
  O19      1.0000 0.34760  0.08280  0.42846  Biso   1.000  O
  O20      1.0000 0.15240  0.58280  0.07154  Biso   1.000  O
  H25      1.0000 0.60100  0.96000  0.60600  Biso   1.000  H
  H26      1.0000 0.89900  0.46000  0.89400  Biso   1.000  H
  H27      1.0000 0.39900  0.04000  0.39400  Biso   1.000  H
  H28      1.0000 0.10100  0.54000  0.10600  Biso   1.000  H
  O21      1.0000 0.01480  0.44350  0.18940  Biso   1.000  O
  O22      1.0000 0.48520  0.94350  0.31060  Biso   1.000  O
  O23      1.0000 0.98520  0.55650  0.81060  Biso   1.000  O
  O24      1.0000 0.51480  0.05650  0.68940  Biso   1.000  O
  H29      1.0000 0.92190  0.43130  0.16970  Biso   1.000  H
  H30      1.0000 0.57810  0.93130  0.33030  Biso   1.000  H
  H31      1.0000 0.07810  0.56870  0.83030  Biso   1.000  H
  H32      1.0000 0.42190  0.06870  0.66970  Biso   1.000  H
