data_image0
_cell_length_a       20.344
_cell_length_b       9.828
_cell_length_c       20.802
_cell_angle_alpha    90
_cell_angle_beta     116.101
_cell_angle_gamma    90

_symmetry_space_group_name_H-M    "P 1"
_symmetry_int_tables_number       1

loop_
  _symmetry_equiv_pos_as_xyz
  'x, y, z'

loop_
  _atom_site_label
  _atom_site_occupancy
  _atom_site_fract_x
  _atom_site_fract_y
  _atom_site_fract_z
  _atom_site_thermal_displace_type
  _atom_site_B_iso_or_equiv
  _atom_site_type_symbol
  Cu1      1.0000 0.34406  0.77943  0.02422  Biso   1.000  Cu
  Cu2      1.0000 0.84406  0.27943  0.02422  Biso   1.000  Cu
  Cu3      1.0000 0.65594  0.77943  0.47578  Biso   1.000  Cu
  Cu4      1.0000 0.15594  0.27943  0.47578  Biso   1.000  Cu
  Cu5      1.0000 0.65594  0.22057  0.97578  Biso   1.000  Cu
  Cu6      1.0000 0.15594  0.72057  0.97578  Biso   1.000  Cu
  Cu7      1.0000 0.34406  0.22057  0.52422  Biso   1.000  Cu
  Cu8      1.0000 0.84406  0.72057  0.52422  Biso   1.000  Cu
  N1       1.0000 0.42638  0.91151  0.08126  Biso   1.000  N
  N2       1.0000 0.92638  0.41151  0.08126  Biso   1.000  N
  N3       1.0000 0.57362  0.91151  0.41874  Biso   1.000  N
  N4       1.0000 0.07362  0.41151  0.41874  Biso   1.000  N
  N5       1.0000 0.57362  0.08849  0.91874  Biso   1.000  N
  N6       1.0000 0.07362  0.58849  0.91874  Biso   1.000  N
  N7       1.0000 0.42638  0.08849  0.58126  Biso   1.000  N
  N8       1.0000 0.92638  0.58849  0.58126  Biso   1.000  N
  N9       1.0000 0.32666  0.91916  0.94702  Biso   1.000  N
  N10      1.0000 0.82666  0.41916  0.94702  Biso   1.000  N
  N11      1.0000 0.67334  0.91916  0.55298  Biso   1.000  N
  N12      1.0000 0.17334  0.41916  0.55298  Biso   1.000  N
  N13      1.0000 0.67334  0.08084  0.05298  Biso   1.000  N
  N14      1.0000 0.17334  0.58084  0.05298  Biso   1.000  N
  N15      1.0000 0.32666  0.08084  0.44702  Biso   1.000  N
  N16      1.0000 0.82666  0.58084  0.44702  Biso   1.000  N
  C1       1.0000 0.47751  0.90200  0.14825  Biso   1.000  C
  C2       1.0000 0.97751  0.40200  0.14825  Biso   1.000  C
  C3       1.0000 0.52249  0.90200  0.35175  Biso   1.000  C
  C4       1.0000 0.02249  0.40200  0.35175  Biso   1.000  C
  C5       1.0000 0.52249  0.09800  0.85175  Biso   1.000  C
  C6       1.0000 0.02249  0.59800  0.85175  Biso   1.000  C
  C7       1.0000 0.47751  0.09800  0.64825  Biso   1.000  C
  C8       1.0000 0.97751  0.59800  0.64825  Biso   1.000  C
  H1       1.0000 0.47650  0.82820  0.17580  Biso   1.000  H
  H2       1.0000 0.97650  0.32820  0.17580  Biso   1.000  H
  H3       1.0000 0.52350  0.82820  0.32420  Biso   1.000  H
  H4       1.0000 0.02350  0.32820  0.32420  Biso   1.000  H
  H5       1.0000 0.52350  0.17180  0.82420  Biso   1.000  H
  H6       1.0000 0.02350  0.67180  0.82420  Biso   1.000  H
  H7       1.0000 0.47650  0.17180  0.67580  Biso   1.000  H
  H8       1.0000 0.97650  0.67180  0.67580  Biso   1.000  H
  C9       1.0000 0.53290  0.99910  0.17880  Biso   1.000  C
  C10      1.0000 0.03290  0.49910  0.17880  Biso   1.000  C
  C11      1.0000 0.46710  0.99910  0.32120  Biso   1.000  C
  C12      1.0000 0.96710  0.49910  0.32120  Biso   1.000  C
  C13      1.0000 0.46710  0.00090  0.82120  Biso   1.000  C
  C14      1.0000 0.96710  0.50090  0.82120  Biso   1.000  C
  C15      1.0000 0.53290  0.00090  0.67880  Biso   1.000  C
  C16      1.0000 0.03290  0.50090  0.67880  Biso   1.000  C
  H9       1.0000 0.56760  0.98940  0.22610  Biso   1.000  H
  H10      1.0000 0.06760  0.48940  0.22610  Biso   1.000  H
  H11      1.0000 0.43240  0.98940  0.27390  Biso   1.000  H
  H12      1.0000 0.93240  0.48940  0.27390  Biso   1.000  H
  H13      1.0000 0.43240  0.01060  0.77390  Biso   1.000  H
  H14      1.0000 0.93240  0.51060  0.77390  Biso   1.000  H
  H15      1.0000 0.56760  0.01060  0.72610  Biso   1.000  H
  H16      1.0000 0.06760  0.51060  0.72610  Biso   1.000  H
  C17      1.0000 0.53646  0.10750  0.13994  Biso   1.000  C
  C18      1.0000 0.03646  0.60750  0.13994  Biso   1.000  C
  C19      1.0000 0.46354  0.10750  0.36006  Biso   1.000  C
  C20      1.0000 0.96354  0.60750  0.36006  Biso   1.000  C
  C21      1.0000 0.46354  0.89250  0.86006  Biso   1.000  C
  C22      1.0000 0.96354  0.39250  0.86006  Biso   1.000  C
  C23      1.0000 0.53646  0.89250  0.63994  Biso   1.000  C
  C24      1.0000 0.03646  0.39250  0.63994  Biso   1.000  C
  H17      1.0000 0.57300  0.17260  0.16050  Biso   1.000  H
  H18      1.0000 0.07300  0.67260  0.16050  Biso   1.000  H
  H19      1.0000 0.42700  0.17260  0.33950  Biso   1.000  H
  H20      1.0000 0.92700  0.67260  0.33950  Biso   1.000  H
  H21      1.0000 0.42700  0.82740  0.83950  Biso   1.000  H
  H22      1.0000 0.92700  0.32740  0.83950  Biso   1.000  H
  H23      1.0000 0.57300  0.82740  0.66050  Biso   1.000  H
  H24      1.0000 0.07300  0.32740  0.66050  Biso   1.000  H
  C25      1.0000 0.48377  0.11990  0.06776  Biso   1.000  C
  C26      1.0000 0.98377  0.61990  0.06776  Biso   1.000  C
  C27      1.0000 0.51623  0.11990  0.43224  Biso   1.000  C
  C28      1.0000 0.01623  0.61990  0.43224  Biso   1.000  C
  C29      1.0000 0.51623  0.88010  0.93224  Biso   1.000  C
  C30      1.0000 0.01623  0.38010  0.93224  Biso   1.000  C
  C31      1.0000 0.48377  0.88010  0.56776  Biso   1.000  C
  C32      1.0000 0.98377  0.38010  0.56776  Biso   1.000  C
  C33      1.0000 0.48318  0.22670  0.02083  Biso   1.000  C
  C34      1.0000 0.98318  0.72670  0.02083  Biso   1.000  C
  C35      1.0000 0.51682  0.22670  0.47917  Biso   1.000  C
  C36      1.0000 0.01682  0.72670  0.47917  Biso   1.000  C
  C37      1.0000 0.51682  0.77330  0.97917  Biso   1.000  C
  C38      1.0000 0.01682  0.27330  0.97917  Biso   1.000  C
  C39      1.0000 0.48318  0.77330  0.52083  Biso   1.000  C
  C40      1.0000 0.98318  0.27330  0.52083  Biso   1.000  C
  H25      1.0000 0.51890  0.29410  0.03770  Biso   1.000  H
  H26      1.0000 0.01890  0.79410  0.03770  Biso   1.000  H
  H27      1.0000 0.48110  0.29410  0.46230  Biso   1.000  H
  H28      1.0000 0.98110  0.79410  0.46230  Biso   1.000  H
  H29      1.0000 0.48110  0.70590  0.96230  Biso   1.000  H
  H30      1.0000 0.98110  0.20590  0.96230  Biso   1.000  H
  H31      1.0000 0.51890  0.70590  0.53770  Biso   1.000  H
  H32      1.0000 0.01890  0.20590  0.53770  Biso   1.000  H
  C41      1.0000 0.43117  0.23070  0.95207  Biso   1.000  C
  C42      1.0000 0.93117  0.73070  0.95207  Biso   1.000  C
  C43      1.0000 0.56883  0.23070  0.54793  Biso   1.000  C
  C44      1.0000 0.06883  0.73070  0.54793  Biso   1.000  C
  C45      1.0000 0.56883  0.76930  0.04793  Biso   1.000  C
  C46      1.0000 0.06883  0.26930  0.04793  Biso   1.000  C
  C47      1.0000 0.43117  0.76930  0.45207  Biso   1.000  C
  C48      1.0000 0.93117  0.26930  0.45207  Biso   1.000  C
  H33      1.0000 0.43160  0.30130  0.92250  Biso   1.000  H
  H34      1.0000 0.93160  0.80130  0.92250  Biso   1.000  H
  H35      1.0000 0.56840  0.30130  0.57750  Biso   1.000  H
  H36      1.0000 0.06840  0.80130  0.57750  Biso   1.000  H
  H37      1.0000 0.56840  0.69870  0.07750  Biso   1.000  H
  H38      1.0000 0.06840  0.19870  0.07750  Biso   1.000  H
  H39      1.0000 0.43160  0.69870  0.42250  Biso   1.000  H
  H40      1.0000 0.93160  0.19870  0.42250  Biso   1.000  H
  C49      1.0000 0.37571  0.12880  0.92400  Biso   1.000  C
  C50      1.0000 0.87571  0.62880  0.92400  Biso   1.000  C
  C51      1.0000 0.62429  0.12880  0.57600  Biso   1.000  C
  C52      1.0000 0.12429  0.62880  0.57600  Biso   1.000  C
  C53      1.0000 0.62429  0.87120  0.07600  Biso   1.000  C
  C54      1.0000 0.12429  0.37120  0.07600  Biso   1.000  C
  C55      1.0000 0.37571  0.87120  0.42400  Biso   1.000  C
  C56      1.0000 0.87571  0.37120  0.42400  Biso   1.000  C
  C57      1.0000 0.32154  0.12510  0.85279  Biso   1.000  C
  C58      1.0000 0.82154  0.62510  0.85279  Biso   1.000  C
  C59      1.0000 0.67846  0.12510  0.64721  Biso   1.000  C
  C60      1.0000 0.17846  0.62510  0.64721  Biso   1.000  C
  C61      1.0000 0.67846  0.87490  0.14721  Biso   1.000  C
  C62      1.0000 0.17846  0.37490  0.14721  Biso   1.000  C
  C63      1.0000 0.32154  0.87490  0.35279  Biso   1.000  C
  C64      1.0000 0.82154  0.37490  0.35279  Biso   1.000  C
  H41      1.0000 0.31930  0.19280  0.82070  Biso   1.000  H
  H42      1.0000 0.81930  0.69280  0.82070  Biso   1.000  H
  H43      1.0000 0.68070  0.19280  0.67930  Biso   1.000  H
  H44      1.0000 0.18070  0.69280  0.67930  Biso   1.000  H
  H45      1.0000 0.68070  0.80720  0.17930  Biso   1.000  H
  H46      1.0000 0.18070  0.30720  0.17930  Biso   1.000  H
  H47      1.0000 0.31930  0.80720  0.32070  Biso   1.000  H
  H48      1.0000 0.81930  0.30720  0.32070  Biso   1.000  H
  C65      1.0000 0.27205  0.02060  0.83121  Biso   1.000  C
  C66      1.0000 0.77205  0.52060  0.83121  Biso   1.000  C
  C67      1.0000 0.72795  0.02060  0.66879  Biso   1.000  C
  C68      1.0000 0.22795  0.52060  0.66879  Biso   1.000  C
  C69      1.0000 0.72795  0.97940  0.16879  Biso   1.000  C
  C70      1.0000 0.22795  0.47940  0.16879  Biso   1.000  C
  C71      1.0000 0.27205  0.97940  0.33121  Biso   1.000  C
  C72      1.0000 0.77205  0.47940  0.33121  Biso   1.000  C
  H49      1.0000 0.23560  0.01740  0.78430  Biso   1.000  H
  H50      1.0000 0.73560  0.51740  0.78430  Biso   1.000  H
  H51      1.0000 0.76440  0.01740  0.71570  Biso   1.000  H
  H52      1.0000 0.26440  0.51740  0.71570  Biso   1.000  H
  H53      1.0000 0.76440  0.98260  0.21570  Biso   1.000  H
  H54      1.0000 0.26440  0.48260  0.21570  Biso   1.000  H
  H55      1.0000 0.23560  0.98260  0.28430  Biso   1.000  H
  H56      1.0000 0.73560  0.48260  0.28430  Biso   1.000  H
  C73      1.0000 0.27635  0.91910  0.87965  Biso   1.000  C
  C74      1.0000 0.77635  0.41910  0.87965  Biso   1.000  C
  C75      1.0000 0.72365  0.91910  0.62035  Biso   1.000  C
  C76      1.0000 0.22365  0.41910  0.62035  Biso   1.000  C
  C77      1.0000 0.72365  0.08090  0.12035  Biso   1.000  C
  C78      1.0000 0.22365  0.58090  0.12035  Biso   1.000  C
  C79      1.0000 0.27635  0.08090  0.37965  Biso   1.000  C
  C80      1.0000 0.77635  0.58090  0.37965  Biso   1.000  C
  H57      1.0000 0.24250  0.84840  0.86400  Biso   1.000  H
  H58      1.0000 0.74250  0.34840  0.86400  Biso   1.000  H
  H59      1.0000 0.75750  0.84840  0.63600  Biso   1.000  H
  H60      1.0000 0.25750  0.34840  0.63600  Biso   1.000  H
  H61      1.0000 0.75750  0.15160  0.13600  Biso   1.000  H
  H62      1.0000 0.25750  0.65160  0.13600  Biso   1.000  H
  H63      1.0000 0.24250  0.15160  0.36400  Biso   1.000  H
  H64      1.0000 0.74250  0.65160  0.36400  Biso   1.000  H
  C81      1.0000 0.37564  0.02280  0.96890  Biso   1.000  C
  C82      1.0000 0.87564  0.52280  0.96890  Biso   1.000  C
  C83      1.0000 0.62436  0.02280  0.53110  Biso   1.000  C
  C84      1.0000 0.12436  0.52280  0.53110  Biso   1.000  C
  C85      1.0000 0.62436  0.97720  0.03110  Biso   1.000  C
  C86      1.0000 0.12436  0.47720  0.03110  Biso   1.000  C
  C87      1.0000 0.37564  0.97720  0.46890  Biso   1.000  C
  C88      1.0000 0.87564  0.47720  0.46890  Biso   1.000  C
  C89      1.0000 0.43011  0.01820  0.04158  Biso   1.000  C
  C90      1.0000 0.93011  0.51820  0.04158  Biso   1.000  C
  C91      1.0000 0.56989  0.01820  0.45842  Biso   1.000  C
  C92      1.0000 0.06989  0.51820  0.45842  Biso   1.000  C
  C93      1.0000 0.56989  0.98180  0.95842  Biso   1.000  C
  C94      1.0000 0.06989  0.48180  0.95842  Biso   1.000  C
  C95      1.0000 0.43011  0.98180  0.54158  Biso   1.000  C
  C96      1.0000 0.93011  0.48180  0.54158  Biso   1.000  C
  O1       1.0000 0.36965  0.65156  0.10265  Biso   1.000  O
  O2       1.0000 0.86965  0.15156  0.10265  Biso   1.000  O
  O3       1.0000 0.63035  0.65156  0.39735  Biso   1.000  O
  O4       1.0000 0.13035  0.15156  0.39735  Biso   1.000  O
  O5       1.0000 0.63035  0.34844  0.89735  Biso   1.000  O
  O6       1.0000 0.13035  0.84844  0.89735  Biso   1.000  O
  O7       1.0000 0.36965  0.34844  0.60265  Biso   1.000  O
  O8       1.0000 0.86965  0.84844  0.60265  Biso   1.000  O
  O9       1.0000 0.46213  0.57313  0.08501  Biso   1.000  O
  O10      1.0000 0.96213  0.07313  0.08501  Biso   1.000  O
  O11      1.0000 0.53787  0.57313  0.41499  Biso   1.000  O
  O12      1.0000 0.03787  0.07313  0.41499  Biso   1.000  O
  O13      1.0000 0.53787  0.42687  0.91499  Biso   1.000  O
  O14      1.0000 0.03787  0.92687  0.91499  Biso   1.000  O
  O15      1.0000 0.46213  0.42687  0.58501  Biso   1.000  O
  O16      1.0000 0.96213  0.92687  0.58501  Biso   1.000  O
  C97      1.0000 0.41896  0.56230  0.11093  Biso   1.000  C
  C98      1.0000 0.91896  0.06230  0.11093  Biso   1.000  C
  C99      1.0000 0.58104  0.56230  0.38907  Biso   1.000  C
  C100     1.0000 0.08104  0.06230  0.38907  Biso   1.000  C
  C101     1.0000 0.58104  0.43770  0.88907  Biso   1.000  C
  C102     1.0000 0.08104  0.93770  0.88907  Biso   1.000  C
  C103     1.0000 0.41896  0.43770  0.61093  Biso   1.000  C
  C104     1.0000 0.91896  0.93770  0.61093  Biso   1.000  C
  C105     1.0000 0.41734  0.43580  0.15193  Biso   1.000  C
  C106     1.0000 0.91734  0.93580  0.15193  Biso   1.000  C
  C107     1.0000 0.58266  0.43580  0.34807  Biso   1.000  C
  C108     1.0000 0.08266  0.93580  0.34807  Biso   1.000  C
  C109     1.0000 0.58266  0.56420  0.84807  Biso   1.000  C
  C110     1.0000 0.08266  0.06420  0.84807  Biso   1.000  C
  C111     1.0000 0.41734  0.56420  0.65193  Biso   1.000  C
  C112     1.0000 0.91734  0.06420  0.65193  Biso   1.000  C
  H65      1.0000 0.46380  0.38850  0.16870  Biso   1.000  H
  H66      1.0000 0.96380  0.88850  0.16870  Biso   1.000  H
  H67      1.0000 0.53620  0.38850  0.33130  Biso   1.000  H
  H68      1.0000 0.03620  0.88850  0.33130  Biso   1.000  H
  H69      1.0000 0.53620  0.61150  0.83130  Biso   1.000  H
  H70      1.0000 0.03620  0.11150  0.83130  Biso   1.000  H
  H71      1.0000 0.46380  0.61150  0.66870  Biso   1.000  H
  H72      1.0000 0.96380  0.11150  0.66870  Biso   1.000  H
  H73      1.0000 0.41000  0.46150  0.19340  Biso   1.000  H
  H74      1.0000 0.91000  0.96150  0.19340  Biso   1.000  H
  H75      1.0000 0.59000  0.46150  0.30660  Biso   1.000  H
  H76      1.0000 0.09000  0.96150  0.30660  Biso   1.000  H
  H77      1.0000 0.59000  0.53850  0.80660  Biso   1.000  H
  H78      1.0000 0.09000  0.03850  0.80660  Biso   1.000  H
  H79      1.0000 0.41000  0.53850  0.69340  Biso   1.000  H
  H80      1.0000 0.91000  0.03850  0.69340  Biso   1.000  H
  C113     1.0000 0.35608  0.34220  0.10432  Biso   1.000  C
  C114     1.0000 0.85608  0.84220  0.10432  Biso   1.000  C
  C115     1.0000 0.64392  0.34220  0.39568  Biso   1.000  C
  C116     1.0000 0.14392  0.84220  0.39568  Biso   1.000  C
  C117     1.0000 0.64392  0.65780  0.89568  Biso   1.000  C
  C118     1.0000 0.14392  0.15780  0.89568  Biso   1.000  C
  C119     1.0000 0.35608  0.65780  0.60432  Biso   1.000  C
  C120     1.0000 0.85608  0.15780  0.60432  Biso   1.000  C
  H81      1.0000 0.36530  0.31310  0.06450  Biso   1.000  H
  H82      1.0000 0.86530  0.81310  0.06450  Biso   1.000  H
  H83      1.0000 0.63470  0.31310  0.43550  Biso   1.000  H
  H84      1.0000 0.13470  0.81310  0.43550  Biso   1.000  H
  H85      1.0000 0.63470  0.68690  0.93550  Biso   1.000  H
  H86      1.0000 0.13470  0.18690  0.93550  Biso   1.000  H
  H87      1.0000 0.36530  0.68690  0.56450  Biso   1.000  H
  H88      1.0000 0.86530  0.18690  0.56450  Biso   1.000  H
  H89      1.0000 0.31040  0.39250  0.08490  Biso   1.000  H
  H90      1.0000 0.81040  0.89250  0.08490  Biso   1.000  H
  H91      1.0000 0.68960  0.39250  0.41510  Biso   1.000  H
  H92      1.0000 0.18960  0.89250  0.41510  Biso   1.000  H
  H93      1.0000 0.68960  0.60750  0.91510  Biso   1.000  H
  H94      1.0000 0.18960  0.10750  0.91510  Biso   1.000  H
  H95      1.0000 0.31040  0.60750  0.58490  Biso   1.000  H
  H96      1.0000 0.81040  0.10750  0.58490  Biso   1.000  H
  C121     1.0000 0.34803  0.21716  0.14340  Biso   1.000  C
  C122     1.0000 0.84803  0.71716  0.14340  Biso   1.000  C
  C123     1.0000 0.65197  0.21716  0.35660  Biso   1.000  C
  C124     1.0000 0.15197  0.71716  0.35660  Biso   1.000  C
  C125     1.0000 0.65197  0.78284  0.85660  Biso   1.000  C
  C126     1.0000 0.15197  0.28284  0.85660  Biso   1.000  C
  C127     1.0000 0.34803  0.78284  0.64340  Biso   1.000  C
  C128     1.0000 0.84803  0.28284  0.64340  Biso   1.000  C
  H97      1.0000 0.39360  0.16660  0.16260  Biso   1.000  H
  H98      1.0000 0.89360  0.66660  0.16260  Biso   1.000  H
  H99      1.0000 0.60640  0.16660  0.33740  Biso   1.000  H
  H100     1.0000 0.10640  0.66660  0.33740  Biso   1.000  H
  H101     1.0000 0.60640  0.83340  0.83740  Biso   1.000  H
  H102     1.0000 0.10640  0.33340  0.83740  Biso   1.000  H
  H103     1.0000 0.39360  0.83340  0.66260  Biso   1.000  H
  H104     1.0000 0.89360  0.33340  0.66260  Biso   1.000  H
  H105     1.0000 0.33900  0.24620  0.18330  Biso   1.000  H
  H106     1.0000 0.83900  0.74620  0.18330  Biso   1.000  H
  H107     1.0000 0.66100  0.24620  0.31670  Biso   1.000  H
  H108     1.0000 0.16100  0.74620  0.31670  Biso   1.000  H
  H109     1.0000 0.66100  0.75380  0.81670  Biso   1.000  H
  H110     1.0000 0.16100  0.25380  0.81670  Biso   1.000  H
  H111     1.0000 0.33900  0.75380  0.68330  Biso   1.000  H
  H112     1.0000 0.83900  0.25380  0.68330  Biso   1.000  H
  C129     1.0000 0.28624  0.12380  0.09539  Biso   1.000  C
  C130     1.0000 0.78624  0.62380  0.09539  Biso   1.000  C
  C131     1.0000 0.71376  0.12380  0.40461  Biso   1.000  C
  C132     1.0000 0.21376  0.62380  0.40461  Biso   1.000  C
  C133     1.0000 0.71376  0.87620  0.90461  Biso   1.000  C
  C134     1.0000 0.21376  0.37620  0.90461  Biso   1.000  C
  C135     1.0000 0.28624  0.87620  0.59539  Biso   1.000  C
  C136     1.0000 0.78624  0.37620  0.59539  Biso   1.000  C
  H113     1.0000 0.24100  0.17540  0.07470  Biso   1.000  H
  H114     1.0000 0.74100  0.67540  0.07470  Biso   1.000  H
  H115     1.0000 0.75900  0.17540  0.42530  Biso   1.000  H
  H116     1.0000 0.25900  0.67540  0.42530  Biso   1.000  H
  H117     1.0000 0.75900  0.82460  0.92530  Biso   1.000  H
  H118     1.0000 0.25900  0.32460  0.92530  Biso   1.000  H
  H119     1.0000 0.24100  0.82460  0.57470  Biso   1.000  H
  H120     1.0000 0.74100  0.32460  0.57470  Biso   1.000  H
  H121     1.0000 0.29630  0.09210  0.05650  Biso   1.000  H
  H122     1.0000 0.79630  0.59210  0.05650  Biso   1.000  H
  H123     1.0000 0.70370  0.09210  0.44350  Biso   1.000  H
  H124     1.0000 0.20370  0.59210  0.44350  Biso   1.000  H
  H125     1.0000 0.70370  0.90790  0.94350  Biso   1.000  H
  H126     1.0000 0.20370  0.40790  0.94350  Biso   1.000  H
  H127     1.0000 0.29630  0.90790  0.55650  Biso   1.000  H
  H128     1.0000 0.79630  0.40790  0.55650  Biso   1.000  H
  C137     1.0000 0.27607  0.00200  0.13461  Biso   1.000  C
  C138     1.0000 0.77607  0.50200  0.13461  Biso   1.000  C
  C139     1.0000 0.72393  0.00200  0.36539  Biso   1.000  C
  C140     1.0000 0.22393  0.50200  0.36539  Biso   1.000  C
  C141     1.0000 0.72393  0.99800  0.86539  Biso   1.000  C
  C142     1.0000 0.22393  0.49800  0.86539  Biso   1.000  C
  C143     1.0000 0.27607  0.99800  0.63461  Biso   1.000  C
  C144     1.0000 0.77607  0.49800  0.63461  Biso   1.000  C
  H129     1.0000 0.32220  0.95380  0.15810  Biso   1.000  H
  H130     1.0000 0.82220  0.45380  0.15810  Biso   1.000  H
  H131     1.0000 0.67780  0.95380  0.34190  Biso   1.000  H
  H132     1.0000 0.17780  0.45380  0.34190  Biso   1.000  H
  H133     1.0000 0.67780  0.04620  0.84190  Biso   1.000  H
  H134     1.0000 0.17780  0.54620  0.84190  Biso   1.000  H
  H135     1.0000 0.32220  0.04620  0.65810  Biso   1.000  H
  H136     1.0000 0.82220  0.54620  0.65810  Biso   1.000  H
  H137     1.0000 0.26260  0.03340  0.17140  Biso   1.000  H
  H138     1.0000 0.76260  0.53340  0.17140  Biso   1.000  H
  H139     1.0000 0.73740  0.03340  0.32860  Biso   1.000  H
  H140     1.0000 0.23740  0.53340  0.32860  Biso   1.000  H
  H141     1.0000 0.73740  0.96660  0.82860  Biso   1.000  H
  H142     1.0000 0.23740  0.46660  0.82860  Biso   1.000  H
  H143     1.0000 0.26260  0.96660  0.67140  Biso   1.000  H
  H144     1.0000 0.76260  0.46660  0.67140  Biso   1.000  H
  C145     1.0000 0.21812  0.90510  0.08550  Biso   1.000  C
  C146     1.0000 0.71812  0.40510  0.08550  Biso   1.000  C
  C147     1.0000 0.78188  0.90510  0.41450  Biso   1.000  C
  C148     1.0000 0.28188  0.40510  0.41450  Biso   1.000  C
  C149     1.0000 0.78188  0.09490  0.91450  Biso   1.000  C
  C150     1.0000 0.28188  0.59490  0.91450  Biso   1.000  C
  C151     1.0000 0.21812  0.09490  0.58550  Biso   1.000  C
  C152     1.0000 0.71812  0.59490  0.58550  Biso   1.000  C
  O17      1.0000 0.16105  0.88630  0.09024  Biso   1.000  O
  O18      1.0000 0.66105  0.38630  0.09024  Biso   1.000  O
  O19      1.0000 0.83895  0.88630  0.40976  Biso   1.000  O
  O20      1.0000 0.33895  0.38630  0.40976  Biso   1.000  O
  O21      1.0000 0.83895  0.11370  0.90976  Biso   1.000  O
  O22      1.0000 0.33895  0.61370  0.90976  Biso   1.000  O
  O23      1.0000 0.16105  0.11370  0.59024  Biso   1.000  O
  O24      1.0000 0.66105  0.61370  0.59024  Biso   1.000  O
  O25      1.0000 0.23358  0.84285  0.03965  Biso   1.000  O
  O26      1.0000 0.73358  0.34285  0.03965  Biso   1.000  O
  O27      1.0000 0.76642  0.84285  0.46035  Biso   1.000  O
  O28      1.0000 0.26642  0.34285  0.46035  Biso   1.000  O
  O29      1.0000 0.76642  0.15715  0.96035  Biso   1.000  O
  O30      1.0000 0.26642  0.65715  0.96035  Biso   1.000  O
  O31      1.0000 0.23358  0.15715  0.53965  Biso   1.000  O
  O32      1.0000 0.73358  0.65715  0.53965  Biso   1.000  O
  O33      1.0000 0.10181  0.98360  0.17520  Biso   1.000  O
  O34      1.0000 0.60181  0.48360  0.17520  Biso   1.000  O
  O35      1.0000 0.89819  0.98360  0.32480  Biso   1.000  O
  O36      1.0000 0.39819  0.48360  0.32480  Biso   1.000  O
  O37      1.0000 0.89819  0.01640  0.82480  Biso   1.000  O
  O38      1.0000 0.39819  0.51640  0.82480  Biso   1.000  O
  O39      1.0000 0.10181  0.01640  0.67520  Biso   1.000  O
  O40      1.0000 0.60181  0.51640  0.67520  Biso   1.000  O
  O41      1.0000 0.38213  0.72250  0.24175  Biso   1.000  O
  O42      1.0000 0.88213  0.22250  0.24175  Biso   1.000  O
  O43      1.0000 0.61787  0.72250  0.25825  Biso   1.000  O
  O44      1.0000 0.11787  0.22250  0.25825  Biso   1.000  O
  O45      1.0000 0.61787  0.27750  0.75825  Biso   1.000  O
  O46      1.0000 0.11787  0.77750  0.75825  Biso   1.000  O
  O47      1.0000 0.38213  0.27750  0.74175  Biso   1.000  O
  O48      1.0000 0.88213  0.77750  0.74175  Biso   1.000  O
  H145     1.0000 0.05650  0.98770  0.14590  Biso   1.000  H
  H146     1.0000 0.55650  0.48770  0.14590  Biso   1.000  H
  H147     1.0000 0.94350  0.98770  0.35410  Biso   1.000  H
  H148     1.0000 0.44350  0.48770  0.35410  Biso   1.000  H
  H149     1.0000 0.94350  0.01230  0.85410  Biso   1.000  H
  H150     1.0000 0.44350  0.51230  0.85410  Biso   1.000  H
  H151     1.0000 0.05650  0.01230  0.64590  Biso   1.000  H
  H152     1.0000 0.55650  0.51230  0.64590  Biso   1.000  H
  H153     1.0000 0.12480  0.95100  0.15250  Biso   1.000  H
  H154     1.0000 0.62480  0.45100  0.15250  Biso   1.000  H
  H155     1.0000 0.87520  0.95100  0.34750  Biso   1.000  H
  H156     1.0000 0.37520  0.45100  0.34750  Biso   1.000  H
  H157     1.0000 0.87520  0.04900  0.84750  Biso   1.000  H
  H158     1.0000 0.37520  0.54900  0.84750  Biso   1.000  H
  H159     1.0000 0.12480  0.04900  0.65250  Biso   1.000  H
  H160     1.0000 0.62480  0.54900  0.65250  Biso   1.000  H
  H161     1.0000 0.37850  0.65060  0.26190  Biso   1.000  H
  H162     1.0000 0.87850  0.15060  0.26190  Biso   1.000  H
  H163     1.0000 0.62150  0.65060  0.23810  Biso   1.000  H
  H164     1.0000 0.12150  0.15060  0.23810  Biso   1.000  H
  H165     1.0000 0.62150  0.34940  0.73810  Biso   1.000  H
  H166     1.0000 0.12150  0.84940  0.73810  Biso   1.000  H
  H167     1.0000 0.37850  0.34940  0.76190  Biso   1.000  H
  H168     1.0000 0.87850  0.84940  0.76190  Biso   1.000  H
  H169     1.0000 0.38330  0.70270  0.20230  Biso   1.000  H
  H170     1.0000 0.88330  0.20270  0.20230  Biso   1.000  H
  H171     1.0000 0.61670  0.70270  0.29770  Biso   1.000  H
  H172     1.0000 0.11670  0.20270  0.29770  Biso   1.000  H
  H173     1.0000 0.61670  0.29730  0.79770  Biso   1.000  H
  H174     1.0000 0.11670  0.79730  0.79770  Biso   1.000  H
  H175     1.0000 0.38330  0.29730  0.70230  Biso   1.000  H
  H176     1.0000 0.88330  0.79730  0.70230  Biso   1.000  H
