data_image0
_cell_length_a       10.124
_cell_length_b       10.658
_cell_length_c       10.847
_cell_angle_alpha    111.36
_cell_angle_beta     115.27
_cell_angle_gamma    93.8

_symmetry_space_group_name_H-M    "P 1"
_symmetry_int_tables_number       1

loop_
  _symmetry_equiv_pos_as_xyz
  'x, y, z'

loop_
  _atom_site_label
  _atom_site_occupancy
  _atom_site_fract_x
  _atom_site_fract_y
  _atom_site_fract_z
  _atom_site_thermal_displace_type
  _atom_site_B_iso_or_equiv
  _atom_site_type_symbol
  Cu1      1.0000 0.57325  0.55239  0.69315  Biso   1.000  Cu
  Cu2      1.0000 0.42675  0.44761  0.30685  Biso   1.000  Cu
  N1       1.0000 0.52990  0.66900  0.86010  Biso   1.000  N
  N2       1.0000 0.47010  0.33100  0.13990  Biso   1.000  N
  N3       1.0000 0.41740  0.40220  0.66870  Biso   1.000  N
  N4       1.0000 0.58260  0.59780  0.33130  Biso   1.000  N
  C1       1.0000 0.59080  0.80300  0.95670  Biso   1.000  C
  C2       1.0000 0.40920  0.19700  0.04330  Biso   1.000  C
  H1       1.0000 0.66270  0.85550  0.95040  Biso   1.000  H
  H2       1.0000 0.33730  0.14450  0.04960  Biso   1.000  H
  C3       1.0000 0.54970  0.86780  0.06800  Biso   1.000  C
  C4       1.0000 0.45030  0.13220  0.93200  Biso   1.000  C
  H3       1.0000 0.59540  0.96170  0.13480  Biso   1.000  H
  H4       1.0000 0.40460  0.03830  0.86520  Biso   1.000  H
  C5       1.0000 0.44410  0.79460  0.07900  Biso   1.000  C
  C6       1.0000 0.55590  0.20540  0.92100  Biso   1.000  C
  H5       1.0000 0.41620  0.83780  0.15220  Biso   1.000  H
  H6       1.0000 0.58380  0.16220  0.84780  Biso   1.000  H
  C7       1.0000 0.37700  0.65210  0.97810  Biso   1.000  C
  C8       1.0000 0.62300  0.34790  0.02190  Biso   1.000  C
  C9       1.0000 0.26350  0.56530  0.97800  Biso   1.000  C
  C10      1.0000 0.73650  0.43470  0.02200  Biso   1.000  C
  H7       1.0000 0.23070  0.60270  0.04840  Biso   1.000  H
  H8       1.0000 0.76930  0.39730  0.95160  Biso   1.000  H
  C11      1.0000 0.20320  0.43010  0.87760  Biso   1.000  C
  C12      1.0000 0.79680  0.56990  0.12240  Biso   1.000  C
  H9       1.0000 0.12920  0.37580  0.87980  Biso   1.000  H
  H10      1.0000 0.87080  0.62420  0.12020  Biso   1.000  H
  C13      1.0000 0.25030  0.36780  0.76730  Biso   1.000  C
  C14      1.0000 0.74970  0.63220  0.23270  Biso   1.000  C
  C15      1.0000 0.19490  0.22600  0.66090  Biso   1.000  C
  C16      1.0000 0.80510  0.77400  0.33910  Biso   1.000  C
  H11      1.0000 0.12050  0.16610  0.65690  Biso   1.000  H
  H12      1.0000 0.87950  0.83390  0.34310  Biso   1.000  H
  C17      1.0000 0.25140  0.17840  0.56500  Biso   1.000  C
  C18      1.0000 0.74860  0.82160  0.43500  Biso   1.000  C
  H13      1.0000 0.21570  0.08520  0.49470  Biso   1.000  H
  H14      1.0000 0.78430  0.91480  0.50530  Biso   1.000  H
  C19      1.0000 0.36380  0.26900  0.57100  Biso   1.000  C
  C20      1.0000 0.63620  0.73100  0.42900  Biso   1.000  C
  H15      1.0000 0.40150  0.23410  0.50430  Biso   1.000  H
  H16      1.0000 0.59850  0.76590  0.49570  Biso   1.000  H
  C21      1.0000 0.36220  0.45030  0.76520  Biso   1.000  C
  C22      1.0000 0.63780  0.54970  0.23480  Biso   1.000  C
  C23      1.0000 0.42470  0.59540  0.87100  Biso   1.000  C
  C24      1.0000 0.57530  0.40460  0.12900  Biso   1.000  C
  O1       1.0000 0.72870  0.70160  0.73550  Biso   1.000  O
  O2       1.0000 0.27130  0.29840  0.26450  Biso   1.000  O
  O3       1.0000 0.89050  0.72620  0.96160  Biso   1.000  O
  O4       1.0000 0.10950  0.27380  0.03840  Biso   1.000  O
  C25      1.0000 0.86160  0.74280  0.84900  Biso   1.000  C
  C26      1.0000 0.13840  0.25720  0.15100  Biso   1.000  C
  C27      1.0000 0.98380  0.81550  0.83390  Biso   1.000  C
  C28      1.0000 0.01620  0.18450  0.16610  Biso   1.000  C
  H17      1.0000 0.95340  0.89080  0.80810  Biso   1.000  H
  H18      1.0000 0.04660  0.10920  0.19190  Biso   1.000  H
  H19      1.0000 0.07690  0.85570  0.93010  Biso   1.000  H
  H20      1.0000 0.92310  0.14430  0.06990  Biso   1.000  H
  C29      1.0000 0.01170  0.71420  0.71300  Biso   1.000  C
  C30      1.0000 0.98830  0.28580  0.28700  Biso   1.000  C
  H21      1.0000 0.04100  0.63870  0.73900  Biso   1.000  H
  H22      1.0000 0.95900  0.36130  0.26100  Biso   1.000  H
  H23      1.0000 0.91800  0.67410  0.61740  Biso   1.000  H
  H24      1.0000 0.08200  0.32590  0.38260  Biso   1.000  H
  C31      1.0000 0.13290  0.78120  0.69340  Biso   1.000  C
  C32      1.0000 0.86710  0.21880  0.30660  Biso   1.000  C
  H25      1.0000 0.22700  0.81930  0.78840  Biso   1.000  H
  H26      1.0000 0.77300  0.18070  0.21160  Biso   1.000  H
  H27      1.0000 0.10470  0.85830  0.67020  Biso   1.000  H
  H28      1.0000 0.89530  0.14170  0.32980  Biso   1.000  H
  C33      1.0000 0.15970  0.68190  0.56970  Biso   1.000  C
  C34      1.0000 0.84030  0.31810  0.43030  Biso   1.000  C
  H29      1.0000 0.06610  0.64410  0.47410  Biso   1.000  H
  H30      1.0000 0.93390  0.35590  0.52590  Biso   1.000  H
  H31      1.0000 0.18830  0.60470  0.59250  Biso   1.000  H
  H32      1.0000 0.81170  0.39530  0.40750  Biso   1.000  H
  C35      1.0000 0.28310  0.75330  0.55360  Biso   1.000  C
  C36      1.0000 0.71690  0.24670  0.44640  Biso   1.000  C
  H33      1.0000 0.25350  0.82920  0.52840  Biso   1.000  H
  H34      1.0000 0.74650  0.17080  0.47160  Biso   1.000  H
  H35      1.0000 0.37620  0.79300  0.64970  Biso   1.000  H
  H36      1.0000 0.62380  0.20700  0.35030  Biso   1.000  H
  C37      1.0000 0.31120  0.65320  0.43300  Biso   1.000  C
  C38      1.0000 0.68880  0.34680  0.56700  Biso   1.000  C
  O5       1.0000 0.25150  0.64540  0.30380  Biso   1.000  O
  O6       1.0000 0.74850  0.35460  0.69620  Biso   1.000  O
  O7       1.0000 0.39740  0.57620  0.47120  Biso   1.000  O
  O8       1.0000 0.60260  0.42380  0.52880  Biso   1.000  O
  O9       1.0000 0.86810  0.14320  0.75070  Biso   1.000  O
  O10      1.0000 0.13190  0.85680  0.24930  Biso   1.000  O
  O11      1.0000 0.36000  0.03890  0.27130  Biso   1.000  O
  O12      1.0000 0.64000  0.96110  0.72870  Biso   1.000  O
  H37      1.0000 0.82640  0.19820  0.75460  Biso   1.000  H
  H38      1.0000 0.17360  0.80180  0.24540  Biso   1.000  H
  H39      1.0000 0.92740  0.17360  0.84770  Biso   1.000  H
  H40      1.0000 0.07260  0.82640  0.15230  Biso   1.000  H
  H41      1.0000 0.28520  0.98250  0.25950  Biso   1.000  H
  H42      1.0000 0.71480  0.01750  0.74050  Biso   1.000  H
  H43      1.0000 0.29510  0.08970  0.25510  Biso   1.000  H
  H44      1.0000 0.70490  0.91030  0.74490  Biso   1.000  H
