data_image0
_cell_length_a       9.5843
_cell_length_b       17.8784
_cell_length_c       10.6912
_cell_angle_alpha    90
_cell_angle_beta     93.094
_cell_angle_gamma    90

_symmetry_space_group_name_H-M    "P 1"
_symmetry_int_tables_number       1

loop_
  _symmetry_equiv_pos_as_xyz
  'x, y, z'

loop_
  _atom_site_label
  _atom_site_occupancy
  _atom_site_fract_x
  _atom_site_fract_y
  _atom_site_fract_z
  _atom_site_thermal_displace_type
  _atom_site_B_iso_or_equiv
  _atom_site_type_symbol
  Cu1      1.0000 0.56301  0.83283  0.66350  Biso   1.000  Cu
  Cu2      1.0000 0.93699  0.33283  0.83650  Biso   1.000  Cu
  Cu3      1.0000 0.43699  0.16717  0.33650  Biso   1.000  Cu
  Cu4      1.0000 0.06301  0.66717  0.16350  Biso   1.000  Cu
  S1       1.0000 0.36977  0.86929  0.93176  Biso   1.000  S
  S2       1.0000 0.13023  0.36929  0.56824  Biso   1.000  S
  S3       1.0000 0.63023  0.13071  0.06824  Biso   1.000  S
  S4       1.0000 0.86977  0.63071  0.43176  Biso   1.000  S
  N1       1.0000 0.49790  0.72707  0.64007  Biso   1.000  N
  N2       1.0000 0.00210  0.22707  0.85993  Biso   1.000  N
  N3       1.0000 0.50210  0.27293  0.35993  Biso   1.000  N
  N4       1.0000 0.99790  0.77293  0.14007  Biso   1.000  N
  N5       1.0000 0.37230  0.85285  0.58447  Biso   1.000  N
  N6       1.0000 0.12770  0.35285  0.91553  Biso   1.000  N
  N7       1.0000 0.62770  0.14715  0.41553  Biso   1.000  N
  N8       1.0000 0.87230  0.64715  0.08447  Biso   1.000  N
  O1       1.0000 0.74982  0.80106  0.72584  Biso   1.000  O
  O2       1.0000 0.75018  0.30106  0.77416  Biso   1.000  O
  O3       1.0000 0.25018  0.19894  0.27416  Biso   1.000  O
  O4       1.0000 0.24982  0.69894  0.22584  Biso   1.000  O
  O5       1.0000 0.87150  0.90663  0.70650  Biso   1.000  O
  O6       1.0000 0.62850  0.40663  0.79350  Biso   1.000  O
  O7       1.0000 0.12850  0.09337  0.29350  Biso   1.000  O
  O8       1.0000 0.37150  0.59337  0.20650  Biso   1.000  O
  O9       1.0000 0.39500  0.85464  0.06382  Biso   1.000  O
  O10      1.0000 0.10500  0.35464  0.43618  Biso   1.000  O
  O11      1.0000 0.60500  0.14536  0.93618  Biso   1.000  O
  O12      1.0000 0.89500  0.64536  0.56382  Biso   1.000  O
  O13      1.0000 0.33012  0.94542  0.90350  Biso   1.000  O
  O14      1.0000 0.16988  0.44542  0.59650  Biso   1.000  O
  O15      1.0000 0.66988  0.05458  0.09650  Biso   1.000  O
  O16      1.0000 0.83012  0.55458  0.40350  Biso   1.000  O
  O17      1.0000 0.48650  0.84350  0.86174  Biso   1.000  O
  O18      1.0000 0.01350  0.34350  0.63826  Biso   1.000  O
  O19      1.0000 0.51350  0.15650  0.13826  Biso   1.000  O
  O20      1.0000 0.98650  0.65650  0.36174  Biso   1.000  O
  O21      1.0000 0.62155  0.93645  0.63843  Biso   1.000  O
  O22      1.0000 0.87845  0.43645  0.86157  Biso   1.000  O
  O23      1.0000 0.37845  0.06355  0.36157  Biso   1.000  O
  O24      1.0000 0.12155  0.56355  0.13843  Biso   1.000  O
  O25      1.0000 0.49520  0.03623  0.77158  Biso   1.000  O
  O26      1.0000 0.00480  0.53623  0.72842  Biso   1.000  O
  O27      1.0000 0.50480  0.96377  0.22842  Biso   1.000  O
  O28      1.0000 0.99520  0.46377  0.27158  Biso   1.000  O
  C1       1.0000 0.57340  0.66601  0.66670  Biso   1.000  C
  C2       1.0000 0.92660  0.16601  0.83330  Biso   1.000  C
  C3       1.0000 0.42660  0.33399  0.33330  Biso   1.000  C
  C4       1.0000 0.07340  0.83399  0.16670  Biso   1.000  C
  H1       1.0000 0.66540  0.67130  0.69780  Biso   1.000  H
  H2       1.0000 0.83460  0.17130  0.80220  Biso   1.000  H
  H3       1.0000 0.33460  0.32870  0.30220  Biso   1.000  H
  H4       1.0000 0.16540  0.82870  0.19780  Biso   1.000  H
  C5       1.0000 0.51890  0.59512  0.64950  Biso   1.000  C
  C6       1.0000 0.98110  0.09512  0.85050  Biso   1.000  C
  C7       1.0000 0.48110  0.40488  0.35050  Biso   1.000  C
  C8       1.0000 0.01890  0.90488  0.14950  Biso   1.000  C
  H5       1.0000 0.57320  0.55310  0.66860  Biso   1.000  H
  H6       1.0000 0.92680  0.05310  0.83140  Biso   1.000  H
  H7       1.0000 0.42680  0.44690  0.33140  Biso   1.000  H
  H8       1.0000 0.07320  0.94690  0.16860  Biso   1.000  H
  C9       1.0000 0.38290  0.58757  0.60350  Biso   1.000  C
  C10      1.0000 0.11710  0.08757  0.89650  Biso   1.000  C
  C11      1.0000 0.61710  0.41243  0.39650  Biso   1.000  C
  C12      1.0000 0.88290  0.91243  0.10350  Biso   1.000  C
  H9       1.0000 0.34410  0.54020  0.59190  Biso   1.000  H
  H10      1.0000 0.15590  0.04020  0.90810  Biso   1.000  H
  H11      1.0000 0.65590  0.45980  0.40810  Biso   1.000  H
  H12      1.0000 0.84410  0.95980  0.09190  Biso   1.000  H
  C13      1.0000 0.30450  0.65030  0.57480  Biso   1.000  C
  C14      1.0000 0.19550  0.15030  0.92520  Biso   1.000  C
  C15      1.0000 0.69550  0.34970  0.42520  Biso   1.000  C
  C16      1.0000 0.80450  0.84970  0.07480  Biso   1.000  C
  H13      1.0000 0.21250  0.64590  0.54350  Biso   1.000  H
  H14      1.0000 0.28750  0.14590  0.95650  Biso   1.000  H
  H15      1.0000 0.78750  0.35410  0.45650  Biso   1.000  H
  H16      1.0000 0.71250  0.85410  0.04350  Biso   1.000  H
  C17      1.0000 0.36450  0.72007  0.59320  Biso   1.000  C
  C18      1.0000 0.13550  0.22007  0.90680  Biso   1.000  C
  C19      1.0000 0.63550  0.27993  0.40680  Biso   1.000  C
  C20      1.0000 0.86450  0.77993  0.09320  Biso   1.000  C
  C21      1.0000 0.29360  0.79103  0.56290  Biso   1.000  C
  C22      1.0000 0.20640  0.29103  0.93710  Biso   1.000  C
  C23      1.0000 0.70640  0.20897  0.43710  Biso   1.000  C
  C24      1.0000 0.79360  0.70897  0.06290  Biso   1.000  C
  C25      1.0000 0.15740  0.79643  0.51270  Biso   1.000  C
  C26      1.0000 0.34260  0.29643  0.98730  Biso   1.000  C
  C27      1.0000 0.84260  0.20357  0.48730  Biso   1.000  C
  C28      1.0000 0.65740  0.70357  0.01270  Biso   1.000  C
  H17      1.0000 0.10390  0.75370  0.49780  Biso   1.000  H
  H18      1.0000 0.39610  0.25370  0.00220  Biso   1.000  H
  H19      1.0000 0.89610  0.24630  0.50220  Biso   1.000  H
  H20      1.0000 0.60390  0.74630  0.99780  Biso   1.000  H
  C29      1.0000 0.10280  0.86635  0.48510  Biso   1.000  C
  C30      1.0000 0.39720  0.36635  0.01490  Biso   1.000  C
  C31      1.0000 0.89720  0.13365  0.51490  Biso   1.000  C
  C32      1.0000 0.60280  0.63365  0.98510  Biso   1.000  C
  H21      1.0000 0.01160  0.87100  0.45160  Biso   1.000  H
  H22      1.0000 0.48840  0.37100  0.04840  Biso   1.000  H
  H23      1.0000 0.98840  0.12900  0.54840  Biso   1.000  H
  H24      1.0000 0.51160  0.62900  0.95160  Biso   1.000  H
  C33      1.0000 0.18330  0.92886  0.50730  Biso   1.000  C
  C34      1.0000 0.31670  0.42886  0.99270  Biso   1.000  C
  C35      1.0000 0.81670  0.07114  0.49270  Biso   1.000  C
  C36      1.0000 0.68330  0.57114  0.00730  Biso   1.000  C
  H25      1.0000 0.14760  0.97630  0.48950  Biso   1.000  H
  H26      1.0000 0.35240  0.47630  0.01050  Biso   1.000  H
  H27      1.0000 0.85240  0.02370  0.51050  Biso   1.000  H
  H28      1.0000 0.64760  0.52370  0.98950  Biso   1.000  H
  C37      1.0000 0.31820  0.91991  0.55650  Biso   1.000  C
  C38      1.0000 0.18180  0.41991  0.94350  Biso   1.000  C
  C39      1.0000 0.68180  0.08009  0.44350  Biso   1.000  C
  C40      1.0000 0.81820  0.58009  0.05650  Biso   1.000  C
  H29      1.0000 0.37340  0.96210  0.57060  Biso   1.000  H
  H30      1.0000 0.12660  0.46210  0.92940  Biso   1.000  H
  H31      1.0000 0.62660  0.03790  0.42940  Biso   1.000  H
  H32      1.0000 0.87340  0.53790  0.07060  Biso   1.000  H
  C41      1.0000 0.86030  0.84039  0.73880  Biso   1.000  C
  C42      1.0000 0.63970  0.34039  0.76120  Biso   1.000  C
  C43      1.0000 0.13970  0.15961  0.26120  Biso   1.000  C
  C44      1.0000 0.36030  0.65961  0.23880  Biso   1.000  C
  C45      1.0000 0.98890  0.80234  0.79550  Biso   1.000  C
  C46      1.0000 0.51110  0.30234  0.70450  Biso   1.000  C
  C47      1.0000 0.01110  0.19766  0.20450  Biso   1.000  C
  C48      1.0000 0.48890  0.69766  0.29550  Biso   1.000  C
  C49      1.0000 0.10430  0.84650  0.83050  Biso   1.000  C
  C50      1.0000 0.39570  0.34650  0.66950  Biso   1.000  C
  C51      1.0000 0.89570  0.15350  0.16950  Biso   1.000  C
  C52      1.0000 0.60430  0.65350  0.33050  Biso   1.000  C
  H33      1.0000 0.10060  0.89800  0.81870  Biso   1.000  H
  H34      1.0000 0.39940  0.39800  0.68130  Biso   1.000  H
  H35      1.0000 0.89940  0.10200  0.18130  Biso   1.000  H
  H36      1.0000 0.60060  0.60200  0.31870  Biso   1.000  H
  C53      1.0000 0.22400  0.81361  0.88270  Biso   1.000  C
  C54      1.0000 0.27600  0.31361  0.61730  Biso   1.000  C
  C55      1.0000 0.77600  0.18639  0.11730  Biso   1.000  C
  C56      1.0000 0.72400  0.68639  0.38270  Biso   1.000  C
  C57      1.0000 0.23100  0.73644  0.89950  Biso   1.000  C
  C58      1.0000 0.26900  0.23644  0.60050  Biso   1.000  C
  C59      1.0000 0.76900  0.26356  0.10050  Biso   1.000  C
  C60      1.0000 0.73100  0.76356  0.39950  Biso   1.000  C
  H37      1.0000 0.31180  0.71450  0.93490  Biso   1.000  H
  H38      1.0000 0.18820  0.21450  0.56510  Biso   1.000  H
  H39      1.0000 0.68820  0.28550  0.06510  Biso   1.000  H
  H40      1.0000 0.81180  0.78550  0.43490  Biso   1.000  H
  C61      1.0000 0.11680  0.69248  0.86320  Biso   1.000  C
  C62      1.0000 0.38320  0.19248  0.63680  Biso   1.000  C
  C63      1.0000 0.88320  0.30752  0.13680  Biso   1.000  C
  C64      1.0000 0.61680  0.80752  0.36320  Biso   1.000  C
  H41      1.0000 0.12120  0.64080  0.87280  Biso   1.000  H
  H42      1.0000 0.37880  0.14080  0.62720  Biso   1.000  H
  H43      1.0000 0.87880  0.35920  0.12720  Biso   1.000  H
  H44      1.0000 0.62120  0.85920  0.37280  Biso   1.000  H
  C65      1.0000 0.99600  0.72586  0.81240  Biso   1.000  C
  C66      1.0000 0.50400  0.22586  0.68760  Biso   1.000  C
  C67      1.0000 0.00400  0.27414  0.18760  Biso   1.000  C
  C68      1.0000 0.49600  0.77414  0.31240  Biso   1.000  C
  H45      1.0000 0.91890  0.69640  0.78940  Biso   1.000  H
  H46      1.0000 0.58110  0.19640  0.71060  Biso   1.000  H
  H47      1.0000 0.08110  0.30360  0.21060  Biso   1.000  H
  H48      1.0000 0.41890  0.80360  0.28940  Biso   1.000  H
  H49      1.0000 0.70850  0.92900  0.66000  Biso   1.000  H
  H50      1.0000 0.79150  0.42900  0.84000  Biso   1.000  H
  H51      1.0000 0.29150  0.07100  0.34000  Biso   1.000  H
  H52      1.0000 0.20850  0.57100  0.16000  Biso   1.000  H
  H53      1.0000 0.59600  0.97230  0.68200  Biso   1.000  H
  H54      1.0000 0.90400  0.47230  0.81800  Biso   1.000  H
  H55      1.0000 0.40400  0.02770  0.31800  Biso   1.000  H
  H56      1.0000 0.09600  0.52770  0.18200  Biso   1.000  H
  H57      1.0000 0.54300  0.06750  0.81700  Biso   1.000  H
  H58      1.0000 0.95700  0.56750  0.68300  Biso   1.000  H
  H59      1.0000 0.45700  0.93250  0.18300  Biso   1.000  H
  H60      1.0000 0.04300  0.43250  0.31700  Biso   1.000  H
  H61      1.0000 0.43200  0.02030  0.82000  Biso   1.000  H
  H62      1.0000 0.06800  0.52030  0.68000  Biso   1.000  H
  H63      1.0000 0.56800  0.97970  0.18000  Biso   1.000  H
  H64      1.0000 0.93200  0.47970  0.32000  Biso   1.000  H
