data_image0
_cell_length_a       15.274
_cell_length_b       16.975
_cell_length_c       19.316
_cell_angle_alpha    90
_cell_angle_beta     112.096
_cell_angle_gamma    90

_symmetry_space_group_name_H-M    "P 1"
_symmetry_int_tables_number       1

loop_
  _symmetry_equiv_pos_as_xyz
  'x, y, z'

loop_
  _atom_site_label
  _atom_site_occupancy
  _atom_site_fract_x
  _atom_site_fract_y
  _atom_site_fract_z
  _atom_site_thermal_displace_type
  _atom_site_B_iso_or_equiv
  _atom_site_type_symbol
  Cu1      1.0000 0.80044  0.21035  0.08724  Biso   1.000  Cu
  Cu2      1.0000 0.69956  0.71035  0.41276  Biso   1.000  Cu
  Cu3      1.0000 0.19956  0.78965  0.91276  Biso   1.000  Cu
  Cu4      1.0000 0.30044  0.28965  0.58724  Biso   1.000  Cu
  Cu5      1.0000 0.73066  0.27371  0.85649  Biso   1.000  Cu
  Cu6      1.0000 0.76934  0.77371  0.64351  Biso   1.000  Cu
  Cu7      1.0000 0.26934  0.72629  0.14351  Biso   1.000  Cu
  Cu8      1.0000 0.23066  0.22629  0.35649  Biso   1.000  Cu
  O1       1.0000 0.88790  0.14060  0.06290  Biso   1.000  O
  O2       1.0000 0.61210  0.64060  0.43710  Biso   1.000  O
  O3       1.0000 0.11210  0.85940  0.93710  Biso   1.000  O
  O4       1.0000 0.38790  0.35940  0.56290  Biso   1.000  O
  O5       1.0000 0.82670  0.19770  0.95290  Biso   1.000  O
  O6       1.0000 0.67330  0.69770  0.54710  Biso   1.000  O
  O7       1.0000 0.17330  0.80230  0.04710  Biso   1.000  O
  O8       1.0000 0.32670  0.30230  0.45290  Biso   1.000  O
  O9       1.0000 0.21590  0.08560  0.93930  Biso   1.000  O
  O10      1.0000 0.28410  0.58560  0.56070  Biso   1.000  O
  O11      1.0000 0.78410  0.91440  0.06070  Biso   1.000  O
  O12      1.0000 0.71590  0.41440  0.43930  Biso   1.000  O
  O13      1.0000 0.35460  0.28960  0.72400  Biso   1.000  O
  O14      1.0000 0.14540  0.78960  0.77600  Biso   1.000  O
  O15      1.0000 0.64540  0.71040  0.27600  Biso   1.000  O
  O16      1.0000 0.85460  0.21040  0.22400  Biso   1.000  O
  O17      1.0000 0.23910  0.22360  0.64030  Biso   1.000  O
  O18      1.0000 0.26090  0.72360  0.85970  Biso   1.000  O
  O19      1.0000 0.76090  0.77640  0.35970  Biso   1.000  O
  O20      1.0000 0.73910  0.27640  0.14030  Biso   1.000  O
  O21      1.0000 0.78790  0.23940  0.78700  Biso   1.000  O
  O22      1.0000 0.71210  0.73940  0.71300  Biso   1.000  O
  O23      1.0000 0.21210  0.76060  0.21300  Biso   1.000  O
  O24      1.0000 0.28790  0.26060  0.28700  Biso   1.000  O
  O25      1.0000 0.70230  0.31730  0.69620  Biso   1.000  O
  O26      1.0000 0.79770  0.81730  0.80380  Biso   1.000  O
  O27      1.0000 0.29770  0.68270  0.30380  Biso   1.000  O
  O28      1.0000 0.20230  0.18270  0.19620  Biso   1.000  O
  O29      1.0000 0.83420  0.06330  0.51490  Biso   1.000  O
  O30      1.0000 0.66580  0.56330  0.98510  Biso   1.000  O
  O31      1.0000 0.16580  0.93670  0.48510  Biso   1.000  O
  O32      1.0000 0.33420  0.43670  0.01490  Biso   1.000  O
  O33      1.0000 0.08060  0.12510  0.31910  Biso   1.000  O
  O34      1.0000 0.41940  0.62510  0.18090  Biso   1.000  O
  O35      1.0000 0.91940  0.87490  0.68090  Biso   1.000  O
  O36      1.0000 0.58060  0.37490  0.81910  Biso   1.000  O
  O37      1.0000 0.16470  0.19190  0.42090  Biso   1.000  O
  O38      1.0000 0.33530  0.69190  0.07910  Biso   1.000  O
  O39      1.0000 0.83530  0.80810  0.57910  Biso   1.000  O
  O40      1.0000 0.66470  0.30810  0.92090  Biso   1.000  O
  N1       1.0000 0.88310  0.30240  0.09180  Biso   1.000  N
  N2       1.0000 0.61690  0.80240  0.40820  Biso   1.000  N
  N3       1.0000 0.11690  0.69760  0.90820  Biso   1.000  N
  N4       1.0000 0.38310  0.19760  0.59180  Biso   1.000  N
  N5       1.0000 0.17820  0.63390  0.11610  Biso   1.000  N
  N6       1.0000 0.32180  0.13390  0.38390  Biso   1.000  N
  N7       1.0000 0.82180  0.36610  0.88390  Biso   1.000  N
  N8       1.0000 0.67820  0.86610  0.61610  Biso   1.000  N
  N9       1.0000 0.69400  0.13340  0.05680  Biso   1.000  N
  N10      1.0000 0.80600  0.63340  0.44320  Biso   1.000  N
  N11      1.0000 0.30600  0.86660  0.94320  Biso   1.000  N
  N12      1.0000 0.19400  0.36660  0.55680  Biso   1.000  N
  N13      1.0000 0.64520  0.17700  0.82360  Biso   1.000  N
  N14      1.0000 0.85480  0.67700  0.67640  Biso   1.000  N
  N15      1.0000 0.35480  0.82300  0.17640  Biso   1.000  N
  N16      1.0000 0.14520  0.32300  0.32360  Biso   1.000  N
  N17      1.0000 0.39290  0.81500  0.72490  Biso   1.000  N
  N18      1.0000 0.10710  0.31500  0.77510  Biso   1.000  N
  N19      1.0000 0.60710  0.18500  0.27510  Biso   1.000  N
  N20      1.0000 0.89290  0.68500  0.22490  Biso   1.000  N
  C1       1.0000 0.97730  0.29770  0.11790  Biso   1.000  C
  C2       1.0000 0.52270  0.79770  0.38210  Biso   1.000  C
  C3       1.0000 0.02270  0.70230  0.88210  Biso   1.000  C
  C4       1.0000 0.47730  0.20230  0.61790  Biso   1.000  C
  H1       1.0000 0.00540  0.24920  0.13490  Biso   1.000  H
  H2       1.0000 0.49460  0.74920  0.36510  Biso   1.000  H
  H3       1.0000 0.99460  0.75080  0.86510  Biso   1.000  H
  H4       1.0000 0.50540  0.25080  0.63490  Biso   1.000  H
  C5       1.0000 0.03430  0.36060  0.12080  Biso   1.000  C
  C6       1.0000 0.46570  0.86060  0.37920  Biso   1.000  C
  C7       1.0000 0.96570  0.63940  0.87920  Biso   1.000  C
  C8       1.0000 0.53430  0.13940  0.62080  Biso   1.000  C
  H5       1.0000 0.09950  0.35390  0.13850  Biso   1.000  H
  H6       1.0000 0.40050  0.85390  0.36150  Biso   1.000  H
  H7       1.0000 0.90050  0.64610  0.86150  Biso   1.000  H
  H8       1.0000 0.59950  0.14610  0.63850  Biso   1.000  H
  C9       1.0000 0.99510  0.43560  0.09720  Biso   1.000  C
  C10      1.0000 0.50490  0.93560  0.40280  Biso   1.000  C
  C11      1.0000 0.00490  0.56440  0.90280  Biso   1.000  C
  C12      1.0000 0.49510  0.06440  0.59720  Biso   1.000  C
  C13      1.0000 0.89760  0.44050  0.07080  Biso   1.000  C
  C14      1.0000 0.60240  0.94050  0.42920  Biso   1.000  C
  C15      1.0000 0.10240  0.55950  0.92920  Biso   1.000  C
  C16      1.0000 0.39760  0.05950  0.57080  Biso   1.000  C
  H9       1.0000 0.86770  0.48850  0.05390  Biso   1.000  H
  H10      1.0000 0.63230  0.98850  0.44610  Biso   1.000  H
  H11      1.0000 0.13230  0.51150  0.94610  Biso   1.000  H
  H12      1.0000 0.36770  0.01150  0.55390  Biso   1.000  H
  C17      1.0000 0.84500  0.37420  0.06950  Biso   1.000  C
  C18      1.0000 0.65500  0.87420  0.43050  Biso   1.000  C
  C19      1.0000 0.15500  0.62580  0.93050  Biso   1.000  C
  C20      1.0000 0.34500  0.12580  0.56950  Biso   1.000  C
  H13      1.0000 0.77960  0.37920  0.05240  Biso   1.000  H
  H14      1.0000 0.72040  0.87920  0.44760  Biso   1.000  H
  H15      1.0000 0.22040  0.62080  0.94760  Biso   1.000  H
  H16      1.0000 0.27960  0.12080  0.55240  Biso   1.000  H
  C21      1.0000 0.05770  0.50480  0.10170  Biso   1.000  C
  C22      1.0000 0.44230  0.00480  0.39830  Biso   1.000  C
  C23      1.0000 0.94230  0.49520  0.89830  Biso   1.000  C
  C24      1.0000 0.55770  0.99520  0.60170  Biso   1.000  C
  C25      1.0000 0.02480  0.58060  0.08720  Biso   1.000  C
  C26      1.0000 0.47520  0.08060  0.41280  Biso   1.000  C
  C27      1.0000 0.97520  0.41940  0.91280  Biso   1.000  C
  C28      1.0000 0.52480  0.91940  0.58720  Biso   1.000  C
  H17      1.0000 0.96040  0.59020  0.07230  Biso   1.000  H
  H18      1.0000 0.53960  0.09020  0.42770  Biso   1.000  H
  H19      1.0000 0.03960  0.40980  0.92770  Biso   1.000  H
  H20      1.0000 0.46040  0.90980  0.57230  Biso   1.000  H
  C29      1.0000 0.08460  0.64150  0.09410  Biso   1.000  C
  C30      1.0000 0.41540  0.14150  0.40590  Biso   1.000  C
  C31      1.0000 0.91540  0.35850  0.90590  Biso   1.000  C
  C32      1.0000 0.58460  0.85850  0.59410  Biso   1.000  C
  H21      1.0000 0.05900  0.69170  0.08290  Biso   1.000  H
  H22      1.0000 0.44100  0.19170  0.41710  Biso   1.000  H
  H23      1.0000 0.94100  0.30830  0.91710  Biso   1.000  H
  H24      1.0000 0.55900  0.80830  0.58290  Biso   1.000  H
  C33      1.0000 0.21070  0.55950  0.12920  Biso   1.000  C
  C34      1.0000 0.28930  0.05950  0.37080  Biso   1.000  C
  C35      1.0000 0.78930  0.44050  0.87080  Biso   1.000  C
  C36      1.0000 0.71070  0.94050  0.62920  Biso   1.000  C
  H25      1.0000 0.27540  0.55100  0.14410  Biso   1.000  H
  H26      1.0000 0.22460  0.05100  0.35590  Biso   1.000  H
  H27      1.0000 0.72460  0.44900  0.85590  Biso   1.000  H
  H28      1.0000 0.77540  0.94900  0.64410  Biso   1.000  H
  C37      1.0000 0.15260  0.49520  0.12140  Biso   1.000  C
  C38      1.0000 0.34740  0.99520  0.37860  Biso   1.000  C
  C39      1.0000 0.84740  0.50480  0.87860  Biso   1.000  C
  C40      1.0000 0.65260  0.00480  0.62140  Biso   1.000  C
  H29      1.0000 0.17840  0.44490  0.12960  Biso   1.000  H
  H30      1.0000 0.32160  0.94490  0.37040  Biso   1.000  H
  H31      1.0000 0.82160  0.55510  0.87040  Biso   1.000  H
  H32      1.0000 0.67840  0.05510  0.62960  Biso   1.000  H
  C41      1.0000 0.62950  0.13570  0.08390  Biso   1.000  C
  C42      1.0000 0.87050  0.63570  0.41610  Biso   1.000  C
  C43      1.0000 0.37050  0.86430  0.91610  Biso   1.000  C
  C44      1.0000 0.12950  0.36430  0.58390  Biso   1.000  C
  H33      1.0000 0.63380  0.17370  0.11970  Biso   1.000  H
  H34      1.0000 0.86620  0.67370  0.38030  Biso   1.000  H
  H35      1.0000 0.36620  0.82630  0.88030  Biso   1.000  H
  H36      1.0000 0.13380  0.32630  0.61970  Biso   1.000  H
  C45      1.0000 0.55280  0.08370  0.06210  Biso   1.000  C
  C46      1.0000 0.94720  0.58370  0.43790  Biso   1.000  C
  C47      1.0000 0.44720  0.91630  0.93790  Biso   1.000  C
  C48      1.0000 0.05280  0.41630  0.56210  Biso   1.000  C
  H37      1.0000 0.50880  0.08850  0.08460  Biso   1.000  H
  H38      1.0000 0.99120  0.58850  0.41540  Biso   1.000  H
  H39      1.0000 0.49120  0.91150  0.91540  Biso   1.000  H
  H40      1.0000 0.00880  0.41150  0.58460  Biso   1.000  H
  C49      1.0000 0.53990  0.02880  0.01190  Biso   1.000  C
  C50      1.0000 0.96010  0.52880  0.48810  Biso   1.000  C
  C51      1.0000 0.46010  0.97120  0.98810  Biso   1.000  C
  C52      1.0000 0.03990  0.47120  0.51190  Biso   1.000  C
  C53      1.0000 0.60810  0.02680  0.98570  Biso   1.000  C
  C54      1.0000 0.89190  0.52680  0.51430  Biso   1.000  C
  C55      1.0000 0.39190  0.97320  0.01430  Biso   1.000  C
  C56      1.0000 0.10810  0.47320  0.48570  Biso   1.000  C
  H41      1.0000 0.60640  0.98800  0.95120  Biso   1.000  H
  H42      1.0000 0.89360  0.48800  0.54880  Biso   1.000  H
  H43      1.0000 0.39360  0.01200  0.04880  Biso   1.000  H
  H44      1.0000 0.10640  0.51200  0.45120  Biso   1.000  H
  C57      1.0000 0.68150  0.07950  0.00730  Biso   1.000  C
  C58      1.0000 0.81850  0.57950  0.49270  Biso   1.000  C
  C59      1.0000 0.31850  0.92050  0.99270  Biso   1.000  C
  C60      1.0000 0.18150  0.42050  0.50730  Biso   1.000  C
  H45      1.0000 0.72520  0.07600  0.98450  Biso   1.000  H
  H46      1.0000 0.77480  0.57600  0.51550  Biso   1.000  H
  H47      1.0000 0.27480  0.92400  0.01550  Biso   1.000  H
  H48      1.0000 0.22520  0.42400  0.48450  Biso   1.000  H
  C61      1.0000 0.55200  0.17400  0.80830  Biso   1.000  C
  C62      1.0000 0.94800  0.67400  0.69170  Biso   1.000  C
  C63      1.0000 0.44800  0.82600  0.19170  Biso   1.000  C
  C64      1.0000 0.05200  0.32600  0.30830  Biso   1.000  C
  H49      1.0000 0.52090  0.22050  0.81040  Biso   1.000  H
  H50      1.0000 0.97910  0.72050  0.68960  Biso   1.000  H
  H51      1.0000 0.47910  0.77950  0.18960  Biso   1.000  H
  H52      1.0000 0.02090  0.27950  0.31040  Biso   1.000  H
  C65      1.0000 0.50020  0.10570  0.78960  Biso   1.000  C
  C66      1.0000 0.99980  0.60570  0.71040  Biso   1.000  C
  C67      1.0000 0.49980  0.89430  0.21040  Biso   1.000  C
  C68      1.0000 0.00020  0.39430  0.28960  Biso   1.000  C
  H53      1.0000 0.43560  0.10710  0.77890  Biso   1.000  H
  H54      1.0000 0.06440  0.60710  0.72110  Biso   1.000  H
  H55      1.0000 0.56440  0.89290  0.22110  Biso   1.000  H
  H56      1.0000 0.93560  0.39290  0.27890  Biso   1.000  H
  C69      1.0000 0.54320  0.03450  0.78640  Biso   1.000  C
  C70      1.0000 0.95680  0.53450  0.71360  Biso   1.000  C
  C71      1.0000 0.45680  0.96550  0.21360  Biso   1.000  C
  C72      1.0000 0.04320  0.46550  0.28640  Biso   1.000  C
  C73      1.0000 0.63940  0.03680  0.80200  Biso   1.000  C
  C74      1.0000 0.86060  0.53680  0.69800  Biso   1.000  C
  C75      1.0000 0.36060  0.96320  0.19800  Biso   1.000  C
  C76      1.0000 0.13940  0.46320  0.30200  Biso   1.000  C
  H57      1.0000 0.67180  0.99090  0.80060  Biso   1.000  H
  H58      1.0000 0.82820  0.49090  0.69940  Biso   1.000  H
  H59      1.0000 0.32820  0.00910  0.19940  Biso   1.000  H
  H60      1.0000 0.17180  0.50910  0.30060  Biso   1.000  H
  C77      1.0000 0.68710  0.10830  0.81980  Biso   1.000  C
  C78      1.0000 0.81290  0.60830  0.68020  Biso   1.000  C
  C79      1.0000 0.31290  0.89170  0.18020  Biso   1.000  C
  C80      1.0000 0.18710  0.39170  0.31980  Biso   1.000  C
  H61      1.0000 0.75150  0.10860  0.82970  Biso   1.000  H
  H62      1.0000 0.74850  0.60860  0.67030  Biso   1.000  H
  H63      1.0000 0.24850  0.89140  0.17030  Biso   1.000  H
  H64      1.0000 0.25150  0.39140  0.32970  Biso   1.000  H
  C81      1.0000 0.48960  0.95810  0.76520  Biso   1.000  C
  C82      1.0000 0.01040  0.45810  0.73480  Biso   1.000  C
  C83      1.0000 0.51040  0.04190  0.23480  Biso   1.000  C
  C84      1.0000 0.98960  0.54190  0.26520  Biso   1.000  C
  C85      1.0000 0.39290  0.95530  0.73220  Biso   1.000  C
  C86      1.0000 0.10710  0.45530  0.76780  Biso   1.000  C
  C87      1.0000 0.60710  0.04470  0.26780  Biso   1.000  C
  C88      1.0000 0.89290  0.54470  0.23220  Biso   1.000  C
  H65      1.0000 0.35720  0.00130  0.72170  Biso   1.000  H
  H66      1.0000 0.14280  0.50130  0.77830  Biso   1.000  H
  H67      1.0000 0.64280  0.99870  0.27830  Biso   1.000  H
  H68      1.0000 0.85720  0.49870  0.22170  Biso   1.000  H
  C89      1.0000 0.35000  0.88250  0.71500  Biso   1.000  C
  C90      1.0000 0.15000  0.38250  0.78500  Biso   1.000  C
  C91      1.0000 0.65000  0.11750  0.28500  Biso   1.000  C
  C92      1.0000 0.85000  0.61750  0.21500  Biso   1.000  C
  H69      1.0000 0.28430  0.88180  0.69450  Biso   1.000  H
  H70      1.0000 0.21570  0.38180  0.80550  Biso   1.000  H
  H71      1.0000 0.71570  0.11820  0.30550  Biso   1.000  H
  H72      1.0000 0.78430  0.61820  0.19450  Biso   1.000  H
  C93      1.0000 0.48290  0.81950  0.75600  Biso   1.000  C
  C94      1.0000 0.01710  0.31950  0.74400  Biso   1.000  C
  C95      1.0000 0.51710  0.18050  0.24400  Biso   1.000  C
  C96      1.0000 0.98290  0.68050  0.25600  Biso   1.000  C
  H73      1.0000 0.51620  0.77230  0.76460  Biso   1.000  H
  H74      1.0000 0.98380  0.27230  0.73540  Biso   1.000  H
  H75      1.0000 0.48380  0.22770  0.23540  Biso   1.000  H
  H76      1.0000 0.01620  0.72770  0.26460  Biso   1.000  H
  C97      1.0000 0.53560  0.88810  0.77800  Biso   1.000  C
  C98      1.0000 0.96440  0.38810  0.72200  Biso   1.000  C
  C99      1.0000 0.46440  0.11190  0.22200  Biso   1.000  C
  C100     1.0000 0.03560  0.61190  0.27800  Biso   1.000  C
  H77      1.0000 0.60110  0.88610  0.80100  Biso   1.000  H
  H78      1.0000 0.89890  0.38610  0.69900  Biso   1.000  H
  H79      1.0000 0.39890  0.11390  0.19900  Biso   1.000  H
  H80      1.0000 0.10110  0.61390  0.30100  Biso   1.000  H
  C101     1.0000 0.88970  0.15790  0.99810  Biso   1.000  C
  C102     1.0000 0.61030  0.65790  0.50190  Biso   1.000  C
  C103     1.0000 0.11030  0.84210  0.00190  Biso   1.000  C
  C104     1.0000 0.38970  0.34210  0.49810  Biso   1.000  C
  C105     1.0000 0.97300  0.13310  0.98040  Biso   1.000  C
  C106     1.0000 0.52700  0.63310  0.51960  Biso   1.000  C
  C107     1.0000 0.02700  0.86690  0.01960  Biso   1.000  C
  C108     1.0000 0.47300  0.36690  0.48040  Biso   1.000  C
  C109     1.0000 0.97840  0.15420  0.91310  Biso   1.000  C
  C110     1.0000 0.52160  0.65420  0.58690  Biso   1.000  C
  C111     1.0000 0.02160  0.84580  0.08690  Biso   1.000  C
  C112     1.0000 0.47840  0.34580  0.41310  Biso   1.000  C
  H81      1.0000 0.92680  0.17870  0.87710  Biso   1.000  H
  H82      1.0000 0.57320  0.67870  0.62290  Biso   1.000  H
  H83      1.0000 0.07320  0.82130  0.12290  Biso   1.000  H
  H84      1.0000 0.42680  0.32130  0.37710  Biso   1.000  H
  C113     1.0000 0.05720  0.14030  0.89770  Biso   1.000  C
  C114     1.0000 0.44280  0.64030  0.60230  Biso   1.000  C
  C115     1.0000 0.94280  0.85970  0.10230  Biso   1.000  C
  C116     1.0000 0.55720  0.35970  0.39770  Biso   1.000  C
  H85      1.0000 0.06000  0.15760  0.85290  Biso   1.000  H
  H86      1.0000 0.44000  0.65760  0.64710  Biso   1.000  H
  H87      1.0000 0.94000  0.84240  0.14710  Biso   1.000  H
  H88      1.0000 0.56000  0.34240  0.35290  Biso   1.000  H
  C117     1.0000 0.13180  0.10100  0.94800  Biso   1.000  C
  C118     1.0000 0.36820  0.60100  0.55200  Biso   1.000  C
  C119     1.0000 0.86820  0.89900  0.05200  Biso   1.000  C
  C120     1.0000 0.63180  0.39900  0.44800  Biso   1.000  C
  C121     1.0000 0.12710  0.07580  0.01510  Biso   1.000  C
  C122     1.0000 0.37290  0.57580  0.48490  Biso   1.000  C
  C123     1.0000 0.87290  0.92420  0.98490  Biso   1.000  C
  C124     1.0000 0.62710  0.42420  0.51510  Biso   1.000  C
  H89      1.0000 0.17690  0.04750  0.04900  Biso   1.000  H
  H90      1.0000 0.32310  0.54750  0.45100  Biso   1.000  H
  H91      1.0000 0.82310  0.95250  0.95100  Biso   1.000  H
  H92      1.0000 0.67690  0.45250  0.54900  Biso   1.000  H
  C125     1.0000 0.04880  0.09270  0.03120  Biso   1.000  C
  C126     1.0000 0.45120  0.59270  0.46880  Biso   1.000  C
  C127     1.0000 0.95120  0.90730  0.96880  Biso   1.000  C
  C128     1.0000 0.54880  0.40730  0.53120  Biso   1.000  C
  H93      1.0000 0.04670  0.07680  0.07670  Biso   1.000  H
  H94      1.0000 0.45330  0.57680  0.42330  Biso   1.000  H
  H95      1.0000 0.95330  0.92320  0.92330  Biso   1.000  H
  H96      1.0000 0.54670  0.42320  0.57670  Biso   1.000  H
  C129     1.0000 0.23400  0.12130  0.88010  Biso   1.000  C
  C130     1.0000 0.26600  0.62130  0.61990  Biso   1.000  C
  C131     1.0000 0.76600  0.87870  0.11990  Biso   1.000  C
  C132     1.0000 0.73400  0.37870  0.38010  Biso   1.000  C
  C133     1.0000 0.18920  0.09600  0.80860  Biso   1.000  C
  C134     1.0000 0.31080  0.59600  0.69140  Biso   1.000  C
  C135     1.0000 0.81080  0.90400  0.19140  Biso   1.000  C
  C136     1.0000 0.68920  0.40400  0.30860  Biso   1.000  C
  H97      1.0000 0.14610  0.05470  0.79750  Biso   1.000  H
  H98      1.0000 0.35390  0.55470  0.70250  Biso   1.000  H
  H99      1.0000 0.85390  0.94530  0.20250  Biso   1.000  H
  H100     1.0000 0.64610  0.44530  0.29750  Biso   1.000  H
  C137     1.0000 0.20950  0.13370  0.75290  Biso   1.000  C
  C138     1.0000 0.29050  0.63370  0.74710  Biso   1.000  C
  C139     1.0000 0.79050  0.86630  0.24710  Biso   1.000  C
  C140     1.0000 0.70950  0.36630  0.25290  Biso   1.000  C
  H101     1.0000 0.17980  0.11700  0.70370  Biso   1.000  H
  H102     1.0000 0.32020  0.61700  0.79630  Biso   1.000  H
  H103     1.0000 0.82020  0.88300  0.29630  Biso   1.000  H
  H104     1.0000 0.67980  0.38300  0.20370  Biso   1.000  H
  C141     1.0000 0.27310  0.19560  0.76900  Biso   1.000  C
  C142     1.0000 0.22690  0.69560  0.73100  Biso   1.000  C
  C143     1.0000 0.72690  0.80440  0.23100  Biso   1.000  C
  C144     1.0000 0.77310  0.30440  0.26900  Biso   1.000  C
  C145     1.0000 0.29120  0.24020  0.70840  Biso   1.000  C
  C146     1.0000 0.20880  0.74020  0.79160  Biso   1.000  C
  C147     1.0000 0.70880  0.75980  0.29160  Biso   1.000  C
  C148     1.0000 0.79120  0.25980  0.20840  Biso   1.000  C
  C149     1.0000 0.31800  0.21800  0.84180  Biso   1.000  C
  C150     1.0000 0.18200  0.71800  0.65820  Biso   1.000  C
  C151     1.0000 0.68200  0.78200  0.15820  Biso   1.000  C
  C152     1.0000 0.81800  0.28200  0.34180  Biso   1.000  C
  H105     1.0000 0.36190  0.25870  0.85320  Biso   1.000  H
  H106     1.0000 0.13810  0.75870  0.64680  Biso   1.000  H
  H107     1.0000 0.63810  0.74130  0.14680  Biso   1.000  H
  H108     1.0000 0.86190  0.24130  0.35320  Biso   1.000  H
  C153     1.0000 0.29980  0.18190  0.89850  Biso   1.000  C
  C154     1.0000 0.20020  0.68190  0.60150  Biso   1.000  C
  C155     1.0000 0.70020  0.81810  0.10150  Biso   1.000  C
  C156     1.0000 0.79980  0.31810  0.39850  Biso   1.000  C
  H109     1.0000 0.33060  0.19760  0.94790  Biso   1.000  H
  H110     1.0000 0.16940  0.69760  0.55210  Biso   1.000  H
  H111     1.0000 0.66940  0.80240  0.05210  Biso   1.000  H
  H112     1.0000 0.83060  0.30240  0.44790  Biso   1.000  H
  C157     1.0000 0.75580  0.26210  0.71990  Biso   1.000  C
  C158     1.0000 0.74420  0.76210  0.78010  Biso   1.000  C
  C159     1.0000 0.24420  0.73790  0.28010  Biso   1.000  C
  C160     1.0000 0.25580  0.23790  0.21990  Biso   1.000  C
  C161     1.0000 0.78230  0.21120  0.66630  Biso   1.000  C
  C162     1.0000 0.71770  0.71120  0.83370  Biso   1.000  C
  C163     1.0000 0.21770  0.78880  0.33370  Biso   1.000  C
  C164     1.0000 0.28230  0.28880  0.16630  Biso   1.000  C
  C165     1.0000 0.74080  0.22650  0.58970  Biso   1.000  C
  C166     1.0000 0.75920  0.72650  0.91030  Biso   1.000  C
  C167     1.0000 0.25920  0.77350  0.41030  Biso   1.000  C
  C168     1.0000 0.24080  0.27350  0.08970  Biso   1.000  C
  H113     1.0000 0.70070  0.26950  0.57250  Biso   1.000  H
  H114     1.0000 0.79930  0.76950  0.92750  Biso   1.000  H
  H115     1.0000 0.29930  0.73050  0.42750  Biso   1.000  H
  H116     1.0000 0.20070  0.23050  0.07250  Biso   1.000  H
  C169     1.0000 0.75960  0.17780  0.53930  Biso   1.000  C
  C170     1.0000 0.74040  0.67780  0.96070  Biso   1.000  C
  C171     1.0000 0.24040  0.82220  0.46070  Biso   1.000  C
  C172     1.0000 0.25960  0.32220  0.03930  Biso   1.000  C
  H117     1.0000 0.73190  0.18730  0.48820  Biso   1.000  H
  H118     1.0000 0.76810  0.68730  0.01180  Biso   1.000  H
  H119     1.0000 0.26810  0.81270  0.51180  Biso   1.000  H
  H120     1.0000 0.23190  0.31270  0.98820  Biso   1.000  H
  C173     1.0000 0.82000  0.11500  0.56610  Biso   1.000  C
  C174     1.0000 0.68000  0.61500  0.93390  Biso   1.000  C
  C175     1.0000 0.18000  0.88500  0.43390  Biso   1.000  C
  C176     1.0000 0.32000  0.38500  0.06610  Biso   1.000  C
  C177     1.0000 0.86280  0.09830  0.64200  Biso   1.000  C
  C178     1.0000 0.63720  0.59830  0.85800  Biso   1.000  C
  C179     1.0000 0.13720  0.90170  0.35800  Biso   1.000  C
  C180     1.0000 0.36280  0.40170  0.14200  Biso   1.000  C
  H121     1.0000 0.90390  0.05590  0.65930  Biso   1.000  H
  H122     1.0000 0.59610  0.55590  0.84070  Biso   1.000  H
  H123     1.0000 0.09610  0.94410  0.34070  Biso   1.000  H
  H124     1.0000 0.40390  0.44410  0.15930  Biso   1.000  H
  C181     1.0000 0.84130  0.14730  0.69040  Biso   1.000  C
  C182     1.0000 0.65870  0.64730  0.80960  Biso   1.000  C
  C183     1.0000 0.15870  0.85270  0.30960  Biso   1.000  C
  C184     1.0000 0.34130  0.35270  0.19040  Biso   1.000  C
  H125     1.0000 0.86790  0.13680  0.74140  Biso   1.000  H
  H126     1.0000 0.63210  0.63680  0.75860  Biso   1.000  H
  H127     1.0000 0.13210  0.86320  0.25860  Biso   1.000  H
  H128     1.0000 0.36790  0.36320  0.24140  Biso   1.000  H
  C185     1.0000 0.90080  0.08520  0.48590  Biso   1.000  C
  C186     1.0000 0.59920  0.58520  0.01410  Biso   1.000  C
  C187     1.0000 0.09920  0.91480  0.51410  Biso   1.000  C
  C188     1.0000 0.40080  0.41480  0.98590  Biso   1.000  C
  C189     1.0000 0.89270  0.05000  0.41960  Biso   1.000  C
  C190     1.0000 0.60730  0.55000  0.08040  Biso   1.000  C
  C191     1.0000 0.10730  0.95000  0.58040  Biso   1.000  C
  C192     1.0000 0.39270  0.45000  0.91960  Biso   1.000  C
  H129     1.0000 0.84600  0.01270  0.39720  Biso   1.000  H
  H130     1.0000 0.65400  0.51270  0.10280  Biso   1.000  H
  H131     1.0000 0.15400  0.98730  0.60280  Biso   1.000  H
  H132     1.0000 0.34600  0.48730  0.89720  Biso   1.000  H
  C193     1.0000 0.95560  0.07140  0.38700  Biso   1.000  C
  C194     1.0000 0.54440  0.57140  0.11300  Biso   1.000  C
  C195     1.0000 0.04440  0.92860  0.61300  Biso   1.000  C
  C196     1.0000 0.45560  0.42860  0.88700  Biso   1.000  C
  H133     1.0000 0.94930  0.04940  0.34130  Biso   1.000  H
  H134     1.0000 0.55070  0.54940  0.15870  Biso   1.000  H
  H135     1.0000 0.05070  0.95060  0.65870  Biso   1.000  H
  H136     1.0000 0.44930  0.45060  0.84130  Biso   1.000  H
  C197     1.0000 0.02780  0.12440  0.42050  Biso   1.000  C
  C198     1.0000 0.47220  0.62440  0.07950  Biso   1.000  C
  C199     1.0000 0.97220  0.87560  0.57950  Biso   1.000  C
  C200     1.0000 0.52780  0.37560  0.92050  Biso   1.000  C
  C201     1.0000 0.09480  0.14730  0.38310  Biso   1.000  C
  C202     1.0000 0.40520  0.64730  0.11690  Biso   1.000  C
  C203     1.0000 0.90520  0.85270  0.61690  Biso   1.000  C
  C204     1.0000 0.59480  0.35270  0.88310  Biso   1.000  C
  C205     1.0000 0.03600  0.15660  0.48820  Biso   1.000  C
  C206     1.0000 0.46400  0.65660  0.01180  Biso   1.000  C
  C207     1.0000 0.96400  0.84340  0.51180  Biso   1.000  C
  C208     1.0000 0.53600  0.34340  0.98820  Biso   1.000  C
  H137     1.0000 0.08560  0.19100  0.51230  Biso   1.000  H
  H138     1.0000 0.41440  0.69100  0.98770  Biso   1.000  H
  H139     1.0000 0.91440  0.80900  0.48770  Biso   1.000  H
  H140     1.0000 0.58560  0.30900  0.01230  Biso   1.000  H
  C209     1.0000 0.97260  0.13890  0.52070  Biso   1.000  C
  C210     1.0000 0.52740  0.63890  0.97930  Biso   1.000  C
  C211     1.0000 0.02740  0.86110  0.47930  Biso   1.000  C
  C212     1.0000 0.47260  0.36110  0.02070  Biso   1.000  C
  H141     1.0000 0.97750  0.16260  0.56550  Biso   1.000  H
  H142     1.0000 0.52250  0.66260  0.93450  Biso   1.000  H
  H143     1.0000 0.02250  0.83740  0.43450  Biso   1.000  H
  H144     1.0000 0.47750  0.33740  0.06550  Biso   1.000  H
  O41      1.0000 0.97040  0.04100  0.19490  Biso   1.000  O
  O42      1.0000 0.52960  0.54100  0.30510  Biso   1.000  O
  O43      1.0000 0.02960  0.95900  0.80510  Biso   1.000  O
  O44      1.0000 0.47040  0.45900  0.69490  Biso   1.000  O
  O45      1.0000 0.66050  0.48180  0.70180  Biso   1.000  O
  O46      1.0000 0.83950  0.98180  0.79820  Biso   1.000  O
  O47      1.0000 0.33950  0.51820  0.29820  Biso   1.000  O
  O48      1.0000 0.16050  0.01820  0.20180  Biso   1.000  O
