data_image0
_cell_length_a       10.1583
_cell_length_b       7.8911
_cell_length_c       17.594
_cell_angle_alpha    90
_cell_angle_beta     94.243
_cell_angle_gamma    90

_symmetry_space_group_name_H-M    "P 1"
_symmetry_int_tables_number       1

loop_
  _symmetry_equiv_pos_as_xyz
  'x, y, z'

loop_
  _atom_site_label
  _atom_site_occupancy
  _atom_site_fract_x
  _atom_site_fract_y
  _atom_site_fract_z
  _atom_site_thermal_displace_type
  _atom_site_B_iso_or_equiv
  _atom_site_type_symbol
  Cu1      1.0000 0.58283  0.75189  0.18748  Biso   1.000  Cu
  Cu2      1.0000 0.91717  0.25189  0.31252  Biso   1.000  Cu
  Cu3      1.0000 0.41717  0.24811  0.81252  Biso   1.000  Cu
  Cu4      1.0000 0.08283  0.74811  0.68748  Biso   1.000  Cu
  S1       1.0000 0.74605  0.61762  0.11791  Biso   1.000  S
  S2       1.0000 0.75395  0.11762  0.38209  Biso   1.000  S
  S3       1.0000 0.25395  0.38238  0.88209  Biso   1.000  S
  S4       1.0000 0.24605  0.88238  0.61791  Biso   1.000  S
  N1       1.0000 0.33388  0.58410  0.12801  Biso   1.000  N
  N2       1.0000 0.16612  0.08410  0.37199  Biso   1.000  N
  N3       1.0000 0.66612  0.41590  0.87199  Biso   1.000  N
  N4       1.0000 0.83388  0.91590  0.62801  Biso   1.000  N
  N5       1.0000 0.42190  0.58950  0.19087  Biso   1.000  N
  N6       1.0000 0.07810  0.08950  0.30913  Biso   1.000  N
  N7       1.0000 0.57810  0.41050  0.80913  Biso   1.000  N
  N8       1.0000 0.92190  0.91050  0.69087  Biso   1.000  N
  N9       1.0000 0.47462  0.90970  0.11126  Biso   1.000  N
  N10      1.0000 0.02538  0.40970  0.38874  Biso   1.000  N
  N11      1.0000 0.52538  0.09030  0.88874  Biso   1.000  N
  N12      1.0000 0.97462  0.59030  0.61126  Biso   1.000  N
  N13      1.0000 0.37931  0.83960  0.06205  Biso   1.000  N
  N14      1.0000 0.12069  0.33960  0.43795  Biso   1.000  N
  N15      1.0000 0.62069  0.16040  0.93795  Biso   1.000  N
  N16      1.0000 0.87931  0.66040  0.56205  Biso   1.000  N
  N17      1.0000 0.84798  0.37240  0.22224  Biso   1.000  N
  N18      1.0000 0.65202  0.87240  0.27776  Biso   1.000  N
  N19      1.0000 0.15202  0.62760  0.77776  Biso   1.000  N
  N20      1.0000 0.34798  0.12760  0.72224  Biso   1.000  N
  C1       1.0000 0.10510  0.48750  0.08619  Biso   1.000  C
  C2       1.0000 0.39490  0.98750  0.41381  Biso   1.000  C
  C3       1.0000 0.89490  0.51250  0.91381  Biso   1.000  C
  C4       1.0000 0.60510  0.01250  0.58619  Biso   1.000  C
  H1       1.0000 0.06080  0.59680  0.07730  Biso   1.000  H
  H2       1.0000 0.43920  0.09680  0.42270  Biso   1.000  H
  H3       1.0000 0.93920  0.40320  0.92270  Biso   1.000  H
  H4       1.0000 0.56080  0.90320  0.57730  Biso   1.000  H
  H5       1.0000 0.04250  0.40540  0.10470  Biso   1.000  H
  H6       1.0000 0.45750  0.90540  0.39530  Biso   1.000  H
  H7       1.0000 0.95750  0.59460  0.89530  Biso   1.000  H
  H8       1.0000 0.54250  0.09460  0.60470  Biso   1.000  H
  H9       1.0000 0.13740  0.44640  0.03840  Biso   1.000  H
  H10      1.0000 0.36260  0.94640  0.46160  Biso   1.000  H
  H11      1.0000 0.86260  0.55360  0.96160  Biso   1.000  H
  H12      1.0000 0.63740  0.05360  0.53840  Biso   1.000  H
  C5       1.0000 0.21790  0.50860  0.14396  Biso   1.000  C
  C6       1.0000 0.28210  0.00860  0.35604  Biso   1.000  C
  C7       1.0000 0.78210  0.49140  0.85604  Biso   1.000  C
  C8       1.0000 0.71790  0.99140  0.64396  Biso   1.000  C
  C9       1.0000 0.23380  0.46300  0.21915  Biso   1.000  C
  C10      1.0000 0.26620  0.96300  0.28085  Biso   1.000  C
  C11      1.0000 0.76620  0.53700  0.78085  Biso   1.000  C
  C12      1.0000 0.73380  0.03700  0.71915  Biso   1.000  C
  H13      1.0000 0.17100  0.40650  0.24750  Biso   1.000  H
  H14      1.0000 0.32900  0.90650  0.25250  Biso   1.000  H
  H15      1.0000 0.82900  0.59350  0.75250  Biso   1.000  H
  H16      1.0000 0.67100  0.09350  0.74750  Biso   1.000  H
  C13      1.0000 0.36020  0.51560  0.24629  Biso   1.000  C
  C14      1.0000 0.13980  0.01560  0.25371  Biso   1.000  C
  C15      1.0000 0.63980  0.48440  0.75371  Biso   1.000  C
  C16      1.0000 0.86020  0.98440  0.74629  Biso   1.000  C
  C17      1.0000 0.42980  0.49490  0.32330  Biso   1.000  C
  C18      1.0000 0.07020  0.99490  0.17670  Biso   1.000  C
  C19      1.0000 0.57020  0.50510  0.67670  Biso   1.000  C
  C20      1.0000 0.92980  0.00510  0.82330  Biso   1.000  C
  H17      1.0000 0.51820  0.54470  0.32360  Biso   1.000  H
  H18      1.0000 0.98180  0.04470  0.17640  Biso   1.000  H
  H19      1.0000 0.48180  0.45530  0.67640  Biso   1.000  H
  H20      1.0000 0.01820  0.95530  0.82360  Biso   1.000  H
  H21      1.0000 0.43720  0.37410  0.33580  Biso   1.000  H
  H22      1.0000 0.06280  0.87410  0.16420  Biso   1.000  H
  H23      1.0000 0.56280  0.62590  0.66420  Biso   1.000  H
  H24      1.0000 0.93720  0.12590  0.83580  Biso   1.000  H
  H25      1.0000 0.37970  0.55250  0.36120  Biso   1.000  H
  H26      1.0000 0.12030  0.05250  0.13880  Biso   1.000  H
  H27      1.0000 0.62030  0.44750  0.63880  Biso   1.000  H
  H28      1.0000 0.87970  0.94750  0.86120  Biso   1.000  H
  C21      1.0000 0.37350  0.65690  0.05799  Biso   1.000  C
  C22      1.0000 0.12650  0.15690  0.44201  Biso   1.000  C
  C23      1.0000 0.62650  0.34310  0.94201  Biso   1.000  C
  C24      1.0000 0.87350  0.84310  0.55799  Biso   1.000  C
  H29      1.0000 0.30980  0.62290  0.01540  Biso   1.000  H
  H30      1.0000 0.19020  0.12290  0.48460  Biso   1.000  H
  H31      1.0000 0.69020  0.37710  0.98460  Biso   1.000  H
  H32      1.0000 0.80980  0.87710  0.51540  Biso   1.000  H
  H33      1.0000 0.46130  0.61220  0.04740  Biso   1.000  H
  H34      1.0000 0.03870  0.11220  0.45260  Biso   1.000  H
  H35      1.0000 0.53870  0.38780  0.95260  Biso   1.000  H
  H36      1.0000 0.96130  0.88780  0.54740  Biso   1.000  H
  C25      1.0000 0.19050  0.91970  0.96912  Biso   1.000  C
  C26      1.0000 0.30950  0.41970  0.53088  Biso   1.000  C
  C27      1.0000 0.80950  0.08030  0.03088  Biso   1.000  C
  C28      1.0000 0.69050  0.58030  0.46912  Biso   1.000  C
  H37      1.0000 0.22010  0.84000  0.93120  Biso   1.000  H
  H38      1.0000 0.27990  0.34000  0.56880  Biso   1.000  H
  H39      1.0000 0.77990  0.16000  0.06880  Biso   1.000  H
  H40      1.0000 0.72010  0.66000  0.43120  Biso   1.000  H
  H41      1.0000 0.15900  0.02400  0.94360  Biso   1.000  H
  H42      1.0000 0.34100  0.52400  0.55640  Biso   1.000  H
  H43      1.0000 0.84100  0.97600  0.05640  Biso   1.000  H
  H44      1.0000 0.65900  0.47600  0.44360  Biso   1.000  H
  H45      1.0000 0.11850  0.86850  0.99540  Biso   1.000  H
  H46      1.0000 0.38150  0.36850  0.50460  Biso   1.000  H
  H47      1.0000 0.88150  0.13150  0.00460  Biso   1.000  H
  H48      1.0000 0.61850  0.63150  0.49540  Biso   1.000  H
  C29      1.0000 0.30230  0.96010  0.02555  Biso   1.000  C
  C30      1.0000 0.19770  0.46010  0.47445  Biso   1.000  C
  C31      1.0000 0.69770  0.03990  0.97445  Biso   1.000  C
  C32      1.0000 0.80230  0.53990  0.52555  Biso   1.000  C
  C33      1.0000 0.35070  0.11230  0.05249  Biso   1.000  C
  C34      1.0000 0.14930  0.61230  0.44751  Biso   1.000  C
  C35      1.0000 0.64930  0.88770  0.94751  Biso   1.000  C
  C36      1.0000 0.85070  0.38770  0.55249  Biso   1.000  C
  H49      1.0000 0.31870  0.22150  0.03770  Biso   1.000  H
  H50      1.0000 0.18130  0.72150  0.46230  Biso   1.000  H
  H51      1.0000 0.68130  0.77850  0.96230  Biso   1.000  H
  H52      1.0000 0.81870  0.27850  0.53770  Biso   1.000  H
  C37      1.0000 0.45620  0.07670  0.10591  Biso   1.000  C
  C38      1.0000 0.04380  0.57670  0.39409  Biso   1.000  C
  C39      1.0000 0.54380  0.92330  0.89409  Biso   1.000  C
  C40      1.0000 0.95620  0.42330  0.60591  Biso   1.000  C
  C41      1.0000 0.54040  0.19500  0.15408  Biso   1.000  C
  C42      1.0000 0.95960  0.69500  0.34592  Biso   1.000  C
  C43      1.0000 0.45960  0.80500  0.84592  Biso   1.000  C
  C44      1.0000 0.04040  0.30500  0.65408  Biso   1.000  C
  H53      1.0000 0.49980  0.21550  0.20200  Biso   1.000  H
  H54      1.0000 0.00020  0.71550  0.29800  Biso   1.000  H
  H55      1.0000 0.50020  0.78450  0.79800  Biso   1.000  H
  H56      1.0000 0.99980  0.28450  0.70200  Biso   1.000  H
  H57      1.0000 0.54890  0.30250  0.12700  Biso   1.000  H
  H58      1.0000 0.95110  0.80250  0.37300  Biso   1.000  H
  H59      1.0000 0.45110  0.69750  0.87300  Biso   1.000  H
  H60      1.0000 0.04890  0.19750  0.62700  Biso   1.000  H
  H61      1.0000 0.62800  0.14480  0.16490  Biso   1.000  H
  H62      1.0000 0.87200  0.64480  0.33510  Biso   1.000  H
  H63      1.0000 0.37200  0.85520  0.83510  Biso   1.000  H
  H64      1.0000 0.12800  0.35520  0.66490  Biso   1.000  H
  C45      1.0000 0.80490  0.47350  0.17987  Biso   1.000  C
  C46      1.0000 0.69510  0.97350  0.32013  Biso   1.000  C
  C47      1.0000 0.19510  0.52650  0.82013  Biso   1.000  C
  C48      1.0000 0.30490  0.02650  0.67987  Biso   1.000  C
