data_image0
_cell_length_a       22.697
_cell_length_b       13.775
_cell_length_c       12.8409
_cell_angle_alpha    90
_cell_angle_beta     119.955
_cell_angle_gamma    90

_symmetry_space_group_name_H-M    "P 1"
_symmetry_int_tables_number       1

loop_
  _symmetry_equiv_pos_as_xyz
  'x, y, z'

loop_
  _atom_site_label
  _atom_site_occupancy
  _atom_site_fract_x
  _atom_site_fract_y
  _atom_site_fract_z
  _atom_site_thermal_displace_type
  _atom_site_B_iso_or_equiv
  _atom_site_type_symbol
  Cu1      1.0000 0.04650  0.47783  0.38385  Biso   1.000  Cu
  Cu2      1.0000 0.54650  0.97783  0.38385  Biso   1.000  Cu
  Cu3      1.0000 0.95350  0.47783  0.11615  Biso   1.000  Cu
  Cu4      1.0000 0.45350  0.97783  0.11615  Biso   1.000  Cu
  Cu5      1.0000 0.95350  0.52217  0.61615  Biso   1.000  Cu
  Cu6      1.0000 0.45350  0.02217  0.61615  Biso   1.000  Cu
  Cu7      1.0000 0.04650  0.52217  0.88385  Biso   1.000  Cu
  Cu8      1.0000 0.54650  0.02217  0.88385  Biso   1.000  Cu
  N1       1.0000 0.12443  0.57036  0.43216  Biso   1.000  N
  N2       1.0000 0.62443  0.07036  0.43216  Biso   1.000  N
  N3       1.0000 0.87557  0.57036  0.06784  Biso   1.000  N
  N4       1.0000 0.37557  0.07036  0.06784  Biso   1.000  N
  N5       1.0000 0.87557  0.42964  0.56784  Biso   1.000  N
  N6       1.0000 0.37557  0.92964  0.56784  Biso   1.000  N
  N7       1.0000 0.12443  0.42964  0.93216  Biso   1.000  N
  N8       1.0000 0.62443  0.92964  0.93216  Biso   1.000  N
  O1       1.0000 0.97951  0.37104  0.34783  Biso   1.000  O
  O2       1.0000 0.47951  0.87104  0.34783  Biso   1.000  O
  O3       1.0000 0.02049  0.37104  0.15217  Biso   1.000  O
  O4       1.0000 0.52049  0.87104  0.15217  Biso   1.000  O
  O5       1.0000 0.02049  0.62896  0.65217  Biso   1.000  O
  O6       1.0000 0.52049  0.12896  0.65217  Biso   1.000  O
  O7       1.0000 0.97951  0.62896  0.84783  Biso   1.000  O
  O8       1.0000 0.47951  0.12896  0.84783  Biso   1.000  O
  O9       1.0000 0.90329  0.38084  0.15250  Biso   1.000  O
  O10      1.0000 0.40329  0.88084  0.15250  Biso   1.000  O
  O11      1.0000 0.09671  0.38084  0.34750  Biso   1.000  O
  O12      1.0000 0.59671  0.88084  0.34750  Biso   1.000  O
  O13      1.0000 0.09671  0.61916  0.84750  Biso   1.000  O
  O14      1.0000 0.59671  0.11916  0.84750  Biso   1.000  O
  O15      1.0000 0.90329  0.61916  0.65250  Biso   1.000  O
  O16      1.0000 0.40329  0.11916  0.65250  Biso   1.000  O
  O17      1.0000 0.75245  0.97927  0.25610  Biso   1.000  O
  O18      1.0000 0.25245  0.47927  0.25610  Biso   1.000  O
  O19      1.0000 0.24755  0.97927  0.24390  Biso   1.000  O
  O20      1.0000 0.74755  0.47927  0.24390  Biso   1.000  O
  O21      1.0000 0.24755  0.02073  0.74390  Biso   1.000  O
  O22      1.0000 0.74755  0.52073  0.74390  Biso   1.000  O
  O23      1.0000 0.75245  0.02073  0.75610  Biso   1.000  O
  O24      1.0000 0.25245  0.52073  0.75610  Biso   1.000  O
  O25      1.0000 0.98723  0.58932  0.35345  Biso   1.000  O
  O26      1.0000 0.48723  0.08932  0.35345  Biso   1.000  O
  O27      1.0000 0.01277  0.58932  0.14655  Biso   1.000  O
  O28      1.0000 0.51277  0.08932  0.14655  Biso   1.000  O
  O29      1.0000 0.01277  0.41068  0.64655  Biso   1.000  O
  O30      1.0000 0.51277  0.91068  0.64655  Biso   1.000  O
  O31      1.0000 0.98723  0.41068  0.85345  Biso   1.000  O
  O32      1.0000 0.48723  0.91068  0.85345  Biso   1.000  O
  O33      1.0000 0.92181  0.53928  0.42748  Biso   1.000  O
  O34      1.0000 0.42181  0.03928  0.42748  Biso   1.000  O
  O35      1.0000 0.07819  0.53928  0.07252  Biso   1.000  O
  O36      1.0000 0.57819  0.03928  0.07252  Biso   1.000  O
  O37      1.0000 0.07819  0.46072  0.57252  Biso   1.000  O
  O38      1.0000 0.57819  0.96072  0.57252  Biso   1.000  O
  O39      1.0000 0.92181  0.46072  0.92748  Biso   1.000  O
  O40      1.0000 0.42181  0.96072  0.92748  Biso   1.000  O
  C1       1.0000 0.92976  0.34036  0.25410  Biso   1.000  C
  C2       1.0000 0.42976  0.84036  0.25410  Biso   1.000  C
  C3       1.0000 0.07024  0.34036  0.24590  Biso   1.000  C
  C4       1.0000 0.57024  0.84036  0.24590  Biso   1.000  C
  C5       1.0000 0.07024  0.65964  0.74590  Biso   1.000  C
  C6       1.0000 0.57024  0.15964  0.74590  Biso   1.000  C
  C7       1.0000 0.92976  0.65964  0.75410  Biso   1.000  C
  C8       1.0000 0.42976  0.15964  0.75410  Biso   1.000  C
  C9       1.0000 0.89948  0.24517  0.25980  Biso   1.000  C
  C10      1.0000 0.39948  0.74517  0.25980  Biso   1.000  C
  C11      1.0000 0.10052  0.24517  0.24020  Biso   1.000  C
  C12      1.0000 0.60052  0.74517  0.24020  Biso   1.000  C
  C13      1.0000 0.10052  0.75483  0.74020  Biso   1.000  C
  C14      1.0000 0.60052  0.25483  0.74020  Biso   1.000  C
  C15      1.0000 0.89948  0.75483  0.75980  Biso   1.000  C
  C16      1.0000 0.39948  0.25483  0.75980  Biso   1.000  C
  C17      1.0000 0.93554  0.18290  0.35480  Biso   1.000  C
  C18      1.0000 0.43554  0.68290  0.35480  Biso   1.000  C
  C19      1.0000 0.06446  0.18290  0.14520  Biso   1.000  C
  C20      1.0000 0.56446  0.68290  0.14520  Biso   1.000  C
  C21      1.0000 0.06446  0.81710  0.64520  Biso   1.000  C
  C22      1.0000 0.56446  0.31710  0.64520  Biso   1.000  C
  C23      1.0000 0.93554  0.81710  0.85480  Biso   1.000  C
  C24      1.0000 0.43554  0.31710  0.85480  Biso   1.000  C
  H1       1.0000 0.97820  0.20100  0.41700  Biso   1.000  H
  H2       1.0000 0.47820  0.70100  0.41700  Biso   1.000  H
  H3       1.0000 0.02180  0.20100  0.08300  Biso   1.000  H
  H4       1.0000 0.52180  0.70100  0.08300  Biso   1.000  H
  H5       1.0000 0.02180  0.79900  0.58300  Biso   1.000  H
  H6       1.0000 0.52180  0.29900  0.58300  Biso   1.000  H
  H7       1.0000 0.97820  0.79900  0.91700  Biso   1.000  H
  H8       1.0000 0.47820  0.29900  0.91700  Biso   1.000  H
  C25      1.0000 0.90852  0.09370  0.35830  Biso   1.000  C
  C26      1.0000 0.40852  0.59370  0.35830  Biso   1.000  C
  C27      1.0000 0.09148  0.09370  0.14170  Biso   1.000  C
  C28      1.0000 0.59148  0.59370  0.14170  Biso   1.000  C
  C29      1.0000 0.09148  0.90630  0.64170  Biso   1.000  C
  C30      1.0000 0.59148  0.40630  0.64170  Biso   1.000  C
  C31      1.0000 0.90852  0.90630  0.85830  Biso   1.000  C
  C32      1.0000 0.40852  0.40630  0.85830  Biso   1.000  C
  H9       1.0000 0.93390  0.05120  0.42120  Biso   1.000  H
  H10      1.0000 0.43390  0.55120  0.42120  Biso   1.000  H
  H11      1.0000 0.06610  0.05120  0.07880  Biso   1.000  H
  H12      1.0000 0.56610  0.55120  0.07880  Biso   1.000  H
  H13      1.0000 0.06610  0.94880  0.57880  Biso   1.000  H
  H14      1.0000 0.56610  0.44880  0.57880  Biso   1.000  H
  H15      1.0000 0.93390  0.94880  0.92120  Biso   1.000  H
  H16      1.0000 0.43390  0.44880  0.92120  Biso   1.000  H
  C33      1.0000 0.84450  0.06757  0.26940  Biso   1.000  C
  C34      1.0000 0.34450  0.56757  0.26940  Biso   1.000  C
  C35      1.0000 0.15550  0.06757  0.23060  Biso   1.000  C
  C36      1.0000 0.65550  0.56757  0.23060  Biso   1.000  C
  C37      1.0000 0.15550  0.93243  0.73060  Biso   1.000  C
  C38      1.0000 0.65550  0.43243  0.73060  Biso   1.000  C
  C39      1.0000 0.84450  0.93243  0.76940  Biso   1.000  C
  C40      1.0000 0.34450  0.43243  0.76940  Biso   1.000  C
  C41      1.0000 0.80804  0.13050  0.17540  Biso   1.000  C
  C42      1.0000 0.30804  0.63050  0.17540  Biso   1.000  C
  C43      1.0000 0.19196  0.13050  0.32460  Biso   1.000  C
  C44      1.0000 0.69196  0.63050  0.32460  Biso   1.000  C
  C45      1.0000 0.19196  0.86950  0.82460  Biso   1.000  C
  C46      1.0000 0.69196  0.36950  0.82460  Biso   1.000  C
  C47      1.0000 0.80804  0.86950  0.67540  Biso   1.000  C
  C48      1.0000 0.30804  0.36950  0.67540  Biso   1.000  C
  H17      1.0000 0.76430  0.11420  0.11570  Biso   1.000  H
  H18      1.0000 0.26430  0.61420  0.11570  Biso   1.000  H
  H19      1.0000 0.23570  0.11420  0.38430  Biso   1.000  H
  H20      1.0000 0.73570  0.61420  0.38430  Biso   1.000  H
  H21      1.0000 0.23570  0.88580  0.88430  Biso   1.000  H
  H22      1.0000 0.73570  0.38580  0.88430  Biso   1.000  H
  H23      1.0000 0.76430  0.88580  0.61570  Biso   1.000  H
  H24      1.0000 0.26430  0.38580  0.61570  Biso   1.000  H
  C49      1.0000 0.83604  0.21790  0.16900  Biso   1.000  C
  C50      1.0000 0.33604  0.71790  0.16900  Biso   1.000  C
  C51      1.0000 0.16396  0.21790  0.33100  Biso   1.000  C
  C52      1.0000 0.66396  0.71790  0.33100  Biso   1.000  C
  C53      1.0000 0.16396  0.78210  0.83100  Biso   1.000  C
  C54      1.0000 0.66396  0.28210  0.83100  Biso   1.000  C
  C55      1.0000 0.83604  0.78210  0.66900  Biso   1.000  C
  C56      1.0000 0.33604  0.28210  0.66900  Biso   1.000  C
  H25      1.0000 0.81190  0.25850  0.10310  Biso   1.000  H
  H26      1.0000 0.31190  0.75850  0.10310  Biso   1.000  H
  H27      1.0000 0.18810  0.25850  0.39690  Biso   1.000  H
  H28      1.0000 0.68810  0.75850  0.39690  Biso   1.000  H
  H29      1.0000 0.18810  0.74150  0.89690  Biso   1.000  H
  H30      1.0000 0.68810  0.24150  0.89690  Biso   1.000  H
  H31      1.0000 0.81190  0.74150  0.60310  Biso   1.000  H
  H32      1.0000 0.31190  0.24150  0.60310  Biso   1.000  H
  C57      1.0000 0.81098  0.97614  0.27710  Biso   1.000  C
  C58      1.0000 0.31098  0.47614  0.27710  Biso   1.000  C
  C59      1.0000 0.18902  0.97614  0.22290  Biso   1.000  C
  C60      1.0000 0.68902  0.47614  0.22290  Biso   1.000  C
  C61      1.0000 0.18902  0.02386  0.72290  Biso   1.000  C
  C62      1.0000 0.68902  0.52386  0.72290  Biso   1.000  C
  C63      1.0000 0.81098  0.02386  0.77710  Biso   1.000  C
  C64      1.0000 0.31098  0.52386  0.77710  Biso   1.000  C
  C65      1.0000 0.84934  0.88301  0.31060  Biso   1.000  C
  C66      1.0000 0.34934  0.38301  0.31060  Biso   1.000  C
  C67      1.0000 0.15066  0.88301  0.18940  Biso   1.000  C
  C68      1.0000 0.65066  0.38301  0.18940  Biso   1.000  C
  C69      1.0000 0.15066  0.11699  0.68940  Biso   1.000  C
  C70      1.0000 0.65066  0.61699  0.68940  Biso   1.000  C
  C71      1.0000 0.84934  0.11699  0.81060  Biso   1.000  C
  C72      1.0000 0.34934  0.61699  0.81060  Biso   1.000  C
  C73      1.0000 0.83003  0.81030  0.36120  Biso   1.000  C
  C74      1.0000 0.33003  0.31030  0.36120  Biso   1.000  C
  C75      1.0000 0.16997  0.81030  0.13880  Biso   1.000  C
  C76      1.0000 0.66997  0.31030  0.13880  Biso   1.000  C
  C77      1.0000 0.16997  0.18970  0.63880  Biso   1.000  C
  C78      1.0000 0.66997  0.68970  0.63880  Biso   1.000  C
  C79      1.0000 0.83003  0.18970  0.86120  Biso   1.000  C
  C80      1.0000 0.33003  0.68970  0.86120  Biso   1.000  C
  H33      1.0000 0.79530  0.82190  0.37820  Biso   1.000  H
  H34      1.0000 0.29530  0.32190  0.37820  Biso   1.000  H
  H35      1.0000 0.20470  0.82190  0.12180  Biso   1.000  H
  H36      1.0000 0.70470  0.32190  0.12180  Biso   1.000  H
  H37      1.0000 0.20470  0.17810  0.62180  Biso   1.000  H
  H38      1.0000 0.70470  0.67810  0.62180  Biso   1.000  H
  H39      1.0000 0.79530  0.17810  0.87820  Biso   1.000  H
  H40      1.0000 0.29530  0.67810  0.87820  Biso   1.000  H
  C81      1.0000 0.86106  0.72110  0.38700  Biso   1.000  C
  C82      1.0000 0.36106  0.22110  0.38700  Biso   1.000  C
  C83      1.0000 0.13894  0.72110  0.11300  Biso   1.000  C
  C84      1.0000 0.63894  0.22110  0.11300  Biso   1.000  C
  C85      1.0000 0.13894  0.27890  0.61300  Biso   1.000  C
  C86      1.0000 0.63894  0.77890  0.61300  Biso   1.000  C
  C87      1.0000 0.86106  0.27890  0.88700  Biso   1.000  C
  C88      1.0000 0.36106  0.77890  0.88700  Biso   1.000  C
  H41      1.0000 0.84770  0.67340  0.42220  Biso   1.000  H
  H42      1.0000 0.34770  0.17340  0.42220  Biso   1.000  H
  H43      1.0000 0.15230  0.67340  0.07780  Biso   1.000  H
  H44      1.0000 0.65230  0.17340  0.07780  Biso   1.000  H
  H45      1.0000 0.15230  0.32660  0.57780  Biso   1.000  H
  H46      1.0000 0.65230  0.82660  0.57780  Biso   1.000  H
  H47      1.0000 0.84770  0.32660  0.92220  Biso   1.000  H
  H48      1.0000 0.34770  0.82660  0.92220  Biso   1.000  H
  C89      1.0000 0.91209  0.70164  0.36090  Biso   1.000  C
  C90      1.0000 0.41209  0.20164  0.36090  Biso   1.000  C
  C91      1.0000 0.08791  0.70164  0.13910  Biso   1.000  C
  C92      1.0000 0.58791  0.20164  0.13910  Biso   1.000  C
  C93      1.0000 0.08791  0.29836  0.63910  Biso   1.000  C
  C94      1.0000 0.58791  0.79836  0.63910  Biso   1.000  C
  C95      1.0000 0.91209  0.29836  0.86090  Biso   1.000  C
  C96      1.0000 0.41209  0.79836  0.86090  Biso   1.000  C
  C97      1.0000 0.93179  0.77360  0.31110  Biso   1.000  C
  C98      1.0000 0.43179  0.27360  0.31110  Biso   1.000  C
  C99      1.0000 0.06821  0.77360  0.18890  Biso   1.000  C
  C100     1.0000 0.56821  0.27360  0.18890  Biso   1.000  C
  C101     1.0000 0.06821  0.22640  0.68890  Biso   1.000  C
  C102     1.0000 0.56821  0.72640  0.68890  Biso   1.000  C
  C103     1.0000 0.93179  0.22640  0.81110  Biso   1.000  C
  C104     1.0000 0.43179  0.72640  0.81110  Biso   1.000  C
  H49      1.0000 0.96620  0.76130  0.29360  Biso   1.000  H
  H50      1.0000 0.46620  0.26130  0.29360  Biso   1.000  H
  H51      1.0000 0.03380  0.76130  0.20640  Biso   1.000  H
  H52      1.0000 0.53380  0.26130  0.20640  Biso   1.000  H
  H53      1.0000 0.03380  0.23870  0.70640  Biso   1.000  H
  H54      1.0000 0.53380  0.73870  0.70640  Biso   1.000  H
  H55      1.0000 0.96620  0.23870  0.79360  Biso   1.000  H
  H56      1.0000 0.46620  0.73870  0.79360  Biso   1.000  H
  C105     1.0000 0.90156  0.86430  0.28640  Biso   1.000  C
  C106     1.0000 0.40156  0.36430  0.28640  Biso   1.000  C
  C107     1.0000 0.09844  0.86430  0.21360  Biso   1.000  C
  C108     1.0000 0.59844  0.36430  0.21360  Biso   1.000  C
  C109     1.0000 0.09844  0.13570  0.71360  Biso   1.000  C
  C110     1.0000 0.59844  0.63570  0.71360  Biso   1.000  C
  C111     1.0000 0.90156  0.13570  0.78640  Biso   1.000  C
  C112     1.0000 0.40156  0.63570  0.78640  Biso   1.000  C
  H57      1.0000 0.91610  0.91250  0.25370  Biso   1.000  H
  H58      1.0000 0.41610  0.41250  0.25370  Biso   1.000  H
  H59      1.0000 0.08390  0.91250  0.24630  Biso   1.000  H
  H60      1.0000 0.58390  0.41250  0.24630  Biso   1.000  H
  H61      1.0000 0.08390  0.08750  0.74630  Biso   1.000  H
  H62      1.0000 0.58390  0.58750  0.74630  Biso   1.000  H
  H63      1.0000 0.91610  0.08750  0.75370  Biso   1.000  H
  H64      1.0000 0.41610  0.58750  0.75370  Biso   1.000  H
  C113     1.0000 0.94262  0.60144  0.38400  Biso   1.000  C
  C114     1.0000 0.44262  0.10144  0.38400  Biso   1.000  C
  C115     1.0000 0.05738  0.60144  0.11600  Biso   1.000  C
  C116     1.0000 0.55738  0.10144  0.11600  Biso   1.000  C
  C117     1.0000 0.05738  0.39856  0.61600  Biso   1.000  C
  C118     1.0000 0.55738  0.89856  0.61600  Biso   1.000  C
  C119     1.0000 0.94262  0.39856  0.88400  Biso   1.000  C
  C120     1.0000 0.44262  0.89856  0.88400  Biso   1.000  C
  C121     1.0000 0.16790  0.56480  0.39100  Biso   1.000  C
  C122     1.0000 0.66790  0.06480  0.39100  Biso   1.000  C
  C123     1.0000 0.83210  0.56480  0.10900  Biso   1.000  C
  C124     1.0000 0.33210  0.06480  0.10900  Biso   1.000  C
  C125     1.0000 0.83210  0.43520  0.60900  Biso   1.000  C
  C126     1.0000 0.33210  0.93520  0.60900  Biso   1.000  C
  C127     1.0000 0.16790  0.43520  0.89100  Biso   1.000  C
  C128     1.0000 0.66790  0.93520  0.89100  Biso   1.000  C
  H65      1.0000 0.16430  0.51240  0.34250  Biso   1.000  H
  H66      1.0000 0.66430  0.01240  0.34250  Biso   1.000  H
  H67      1.0000 0.83570  0.51240  0.15750  Biso   1.000  H
  H68      1.0000 0.33570  0.01240  0.15750  Biso   1.000  H
  H69      1.0000 0.83570  0.48760  0.65750  Biso   1.000  H
  H70      1.0000 0.33570  0.98760  0.65750  Biso   1.000  H
  H71      1.0000 0.16430  0.48760  0.84250  Biso   1.000  H
  H72      1.0000 0.66430  0.98760  0.84250  Biso   1.000  H
  C129     1.0000 0.21750  0.63236  0.41660  Biso   1.000  C
  C130     1.0000 0.71750  0.13236  0.41660  Biso   1.000  C
  C131     1.0000 0.78250  0.63236  0.08340  Biso   1.000  C
  C132     1.0000 0.28250  0.13236  0.08340  Biso   1.000  C
  C133     1.0000 0.78250  0.36764  0.58340  Biso   1.000  C
  C134     1.0000 0.28250  0.86764  0.58340  Biso   1.000  C
  C135     1.0000 0.21750  0.36764  0.91660  Biso   1.000  C
  C136     1.0000 0.71750  0.86764  0.91660  Biso   1.000  C
  H73      1.0000 0.24680  0.62470  0.38630  Biso   1.000  H
  H74      1.0000 0.74680  0.12470  0.38630  Biso   1.000  H
  H75      1.0000 0.75320  0.62470  0.11370  Biso   1.000  H
  H76      1.0000 0.25320  0.12470  0.11370  Biso   1.000  H
  H77      1.0000 0.75320  0.37530  0.61370  Biso   1.000  H
  H78      1.0000 0.25320  0.87530  0.61370  Biso   1.000  H
  H79      1.0000 0.24680  0.37530  0.88630  Biso   1.000  H
  H80      1.0000 0.74680  0.87530  0.88630  Biso   1.000  H
  C137     1.0000 0.22428  0.71168  0.48710  Biso   1.000  C
  C138     1.0000 0.72428  0.21168  0.48710  Biso   1.000  C
  C139     1.0000 0.77572  0.71168  0.01290  Biso   1.000  C
  C140     1.0000 0.27572  0.21168  0.01290  Biso   1.000  C
  C141     1.0000 0.77572  0.28832  0.51290  Biso   1.000  C
  C142     1.0000 0.27572  0.78832  0.51290  Biso   1.000  C
  C143     1.0000 0.22428  0.28832  0.98710  Biso   1.000  C
  C144     1.0000 0.72428  0.78832  0.98710  Biso   1.000  C
  C145     1.0000 0.18015  0.71530  0.53250  Biso   1.000  C
  C146     1.0000 0.68015  0.21530  0.53250  Biso   1.000  C
  C147     1.0000 0.81985  0.71530  0.96750  Biso   1.000  C
  C148     1.0000 0.31985  0.21530  0.96750  Biso   1.000  C
  C149     1.0000 0.81985  0.28470  0.46750  Biso   1.000  C
  C150     1.0000 0.31985  0.78470  0.46750  Biso   1.000  C
  C151     1.0000 0.18015  0.28470  0.03250  Biso   1.000  C
  C152     1.0000 0.68015  0.78470  0.03250  Biso   1.000  C
  H81      1.0000 0.18330  0.76610  0.58270  Biso   1.000  H
  H82      1.0000 0.68330  0.26610  0.58270  Biso   1.000  H
  H83      1.0000 0.81670  0.76610  0.91730  Biso   1.000  H
  H84      1.0000 0.31670  0.26610  0.91730  Biso   1.000  H
  H85      1.0000 0.81670  0.23390  0.41730  Biso   1.000  H
  H86      1.0000 0.31670  0.73390  0.41730  Biso   1.000  H
  H87      1.0000 0.18330  0.23390  0.08270  Biso   1.000  H
  H88      1.0000 0.68330  0.73390  0.08270  Biso   1.000  H
  C153     1.0000 0.13204  0.64460  0.50370  Biso   1.000  C
  C154     1.0000 0.63204  0.14460  0.50370  Biso   1.000  C
  C155     1.0000 0.86796  0.64460  0.99630  Biso   1.000  C
  C156     1.0000 0.36796  0.14460  0.99630  Biso   1.000  C
  C157     1.0000 0.86796  0.35540  0.49630  Biso   1.000  C
  C158     1.0000 0.36796  0.85540  0.49630  Biso   1.000  C
  C159     1.0000 0.13204  0.35540  0.00370  Biso   1.000  C
  C160     1.0000 0.63204  0.85540  0.00370  Biso   1.000  C
  H89      1.0000 0.10340  0.64870  0.53580  Biso   1.000  H
  H90      1.0000 0.60340  0.14870  0.53580  Biso   1.000  H
  H91      1.0000 0.89660  0.64870  0.96420  Biso   1.000  H
  H92      1.0000 0.39660  0.14870  0.96420  Biso   1.000  H
  H93      1.0000 0.89660  0.35130  0.46420  Biso   1.000  H
  H94      1.0000 0.39660  0.85130  0.46420  Biso   1.000  H
  H95      1.0000 0.10340  0.35130  0.03580  Biso   1.000  H
  H96      1.0000 0.60340  0.85130  0.03580  Biso   1.000  H
