data_image0
_cell_length_a       10.073
_cell_length_b       16.372
_cell_length_c       9.746
_cell_angle_alpha    90
_cell_angle_beta     110.08
_cell_angle_gamma    90

_symmetry_space_group_name_H-M    "P 1"
_symmetry_int_tables_number       1

loop_
  _symmetry_equiv_pos_as_xyz
  'x, y, z'

loop_
  _atom_site_label
  _atom_site_occupancy
  _atom_site_fract_x
  _atom_site_fract_y
  _atom_site_fract_z
  _atom_site_thermal_displace_type
  _atom_site_B_iso_or_equiv
  _atom_site_type_symbol
  O1       1.0000 0.83440  0.17670  0.85560  Biso   1.000  O
  O2       1.0000 0.33440  0.67670  0.85560  Biso   1.000  O
  O3       1.0000 0.83440  0.82330  0.35560  Biso   1.000  O
  O4       1.0000 0.33440  0.32330  0.35560  Biso   1.000  O
  O5       1.0000 0.10500  0.18200  0.10780  Biso   1.000  O
  O6       1.0000 0.60500  0.68200  0.10780  Biso   1.000  O
  O7       1.0000 0.10500  0.81800  0.60780  Biso   1.000  O
  O8       1.0000 0.60500  0.31800  0.60780  Biso   1.000  O
  N1       1.0000 0.89500  0.99730  0.86040  Biso   1.000  N
  N2       1.0000 0.39500  0.49730  0.86040  Biso   1.000  N
  N3       1.0000 0.89500  0.00270  0.36040  Biso   1.000  N
  N4       1.0000 0.39500  0.50270  0.36040  Biso   1.000  N
  C1       1.0000 0.77670  0.95680  0.85310  Biso   1.000  C
  C2       1.0000 0.27670  0.45680  0.85310  Biso   1.000  C
  C3       1.0000 0.77670  0.04320  0.35310  Biso   1.000  C
  C4       1.0000 0.27670  0.54320  0.35310  Biso   1.000  C
  C5       1.0000 0.71490  0.90180  0.74410  Biso   1.000  C
  C6       1.0000 0.21490  0.40180  0.74410  Biso   1.000  C
  C7       1.0000 0.71490  0.09820  0.24410  Biso   1.000  C
  C8       1.0000 0.21490  0.59820  0.24410  Biso   1.000  C
  C9       1.0000 0.77690  0.88860  0.64040  Biso   1.000  C
  C10      1.0000 0.27690  0.38860  0.64040  Biso   1.000  C
  C11      1.0000 0.77690  0.11140  0.14040  Biso   1.000  C
  C12      1.0000 0.27690  0.61140  0.14040  Biso   1.000  C
  N5       1.0000 0.89530  0.93030  0.64460  Biso   1.000  N
  N6       1.0000 0.39530  0.43030  0.64460  Biso   1.000  N
  N7       1.0000 0.89530  0.06970  0.14460  Biso   1.000  N
  N8       1.0000 0.39530  0.56970  0.14460  Biso   1.000  N
  C13      1.0000 0.95000  0.98050  0.75550  Biso   1.000  C
  C14      1.0000 0.45000  0.48050  0.75550  Biso   1.000  C
  C15      1.0000 0.95000  0.01950  0.25550  Biso   1.000  C
  C16      1.0000 0.45000  0.51950  0.25550  Biso   1.000  C
  C17      1.0000 0.08360  0.02380  0.76920  Biso   1.000  C
  C18      1.0000 0.58360  0.52380  0.76920  Biso   1.000  C
  C19      1.0000 0.08360  0.97620  0.26920  Biso   1.000  C
  C20      1.0000 0.58360  0.47620  0.26920  Biso   1.000  C
  N9       1.0000 0.14640  0.00660  0.67650  Biso   1.000  N
  N10      1.0000 0.64640  0.50660  0.67650  Biso   1.000  N
  N11      1.0000 0.14640  0.99340  0.17650  Biso   1.000  N
  N12      1.0000 0.64640  0.49340  0.17650  Biso   1.000  N
  C21      1.0000 0.24340  0.11940  0.89130  Biso   1.000  C
  C22      1.0000 0.74340  0.61940  0.89130  Biso   1.000  C
  C23      1.0000 0.24340  0.88060  0.39130  Biso   1.000  C
  C24      1.0000 0.74340  0.38060  0.39130  Biso   1.000  C
  C25      1.0000 0.31800  0.10490  0.79900  Biso   1.000  C
  C26      1.0000 0.81800  0.60490  0.79900  Biso   1.000  C
  C27      1.0000 0.31800  0.89510  0.29900  Biso   1.000  C
  C28      1.0000 0.81800  0.39510  0.29900  Biso   1.000  C
  C29      1.0000 0.26550  0.04680  0.69160  Biso   1.000  C
  C30      1.0000 0.76550  0.54680  0.69160  Biso   1.000  C
  C31      1.0000 0.26550  0.95320  0.19160  Biso   1.000  C
  C32      1.0000 0.76550  0.45320  0.19160  Biso   1.000  C
  N13      1.0000 0.12610  0.07920  0.87750  Biso   1.000  N
  N14      1.0000 0.62610  0.57920  0.87750  Biso   1.000  N
  N15      1.0000 0.12610  0.92080  0.37750  Biso   1.000  N
  N16      1.0000 0.62610  0.42080  0.37750  Biso   1.000  N
  Cu1      1.0000 0.00000  0.08709  0.00000  Biso   1.000  Cu
  Cu2      1.0000 0.50000  0.58709  0.00000  Biso   1.000  Cu
  Cu3      1.0000 0.00000  0.91291  0.50000  Biso   1.000  Cu
  Cu4      1.0000 0.50000  0.41291  0.50000  Biso   1.000  Cu
  H1       1.0000 0.75900  0.14700  0.78700  Biso   1.000  H
  H2       1.0000 0.25900  0.64700  0.78700  Biso   1.000  H
  H3       1.0000 0.75900  0.85300  0.28700  Biso   1.000  H
  H4       1.0000 0.25900  0.35300  0.28700  Biso   1.000  H
  H5       1.0000 0.87100  0.20900  0.79400  Biso   1.000  H
  H6       1.0000 0.37100  0.70900  0.79400  Biso   1.000  H
  H7       1.0000 0.87100  0.79100  0.29400  Biso   1.000  H
  H8       1.0000 0.37100  0.29100  0.29400  Biso   1.000  H
  H9       1.0000 0.06000  0.23400  0.09500  Biso   1.000  H
  H10      1.0000 0.56000  0.73400  0.09500  Biso   1.000  H
  H11      1.0000 0.06000  0.76600  0.59500  Biso   1.000  H
  H12      1.0000 0.56000  0.26600  0.59500  Biso   1.000  H
  H13      1.0000 0.15500  0.18000  0.21100  Biso   1.000  H
  H14      1.0000 0.65500  0.68000  0.21100  Biso   1.000  H
  H15      1.0000 0.15500  0.82000  0.71100  Biso   1.000  H
  H16      1.0000 0.65500  0.32000  0.71100  Biso   1.000  H
  H17      1.0000 0.73780  0.97050  0.92580  Biso   1.000  H
  H18      1.0000 0.23780  0.47050  0.92580  Biso   1.000  H
  H19      1.0000 0.73780  0.02950  0.42580  Biso   1.000  H
  H20      1.0000 0.23780  0.52950  0.42580  Biso   1.000  H
  H21      1.0000 0.63520  0.87470  0.73140  Biso   1.000  H
  H22      1.0000 0.13520  0.37470  0.73140  Biso   1.000  H
  H23      1.0000 0.63520  0.12530  0.23140  Biso   1.000  H
  H24      1.0000 0.13520  0.62530  0.23140  Biso   1.000  H
  H25      1.0000 0.75490  0.84200  0.56920  Biso   1.000  H
  H26      1.0000 0.25490  0.34200  0.56920  Biso   1.000  H
  H27      1.0000 0.75490  0.15800  0.06920  Biso   1.000  H
  H28      1.0000 0.25490  0.65800  0.06920  Biso   1.000  H
  H29      1.0000 0.27190  0.15450  0.96870  Biso   1.000  H
  H30      1.0000 0.77190  0.65450  0.96870  Biso   1.000  H
  H31      1.0000 0.27190  0.84550  0.46870  Biso   1.000  H
  H32      1.0000 0.77190  0.34550  0.46870  Biso   1.000  H
  H33      1.0000 0.40200  0.14820  0.79400  Biso   1.000  H
  H34      1.0000 0.90200  0.64820  0.79400  Biso   1.000  H
  H35      1.0000 0.40200  0.85180  0.29400  Biso   1.000  H
  H36      1.0000 0.90200  0.35180  0.29400  Biso   1.000  H
  H37      1.0000 0.31170  0.03020  0.62280  Biso   1.000  H
  H38      1.0000 0.81170  0.53020  0.62280  Biso   1.000  H
  H39      1.0000 0.31170  0.96980  0.12280  Biso   1.000  H
  H40      1.0000 0.81170  0.46980  0.12280  Biso   1.000  H
  N17      1.0000 0.98350  0.22750  0.59550  Biso   1.000  N
  N18      1.0000 0.48350  0.72750  0.59550  Biso   1.000  N
  N19      1.0000 0.98350  0.77250  0.09550  Biso   1.000  N
  N20      1.0000 0.48350  0.27250  0.09550  Biso   1.000  N
  O9       1.0000 0.96480  0.26820  0.69590  Biso   1.000  O
  O10      1.0000 0.46480  0.76820  0.69590  Biso   1.000  O
  O11      1.0000 0.96480  0.73180  0.19590  Biso   1.000  O
  O12      1.0000 0.46480  0.23180  0.19590  Biso   1.000  O
  O13      1.0000 0.95070  0.15520  0.58170  Biso   1.000  O
  O14      1.0000 0.45070  0.65520  0.58170  Biso   1.000  O
  O15      1.0000 0.95070  0.84480  0.08170  Biso   1.000  O
  O16      1.0000 0.45070  0.34480  0.08170  Biso   1.000  O
  O17      1.0000 0.03830  0.26040  0.51430  Biso   1.000  O
  O18      1.0000 0.53830  0.76040  0.51430  Biso   1.000  O
  O19      1.0000 0.03830  0.73960  0.01430  Biso   1.000  O
  O20      1.0000 0.53830  0.23960  0.01430  Biso   1.000  O
  N21      1.0000 0.03260  0.39540  0.04210  Biso   1.000  N
  N22      1.0000 0.53260  0.89540  0.04210  Biso   1.000  N
  N23      1.0000 0.03260  0.60460  0.54210  Biso   1.000  N
  N24      1.0000 0.53260  0.10460  0.54210  Biso   1.000  N
  O21      1.0000 0.15670  0.40640  0.11350  Biso   1.000  O
  O22      1.0000 0.65670  0.90640  0.11350  Biso   1.000  O
  O23      1.0000 0.15670  0.59360  0.61350  Biso   1.000  O
  O24      1.0000 0.65670  0.09360  0.61350  Biso   1.000  O
  O25      1.0000 0.97130  0.44820  0.95580  Biso   1.000  O
  O26      1.0000 0.47130  0.94820  0.95580  Biso   1.000  O
  O27      1.0000 0.97130  0.55180  0.45580  Biso   1.000  O
  O28      1.0000 0.47130  0.05180  0.45580  Biso   1.000  O
  O29      1.0000 0.96900  0.33260  0.05460  Biso   1.000  O
  O30      1.0000 0.46900  0.83260  0.05460  Biso   1.000  O
  O31      1.0000 0.96900  0.66740  0.55460  Biso   1.000  O
  O32      1.0000 0.46900  0.16740  0.55460  Biso   1.000  O
  O33      1.0000 0.17330  0.14960  0.38570  Biso   1.000  O
  O34      1.0000 0.67330  0.64960  0.38570  Biso   1.000  O
  O35      1.0000 0.17330  0.85040  0.88570  Biso   1.000  O
  O36      1.0000 0.67330  0.35040  0.88570  Biso   1.000  O
  H41      1.0000 0.14000  0.18100  0.45000  Biso   1.000  H
  H42      1.0000 0.64000  0.68100  0.45000  Biso   1.000  H
  H43      1.0000 0.14000  0.81900  0.95000  Biso   1.000  H
  H44      1.0000 0.64000  0.31900  0.95000  Biso   1.000  H
  H45      1.0000 0.27300  0.15100  0.43500  Biso   1.000  H
  H46      1.0000 0.77300  0.65100  0.43500  Biso   1.000  H
  H47      1.0000 0.27300  0.84900  0.93500  Biso   1.000  H
  H48      1.0000 0.77300  0.34900  0.93500  Biso   1.000  H
