data_image0
_cell_length_a       8.868
_cell_length_b       13.752
_cell_length_c       9.848
_cell_angle_alpha    90
_cell_angle_beta     116.35
_cell_angle_gamma    90

_symmetry_space_group_name_H-M    "P 1"
_symmetry_int_tables_number       1

loop_
  _symmetry_equiv_pos_as_xyz
  'x, y, z'

loop_
  _atom_site_label
  _atom_site_occupancy
  _atom_site_fract_x
  _atom_site_fract_y
  _atom_site_fract_z
  _atom_site_thermal_displace_type
  _atom_site_B_iso_or_equiv
  _atom_site_type_symbol
  Cu1      1.0000 0.08198  0.35163  0.52887  Biso   1.000  Cu
  Cu2      1.0000 0.58198  0.64837  0.02887  Biso   1.000  Cu
  Cu3      1.0000 0.00000  0.15103  0.00000  Biso   1.000  Cu
  Cu4      1.0000 0.50000  0.84897  0.50000  Biso   1.000  Cu
  N1       1.0000 0.87870  0.16650  0.12470  Biso   1.000  N
  N2       1.0000 0.37870  0.83350  0.62470  Biso   1.000  N
  N3       1.0000 0.90240  0.23320  0.35610  Biso   1.000  N
  N4       1.0000 0.40240  0.76680  0.85610  Biso   1.000  N
  N5       1.0000 0.16610  0.24310  0.16840  Biso   1.000  N
  N6       1.0000 0.66610  0.75690  0.66840  Biso   1.000  N
  N7       1.0000 0.20140  0.31560  0.39690  Biso   1.000  N
  N8       1.0000 0.70140  0.68440  0.89690  Biso   1.000  N
  N9       1.0000 0.13390  0.15560  0.87300  Biso   1.000  N
  N10      1.0000 0.63390  0.84440  0.37300  Biso   1.000  N
  N11      1.0000 0.17690  0.23490  0.67960  Biso   1.000  N
  N12      1.0000 0.67690  0.76510  0.17960  Biso   1.000  N
  N13      1.0000 0.90030  0.29650  0.84290  Biso   1.000  N
  N14      1.0000 0.40030  0.70350  0.34290  Biso   1.000  N
  N15      1.0000 0.94620  0.36680  0.64470  Biso   1.000  N
  N16      1.0000 0.44620  0.63320  0.14470  Biso   1.000  N
  S1       1.0000 0.77200  0.97920  0.79850  Biso   1.000  S
  S2       1.0000 0.27200  0.02080  0.29850  Biso   1.000  S
  O1       1.0000 0.81280  0.08520  0.83560  Biso   1.000  O
  O2       1.0000 0.31280  0.91480  0.33560  Biso   1.000  O
  O3       1.0000 0.65410  0.97630  0.63800  Biso   1.000  O
  O4       1.0000 0.15410  0.02370  0.13800  Biso   1.000  O
  O5       1.0000 0.69460  0.94160  0.89140  Biso   1.000  O
  O6       1.0000 0.19460  0.05840  0.39140  Biso   1.000  O
  O7       1.0000 0.92570  0.92750  0.82720  Biso   1.000  O
  O8       1.0000 0.42570  0.07250  0.32720  Biso   1.000  O
  S3       1.0000 0.84760  0.46980  0.24410  Biso   1.000  S
  S4       1.0000 0.34760  0.53020  0.74410  Biso   1.000  S
  O9       1.0000 0.98630  0.46620  0.40560  Biso   1.000  O
  O10      1.0000 0.48630  0.53380  0.90560  Biso   1.000  O
  O11      1.0000 0.82050  0.57430  0.20600  Biso   1.000  O
  O12      1.0000 0.32050  0.42570  0.70600  Biso   1.000  O
  O13      1.0000 0.90550  0.42220  0.14450  Biso   1.000  O
  O14      1.0000 0.40550  0.57780  0.64450  Biso   1.000  O
  O15      1.0000 0.69710  0.42520  0.23930  Biso   1.000  O
  O16      1.0000 0.19710  0.57480  0.73930  Biso   1.000  O
  O17      1.0000 0.99100  0.68760  0.47320  Biso   1.000  O
  O18      1.0000 0.49100  0.31240  0.97320  Biso   1.000  O
  O19      1.0000 0.09290  0.80460  0.07870  Biso   1.000  O
  O20      1.0000 0.59290  0.19540  0.57870  Biso   1.000  O
  C1       1.0000 0.95570  0.21780  0.25160  Biso   1.000  C
  C2       1.0000 0.45570  0.78220  0.75160  Biso   1.000  C
  C3       1.0000 0.33160  0.09260  0.79100  Biso   1.000  C
  C4       1.0000 0.83160  0.90740  0.29100  Biso   1.000  C
  C5       1.0000 0.11740  0.26130  0.27450  Biso   1.000  C
  C6       1.0000 0.61740  0.73870  0.77450  Biso   1.000  C
  C7       1.0000 0.29190  0.16840  0.68920  Biso   1.000  C
  C8       1.0000 0.79190  0.83160  0.18920  Biso   1.000  C
  C9       1.0000 0.34810  0.35440  0.41620  Biso   1.000  C
  C10      1.0000 0.84810  0.64560  0.91620  Biso   1.000  C
  C11      1.0000 0.75520  0.19190  0.32990  Biso   1.000  C
  C12      1.0000 0.25520  0.80810  0.82990  Biso   1.000  C
  C13      1.0000 0.10190  0.22580  0.77010  Biso   1.000  C
  C14      1.0000 0.60190  0.77420  0.27010  Biso   1.000  C
  C15      1.0000 0.97470  0.30040  0.75200  Biso   1.000  C
  C16      1.0000 0.47470  0.69960  0.25200  Biso   1.000  C
  C17      1.0000 0.31020  0.28370  0.18470  Biso   1.000  C
  C18      1.0000 0.81020  0.71630  0.68470  Biso   1.000  C
  C19      1.0000 0.78160  0.36290  0.81810  Biso   1.000  C
  C20      1.0000 0.28160  0.63710  0.31810  Biso   1.000  C
  C21      1.0000 0.24810  0.08800  0.88340  Biso   1.000  C
  C22      1.0000 0.74810  0.91200  0.38340  Biso   1.000  C
  C23      1.0000 0.74340  0.43370  0.70750  Biso   1.000  C
  C24      1.0000 0.24340  0.56630  0.20750  Biso   1.000  C
  C25      1.0000 0.40520  0.34080  0.30630  Biso   1.000  C
  C26      1.0000 0.90520  0.65920  0.80630  Biso   1.000  C
  C27      1.0000 0.83010  0.43460  0.62430  Biso   1.000  C
  C28      1.0000 0.33010  0.56540  0.12430  Biso   1.000  C
  C29      1.0000 0.66600  0.13750  0.20290  Biso   1.000  C
  C30      1.0000 0.16600  0.86250  0.70290  Biso   1.000  C
  C31      1.0000 0.73240  0.12480  0.10220  Biso   1.000  C
  C32      1.0000 0.23240  0.87520  0.60220  Biso   1.000  C
  H1       1.0000 0.09300  0.65200  0.53000  Biso   1.000  H
  H2       1.0000 0.59300  0.34800  0.03000  Biso   1.000  H
  H3       1.0000 0.95300  0.65800  0.37600  Biso   1.000  H
  H4       1.0000 0.45300  0.34200  0.87600  Biso   1.000  H
  H5       1.0000 0.18400  0.84600  0.14400  Biso   1.000  H
  H6       1.0000 0.68400  0.15400  0.64400  Biso   1.000  H
  H7       1.0000 0.04900  0.84400  0.98900  Biso   1.000  H
  H8       1.0000 0.54900  0.15600  0.48900  Biso   1.000  H
  H9       1.0000 0.67340  0.08610  0.01290  Biso   1.000  H
  H10      1.0000 0.17340  0.91390  0.51290  Biso   1.000  H
  H11      1.0000 0.56100  0.10810  0.18630  Biso   1.000  H
  H12      1.0000 0.06100  0.89190  0.68630  Biso   1.000  H
  H13      1.0000 0.71150  0.20130  0.40230  Biso   1.000  H
  H14      1.0000 0.21150  0.79870  0.90230  Biso   1.000  H
  H15      1.0000 0.34770  0.27240  0.10830  Biso   1.000  H
  H16      1.0000 0.84770  0.72760  0.60830  Biso   1.000  H
  H17      1.0000 0.50800  0.37040  0.31710  Biso   1.000  H
  H18      1.0000 0.00800  0.62960  0.81710  Biso   1.000  H
  H19      1.0000 0.41280  0.39230  0.50510  Biso   1.000  H
  H20      1.0000 0.91280  0.60770  0.00510  Biso   1.000  H
  H21      1.0000 0.27140  0.03520  0.95380  Biso   1.000  H
  H22      1.0000 0.77140  0.96480  0.45380  Biso   1.000  H
  H23      1.0000 0.41470  0.04500  0.79990  Biso   1.000  H
  H24      1.0000 0.91470  0.95500  0.29990  Biso   1.000  H
  H25      1.0000 0.32800  0.18810  0.61480  Biso   1.000  H
  H26      1.0000 0.82800  0.81190  0.11480  Biso   1.000  H
  H27      1.0000 0.72320  0.36220  0.88010  Biso   1.000  H
  H28      1.0000 0.22320  0.63780  0.38010  Biso   1.000  H
  H29      1.0000 0.65750  0.48100  0.69150  Biso   1.000  H
  H30      1.0000 0.15750  0.51900  0.19150  Biso   1.000  H
  H31      1.0000 0.82980  0.47420  0.54390  Biso   1.000  H
  H32      1.0000 0.32980  0.52580  0.04390  Biso   1.000  H
