data_image0
_cell_length_a       9.834
_cell_length_b       13.753
_cell_length_c       9.89
_cell_angle_alpha    90
_cell_angle_beta     126.61
_cell_angle_gamma    90

_symmetry_space_group_name_H-M    "P 1"
_symmetry_int_tables_number       1

loop_
  _symmetry_equiv_pos_as_xyz
  'x, y, z'

loop_
  _atom_site_label
  _atom_site_occupancy
  _atom_site_fract_x
  _atom_site_fract_y
  _atom_site_fract_z
  _atom_site_thermal_displace_type
  _atom_site_B_iso_or_equiv
  _atom_site_type_symbol
  Cu1      1.0000 0.22340  0.39942  0.95920  Biso   1.000  Cu
  Cu2      1.0000 0.77660  0.89942  0.54080  Biso   1.000  Cu
  Cu3      1.0000 0.77660  0.60058  0.04080  Biso   1.000  Cu
  Cu4      1.0000 0.22340  0.10058  0.45920  Biso   1.000  Cu
  S1       1.0000 0.18550  0.22440  0.71290  Biso   1.000  S
  S2       1.0000 0.81450  0.72440  0.78710  Biso   1.000  S
  S3       1.0000 0.81450  0.77560  0.28710  Biso   1.000  S
  S4       1.0000 0.18550  0.27560  0.21290  Biso   1.000  S
  O1       1.0000 0.18300  0.33200  0.74700  Biso   1.000  O
  O2       1.0000 0.81700  0.83200  0.75300  Biso   1.000  O
  O3       1.0000 0.81700  0.66800  0.25300  Biso   1.000  O
  O4       1.0000 0.18300  0.16800  0.24700  Biso   1.000  O
  O5       1.0000 0.31700  0.17400  0.86200  Biso   1.000  O
  O6       1.0000 0.68300  0.67400  0.63800  Biso   1.000  O
  O7       1.0000 0.68300  0.82600  0.13800  Biso   1.000  O
  O8       1.0000 0.31700  0.32600  0.36200  Biso   1.000  O
  O9       1.0000 0.21600  0.27810  0.08000  Biso   1.000  O
  O10      1.0000 0.78400  0.77810  0.42000  Biso   1.000  O
  O11      1.0000 0.78400  0.72190  0.92000  Biso   1.000  O
  O12      1.0000 0.21600  0.22190  0.58000  Biso   1.000  O
  O13      1.0000 0.02200  0.18280  0.64600  Biso   1.000  O
  O14      1.0000 0.97800  0.68280  0.85400  Biso   1.000  O
  O15      1.0000 0.97800  0.81720  0.35400  Biso   1.000  O
  O16      1.0000 0.02200  0.31720  0.14600  Biso   1.000  O
  O17      1.0000 0.24800  0.43790  0.55300  Biso   1.000  O
  O18      1.0000 0.75200  0.93790  0.94700  Biso   1.000  O
  O19      1.0000 0.75200  0.56210  0.44700  Biso   1.000  O
  O20      1.0000 0.24800  0.06210  0.05300  Biso   1.000  O
  N1       1.0000 0.27900  0.53010  0.86200  Biso   1.000  N
  N2       1.0000 0.72100  0.03010  0.63800  Biso   1.000  N
  N3       1.0000 0.72100  0.46990  0.13800  Biso   1.000  N
  N4       1.0000 0.27900  0.96990  0.36200  Biso   1.000  N
  N5       1.0000 0.48000  0.39510  0.09500  Biso   1.000  N
  N6       1.0000 0.52000  0.89510  0.40500  Biso   1.000  N
  N7       1.0000 0.52000  0.60490  0.90500  Biso   1.000  N
  N8       1.0000 0.48000  0.10490  0.59500  Biso   1.000  N
  N9       1.0000 0.97300  0.42860  0.83800  Biso   1.000  N
  N10      1.0000 0.02700  0.92860  0.66200  Biso   1.000  N
  N11      1.0000 0.02700  0.57140  0.16200  Biso   1.000  N
  N12      1.0000 0.97300  0.07140  0.33800  Biso   1.000  N
  N13      1.0000 0.22600  0.50460  0.13200  Biso   1.000  N
  N14      1.0000 0.77400  0.00460  0.36800  Biso   1.000  N
  N15      1.0000 0.77400  0.49540  0.86800  Biso   1.000  N
  N16      1.0000 0.22600  0.99540  0.63200  Biso   1.000  N
  C1       1.0000 0.18100  0.59900  0.74400  Biso   1.000  C
  C2       1.0000 0.81900  0.09900  0.75600  Biso   1.000  C
  C3       1.0000 0.81900  0.40100  0.25600  Biso   1.000  C
  C4       1.0000 0.18100  0.90100  0.24400  Biso   1.000  C
  C5       1.0000 0.24800  0.67100  0.70700  Biso   1.000  C
  C6       1.0000 0.75200  0.17100  0.79300  Biso   1.000  C
  C7       1.0000 0.75200  0.32900  0.29300  Biso   1.000  C
  C8       1.0000 0.24800  0.82900  0.20700  Biso   1.000  C
  C9       1.0000 0.58000  0.32600  0.21200  Biso   1.000  C
  C10      1.0000 0.42000  0.82600  0.28800  Biso   1.000  C
  C11      1.0000 0.42000  0.67400  0.78800  Biso   1.000  C
  C12      1.0000 0.58000  0.17400  0.71200  Biso   1.000  C
  C13      1.0000 0.44400  0.53740  0.93500  Biso   1.000  C
  C14      1.0000 0.55600  0.03740  0.56500  Biso   1.000  C
  C15      1.0000 0.55600  0.46260  0.06500  Biso   1.000  C
  C16      1.0000 0.44400  0.96260  0.43500  Biso   1.000  C
  C17      1.0000 0.84800  0.38280  0.69400  Biso   1.000  C
  C18      1.0000 0.15200  0.88280  0.80600  Biso   1.000  C
  C19      1.0000 0.15200  0.61720  0.30600  Biso   1.000  C
  C20      1.0000 0.84800  0.11720  0.19400  Biso   1.000  C
  C21      1.0000 0.68100  0.39800  0.63100  Biso   1.000  C
  C22      1.0000 0.31900  0.89800  0.86900  Biso   1.000  C
  C23      1.0000 0.31900  0.60200  0.36900  Biso   1.000  C
  C24      1.0000 0.68100  0.10200  0.13100  Biso   1.000  C
  C25      1.0000 0.35200  0.54600  0.28000  Biso   1.000  C
  C26      1.0000 0.64800  0.04600  0.22000  Biso   1.000  C
  C27      1.0000 0.64800  0.45400  0.72000  Biso   1.000  C
  C28      1.0000 0.35200  0.95400  0.78000  Biso   1.000  C
  C29      1.0000 0.93300  0.47960  0.92200  Biso   1.000  C
  C30      1.0000 0.06700  0.97960  0.57800  Biso   1.000  C
  C31      1.0000 0.06700  0.52040  0.07800  Biso   1.000  C
  C32      1.0000 0.93300  0.02040  0.42200  Biso   1.000  C
  H1       1.0000 0.06250  0.59720  0.68720  Biso   1.000  H
  H2       1.0000 0.93750  0.09720  0.81280  Biso   1.000  H
  H3       1.0000 0.93750  0.40280  0.31280  Biso   1.000  H
  H4       1.0000 0.06250  0.90280  0.18720  Biso   1.000  H
  H5       1.0000 0.17460  0.71830  0.62420  Biso   1.000  H
  H6       1.0000 0.82540  0.21830  0.87580  Biso   1.000  H
  H7       1.0000 0.82540  0.28170  0.37580  Biso   1.000  H
  H8       1.0000 0.17460  0.78170  0.12420  Biso   1.000  H
  H9       1.0000 0.53250  0.27540  0.23640  Biso   1.000  H
  H10      1.0000 0.46750  0.77540  0.26360  Biso   1.000  H
  H11      1.0000 0.46750  0.72460  0.76360  Biso   1.000  H
  H12      1.0000 0.53250  0.22460  0.73640  Biso   1.000  H
  H13      1.0000 0.87860  0.34080  0.63840  Biso   1.000  H
  H14      1.0000 0.12140  0.84080  0.86160  Biso   1.000  H
  H15      1.0000 0.12140  0.65920  0.36160  Biso   1.000  H
  H16      1.0000 0.87860  0.15920  0.13840  Biso   1.000  H
  H17      1.0000 0.59190  0.36880  0.52720  Biso   1.000  H
  H18      1.0000 0.40810  0.86880  0.97280  Biso   1.000  H
  H19      1.0000 0.40810  0.63120  0.47280  Biso   1.000  H
  H20      1.0000 0.59190  0.13120  0.02720  Biso   1.000  H
  H21      1.0000 0.46600  0.53590  0.32070  Biso   1.000  H
  H22      1.0000 0.53400  0.03590  0.17930  Biso   1.000  H
  H23      1.0000 0.53400  0.46410  0.67930  Biso   1.000  H
  H24      1.0000 0.46600  0.96410  0.82070  Biso   1.000  H
  H25      1.0000 0.27410  0.41420  0.50600  Biso   1.000  H
  H26      1.0000 0.72590  0.91420  0.99400  Biso   1.000  H
  H27      1.0000 0.72590  0.58580  0.49400  Biso   1.000  H
  H28      1.0000 0.27410  0.08580  0.00600  Biso   1.000  H
  H29      1.0000 0.27000  0.39730  0.65560  Biso   1.000  H
  H30      1.0000 0.73000  0.89730  0.84440  Biso   1.000  H
  H31      1.0000 0.73000  0.60270  0.34440  Biso   1.000  H
  H32      1.0000 0.27000  0.10270  0.15560  Biso   1.000  H
