data_image0
_cell_length_a       8.199
_cell_length_b       8.633
_cell_length_c       10.049
_cell_angle_alpha    114.47
_cell_angle_beta     92.67
_cell_angle_gamma    90.48

_symmetry_space_group_name_H-M    "P 1"
_symmetry_int_tables_number       1

loop_
  _symmetry_equiv_pos_as_xyz
  'x, y, z'

loop_
  _atom_site_label
  _atom_site_occupancy
  _atom_site_fract_x
  _atom_site_fract_y
  _atom_site_fract_z
  _atom_site_thermal_displace_type
  _atom_site_B_iso_or_equiv
  _atom_site_type_symbol
  N1       1.0000 0.87890  0.34810  0.84890  Biso   1.000  N
  N2       1.0000 0.12110  0.65190  0.15110  Biso   1.000  N
  C1       1.0000 0.73420  0.26510  0.82520  Biso   1.000  C
  C2       1.0000 0.26580  0.73490  0.17480  Biso   1.000  C
  C3       1.0000 0.63190  0.29640  0.93840  Biso   1.000  C
  C4       1.0000 0.36810  0.70360  0.06160  Biso   1.000  C
  C5       1.0000 0.68200  0.41390  0.07730  Biso   1.000  C
  C6       1.0000 0.31800  0.58610  0.92270  Biso   1.000  C
  N3       1.0000 0.82970  0.49280  0.10170  Biso   1.000  N
  N4       1.0000 0.17030  0.50720  0.89830  Biso   1.000  N
  C7       1.0000 0.91880  0.45650  0.98630  Biso   1.000  C
  C8       1.0000 0.08120  0.54350  0.01370  Biso   1.000  C
  N5       1.0000 0.93120  0.20500  0.51530  Biso   1.000  N
  N6       1.0000 0.06880  0.79500  0.48470  Biso   1.000  N
  C9       1.0000 0.84300  0.26850  0.43480  Biso   1.000  C
  C10      1.0000 0.15700  0.73150  0.56520  Biso   1.000  C
  C11      1.0000 0.78000  0.16450  0.29660  Biso   1.000  C
  C12      1.0000 0.22000  0.83550  0.70340  Biso   1.000  C
  C13      1.0000 0.80960  0.99320  0.24250  Biso   1.000  C
  C14      1.0000 0.19040  0.00680  0.75750  Biso   1.000  C
  N7       1.0000 0.89510  0.92840  0.32340  Biso   1.000  N
  N8       1.0000 0.10490  0.07160  0.67660  Biso   1.000  N
  C15      1.0000 0.95240  0.03600  0.45510  Biso   1.000  C
  C16      1.0000 0.04760  0.96400  0.54490  Biso   1.000  C
  O1       1.0000 0.76790  0.61330  0.39600  Biso   1.000  O
  O2       1.0000 0.23210  0.38670  0.60400  Biso   1.000  O
  O3       1.0000 0.44950  0.68010  0.40750  Biso   1.000  O
  O4       1.0000 0.55050  0.31990  0.59250  Biso   1.000  O
  O5       1.0000 0.66400  0.92850  0.54190  Biso   1.000  O
  O6       1.0000 0.33600  0.07150  0.45810  Biso   1.000  O
  O7       1.0000 0.60830  0.69880  0.65830  Biso   1.000  O
  O8       1.0000 0.39170  0.30120  0.34170  Biso   1.000  O
  O9       1.0000 0.29670  0.30560  0.07590  Biso   1.000  O
  O10      1.0000 0.70330  0.69440  0.92410  Biso   1.000  O
  O11      1.0000 0.08130  0.39880  0.28250  Biso   1.000  O
  O12      1.0000 0.91870  0.60120  0.71750  Biso   1.000  O
  O13      1.0000 0.15810  0.07610  0.14860  Biso   1.000  O
  O14      1.0000 0.84190  0.92390  0.85140  Biso   1.000  O
  Cu1      1.0000 0.05249  0.34966  0.70653  Biso   1.000  Cu
  Cu2      1.0000 0.94751  0.65034  0.29347  Biso   1.000  Cu
  Cr1      1.0000 0.62152  0.73195  0.49783  Biso   1.000  Cr
  Cr2      1.0000 0.37848  0.26805  0.50217  Biso   1.000  Cr
  Cr3      1.0000 0.22588  0.26893  0.20772  Biso   1.000  Cr
  Cr4      1.0000 0.77412  0.73107  0.79228  Biso   1.000  Cr
  H1       1.0000 0.70160  0.18270  0.72850  Biso   1.000  H
  H2       1.0000 0.29840  0.81730  0.27150  Biso   1.000  H
  H3       1.0000 0.52740  0.23840  0.92100  Biso   1.000  H
  H4       1.0000 0.47260  0.76160  0.07900  Biso   1.000  H
  H5       1.0000 0.61210  0.43860  0.15720  Biso   1.000  H
  H6       1.0000 0.38790  0.56140  0.84280  Biso   1.000  H
  H7       1.0000 0.82420  0.38850  0.47460  Biso   1.000  H
  H8       1.0000 0.17580  0.61150  0.52540  Biso   1.000  H
  H9       1.0000 0.71610  0.20990  0.23930  Biso   1.000  H
  H10      1.0000 0.28390  0.79010  0.76070  Biso   1.000  H
  H11      1.0000 0.76960  0.91920  0.14520  Biso   1.000  H
  H12      1.0000 0.23040  0.08080  0.85480  Biso   1.000  H
