data_image0
_cell_length_a       16.71
_cell_length_b       5.217
_cell_length_c       9.509
_cell_angle_alpha    90
_cell_angle_beta     98.4
_cell_angle_gamma    90

_symmetry_space_group_name_H-M    "P 1"
_symmetry_int_tables_number       1

loop_
  _symmetry_equiv_pos_as_xyz
  'x, y, z'

loop_
  _atom_site_label
  _atom_site_occupancy
  _atom_site_fract_x
  _atom_site_fract_y
  _atom_site_fract_z
  _atom_site_thermal_displace_type
  _atom_site_B_iso_or_equiv
  _atom_site_type_symbol
  Cu1      1.0000 0.49070  0.25000  0.25040  Biso   1.000  Cu
  Cu2      1.0000 0.50930  0.75000  0.74960  Biso   1.000  Cu
  C1       1.0000 0.41640  0.36570  0.98030  Biso   1.000  C
  C2       1.0000 0.58360  0.86570  0.01970  Biso   1.000  C
  C3       1.0000 0.58310  0.10690  0.50150  Biso   1.000  C
  C4       1.0000 0.41690  0.60690  0.49850  Biso   1.000  C
  H1       1.0000 0.71800  0.82800  0.36400  Biso   1.000  H
  H2       1.0000 0.28200  0.32800  0.63600  Biso   1.000  H
  H3       1.0000 0.83900  0.94700  0.25000  Biso   1.000  H
  H4       1.0000 0.16100  0.44700  0.75000  Biso   1.000  H
  H5       1.0000 0.96000  0.67200  0.28900  Biso   1.000  H
  H6       1.0000 0.04000  0.17200  0.71100  Biso   1.000  H
  H7       1.0000 0.96400  0.29800  0.43700  Biso   1.000  H
  H8       1.0000 0.03600  0.79800  0.56300  Biso   1.000  H
  H9       1.0000 0.84500  0.17800  0.55200  Biso   1.000  H
  H10      1.0000 0.15500  0.67800  0.44800  Biso   1.000  H
  C5       1.0000 0.36300  0.15200  0.02480  Biso   1.000  C
  C6       1.0000 0.63700  0.65200  0.97520  Biso   1.000  C
  C7       1.0000 0.63630  0.29720  0.43210  Biso   1.000  C
  C8       1.0000 0.36370  0.79720  0.56790  Biso   1.000  C
  C9       1.0000 0.28680  0.28560  0.06020  Biso   1.000  C
  C10      1.0000 0.71320  0.78560  0.93980  Biso   1.000  C
  C11      1.0000 0.70190  0.42740  0.53630  Biso   1.000  C
  C12      1.0000 0.29810  0.92740  0.46370  Biso   1.000  C
  C13      1.0000 0.21510  0.11600  0.07720  Biso   1.000  C
  C14      1.0000 0.78490  0.61600  0.92280  Biso   1.000  C
  C15      1.0000 0.77440  0.49890  0.46690  Biso   1.000  C
  C16      1.0000 0.22560  0.99890  0.53310  Biso   1.000  C
  C17      1.0000 0.19190  0.91150  0.98890  Biso   1.000  C
  C18      1.0000 0.80810  0.41150  0.01110  Biso   1.000  C
  C19      1.0000 0.77280  0.71200  0.38090  Biso   1.000  C
  C20      1.0000 0.22720  0.21200  0.61910  Biso   1.000  C
  C21      1.0000 0.12130  0.77350  0.99770  Biso   1.000  C
  C22      1.0000 0.87870  0.27350  0.00230  Biso   1.000  C
  C23      1.0000 0.83980  0.77800  0.31660  Biso   1.000  C
  C24      1.0000 0.16020  0.27800  0.68340  Biso   1.000  C
  C25      1.0000 0.07210  0.84620  0.09440  Biso   1.000  C
  C26      1.0000 0.92790  0.34620  0.90560  Biso   1.000  C
  C27      1.0000 0.90760  0.62510  0.33840  Biso   1.000  C
  C28      1.0000 0.09240  0.12510  0.66160  Biso   1.000  C
  C29      1.0000 0.09390  0.05010  0.18170  Biso   1.000  C
  C30      1.0000 0.90610  0.55010  0.81830  Biso   1.000  C
  C31      1.0000 0.90990  0.41360  0.42190  Biso   1.000  C
  C32      1.0000 0.09010  0.91360  0.57810  Biso   1.000  C
  C33      1.0000 0.16540  0.18410  0.17500  Biso   1.000  C
  C34      1.0000 0.83460  0.68410  0.82500  Biso   1.000  C
  C35      1.0000 0.84310  0.34830  0.48610  Biso   1.000  C
  C36      1.0000 0.15690  0.84830  0.51390  Biso   1.000  C
  H11      1.0000 0.34600  0.01200  0.94100  Biso   1.000  H
  H12      1.0000 0.65400  0.51200  0.05900  Biso   1.000  H
  H13      1.0000 0.18300  0.34300  0.24700  Biso   1.000  H
  H14      1.0000 0.81700  0.84300  0.75300  Biso   1.000  H
  H15      1.0000 0.66600  0.19300  0.35500  Biso   1.000  H
  H16      1.0000 0.33400  0.69300  0.64500  Biso   1.000  H
  H17      1.0000 0.56400  0.60300  0.41100  Biso   1.000  H
  H18      1.0000 0.43600  0.10300  0.58900  Biso   1.000  H
  H19      1.0000 0.61500  0.55300  0.27600  Biso   1.000  H
  H20      1.0000 0.38500  0.05300  0.72400  Biso   1.000  H
  H21      1.0000 0.67700  0.60200  0.57700  Biso   1.000  H
  H22      1.0000 0.32300  0.10200  0.42300  Biso   1.000  H
  H23      1.0000 0.72200  0.29600  0.62400  Biso   1.000  H
  H24      1.0000 0.27800  0.79600  0.37600  Biso   1.000  H
  H25      1.0000 0.36200  0.96600  0.20600  Biso   1.000  H
  H26      1.0000 0.63800  0.46600  0.79400  Biso   1.000  H
  H27      1.0000 0.42800  0.85700  0.10700  Biso   1.000  H
  H28      1.0000 0.57200  0.35700  0.89300  Biso   1.000  H
  H29      1.0000 0.30300  0.38800  0.16000  Biso   1.000  H
  H30      1.0000 0.69700  0.88800  0.84000  Biso   1.000  H
  H31      1.0000 0.26700  0.42100  0.97500  Biso   1.000  H
  H32      1.0000 0.73300  0.92100  0.02500  Biso   1.000  H
  H33      1.0000 0.23000  0.85800  0.91100  Biso   1.000  H
  H34      1.0000 0.77000  0.35800  0.08900  Biso   1.000  H
  H35      1.0000 0.10500  0.61000  0.92900  Biso   1.000  H
  H36      1.0000 0.89500  0.11000  0.07100  Biso   1.000  H
  H37      1.0000 0.01600  0.74400  0.10200  Biso   1.000  H
  H38      1.0000 0.98400  0.24400  0.89800  Biso   1.000  H
  H39      1.0000 0.05400  0.10600  0.25700  Biso   1.000  H
  H40      1.0000 0.94600  0.60600  0.74300  Biso   1.000  H
  N1       1.0000 0.40650  0.01540  0.14980  Biso   1.000  N
  N2       1.0000 0.59350  0.51540  0.85020  Biso   1.000  N
  N3       1.0000 0.58040  0.47110  0.34280  Biso   1.000  N
  N4       1.0000 0.41960  0.97110  0.65720  Biso   1.000  N
  O1       1.0000 0.47040  0.45550  0.07800  Biso   1.000  O
  O2       1.0000 0.52960  0.95550  0.92200  Biso   1.000  O
  O3       1.0000 0.51730  0.03950  0.42140  Biso   1.000  O
  O4       1.0000 0.48270  0.53950  0.57860  Biso   1.000  O
  O5       1.0000 0.40280  0.44820  0.85770  Biso   1.000  O
  O6       1.0000 0.59720  0.94820  0.14230  Biso   1.000  O
  O7       1.0000 0.60570  0.01900  0.62060  Biso   1.000  O
  O8       1.0000 0.39430  0.51900  0.37940  Biso   1.000  O
