data_image0
_cell_length_a       7.474
_cell_length_b       22.137
_cell_length_c       28.155
_cell_angle_alpha    90
_cell_angle_beta     96.21
_cell_angle_gamma    90

_symmetry_space_group_name_H-M    "P 1"
_symmetry_int_tables_number       1

loop_
  _symmetry_equiv_pos_as_xyz
  'x, y, z'

loop_
  _atom_site_label
  _atom_site_occupancy
  _atom_site_fract_x
  _atom_site_fract_y
  _atom_site_fract_z
  _atom_site_thermal_displace_type
  _atom_site_B_iso_or_equiv
  _atom_site_type_symbol
  Co1      1.0000 0.50000  0.38098  0.25000  Biso   1.000  Co
  Co2      1.0000 0.00000  0.88098  0.25000  Biso   1.000  Co
  Co3      1.0000 0.50000  0.61902  0.75000  Biso   1.000  Co
  Co4      1.0000 0.00000  0.11902  0.75000  Biso   1.000  Co
  Cu1      1.0000 0.52221  0.06658  0.03193  Biso   1.000  Cu
  Cu2      1.0000 0.02221  0.56658  0.03193  Biso   1.000  Cu
  Cu3      1.0000 0.47779  0.06658  0.46807  Biso   1.000  Cu
  Cu4      1.0000 0.97779  0.56658  0.46807  Biso   1.000  Cu
  Cu5      1.0000 0.47779  0.93342  0.96807  Biso   1.000  Cu
  Cu6      1.0000 0.97779  0.43342  0.96807  Biso   1.000  Cu
  Cu7      1.0000 0.52221  0.93342  0.53193  Biso   1.000  Cu
  Cu8      1.0000 0.02221  0.43342  0.53193  Biso   1.000  Cu
  Cl1      1.0000 0.27070  0.42777  0.20950  Biso   1.000  Cl
  Cl2      1.0000 0.77070  0.92777  0.20950  Biso   1.000  Cl
  Cl3      1.0000 0.72930  0.42777  0.29050  Biso   1.000  Cl
  Cl4      1.0000 0.22930  0.92777  0.29050  Biso   1.000  Cl
  Cl5      1.0000 0.72930  0.57223  0.79050  Biso   1.000  Cl
  Cl6      1.0000 0.22930  0.07223  0.79050  Biso   1.000  Cl
  Cl7      1.0000 0.27070  0.57223  0.70950  Biso   1.000  Cl
  Cl8      1.0000 0.77070  0.07223  0.70950  Biso   1.000  Cl
  Cl9      1.0000 0.66930  0.13312  0.08367  Biso   1.000  Cl
  Cl10     1.0000 0.16930  0.63312  0.08367  Biso   1.000  Cl
  Cl11     1.0000 0.33070  0.13312  0.41633  Biso   1.000  Cl
  Cl12     1.0000 0.83070  0.63312  0.41633  Biso   1.000  Cl
  Cl13     1.0000 0.33070  0.86688  0.91633  Biso   1.000  Cl
  Cl14     1.0000 0.83070  0.36688  0.91633  Biso   1.000  Cl
  Cl15     1.0000 0.66930  0.86688  0.58367  Biso   1.000  Cl
  Cl16     1.0000 0.16930  0.36688  0.58367  Biso   1.000  Cl
  Cl17     1.0000 0.29100  0.03183  0.97294  Biso   1.000  Cl
  Cl18     1.0000 0.79100  0.53183  0.97294  Biso   1.000  Cl
  Cl19     1.0000 0.70900  0.03183  0.52706  Biso   1.000  Cl
  Cl20     1.0000 0.20900  0.53183  0.52706  Biso   1.000  Cl
  Cl21     1.0000 0.70900  0.96817  0.02706  Biso   1.000  Cl
  Cl22     1.0000 0.20900  0.46817  0.02706  Biso   1.000  Cl
  Cl23     1.0000 0.29100  0.96817  0.47294  Biso   1.000  Cl
  Cl24     1.0000 0.79100  0.46817  0.47294  Biso   1.000  Cl
  N1       1.0000 0.39840  0.03370  0.08570  Biso   1.000  N
  N2       1.0000 0.89840  0.53370  0.08570  Biso   1.000  N
  N3       1.0000 0.60160  0.03370  0.41430  Biso   1.000  N
  N4       1.0000 0.10160  0.53370  0.41430  Biso   1.000  N
  N5       1.0000 0.60160  0.96630  0.91430  Biso   1.000  N
  N6       1.0000 0.10160  0.46630  0.91430  Biso   1.000  N
  N7       1.0000 0.39840  0.96630  0.58570  Biso   1.000  N
  N8       1.0000 0.89840  0.46630  0.58570  Biso   1.000  N
  N9       1.0000 0.23410  0.04840  0.09960  Biso   1.000  N
  N10      1.0000 0.73410  0.54840  0.09960  Biso   1.000  N
  N11      1.0000 0.76590  0.04840  0.40040  Biso   1.000  N
  N12      1.0000 0.26590  0.54840  0.40040  Biso   1.000  N
  N13      1.0000 0.76590  0.95160  0.90040  Biso   1.000  N
  N14      1.0000 0.26590  0.45160  0.90040  Biso   1.000  N
  N15      1.0000 0.23410  0.95160  0.59960  Biso   1.000  N
  N16      1.0000 0.73410  0.45160  0.59960  Biso   1.000  N
  N17      1.0000 0.60350  0.16060  0.96320  Biso   1.000  N
  N18      1.0000 0.10350  0.66060  0.96320  Biso   1.000  N
  N19      1.0000 0.39650  0.16060  0.53680  Biso   1.000  N
  N20      1.0000 0.89650  0.66060  0.53680  Biso   1.000  N
  N21      1.0000 0.39650  0.83940  0.03680  Biso   1.000  N
  N22      1.0000 0.89650  0.33940  0.03680  Biso   1.000  N
  N23      1.0000 0.60350  0.83940  0.46320  Biso   1.000  N
  N24      1.0000 0.10350  0.33940  0.46320  Biso   1.000  N
  N25      1.0000 0.64700  0.10450  0.98020  Biso   1.000  N
  N26      1.0000 0.14700  0.60450  0.98020  Biso   1.000  N
  N27      1.0000 0.35300  0.10450  0.51980  Biso   1.000  N
  N28      1.0000 0.85300  0.60450  0.51980  Biso   1.000  N
  N29      1.0000 0.35300  0.89550  0.01980  Biso   1.000  N
  N30      1.0000 0.85300  0.39550  0.01980  Biso   1.000  N
  N31      1.0000 0.64700  0.89550  0.48020  Biso   1.000  N
  N32      1.0000 0.14700  0.39550  0.48020  Biso   1.000  N
  N33      1.0000 0.54910  0.27090  0.18840  Biso   1.000  N
  N34      1.0000 0.04910  0.77090  0.18840  Biso   1.000  N
  N35      1.0000 0.45090  0.27090  0.31160  Biso   1.000  N
  N36      1.0000 0.95090  0.77090  0.31160  Biso   1.000  N
  N37      1.0000 0.45090  0.72910  0.81160  Biso   1.000  N
  N38      1.0000 0.95090  0.22910  0.81160  Biso   1.000  N
  N39      1.0000 0.54910  0.72910  0.68840  Biso   1.000  N
  N40      1.0000 0.04910  0.22910  0.68840  Biso   1.000  N
  N41      1.0000 0.61700  0.32330  0.20890  Biso   1.000  N
  N42      1.0000 0.11700  0.82330  0.20890  Biso   1.000  N
  N43      1.0000 0.38300  0.32330  0.29110  Biso   1.000  N
  N44      1.0000 0.88300  0.82330  0.29110  Biso   1.000  N
  N45      1.0000 0.38300  0.67670  0.79110  Biso   1.000  N
  N46      1.0000 0.88300  0.17670  0.79110  Biso   1.000  N
  N47      1.0000 0.61700  0.67670  0.70890  Biso   1.000  N
  N48      1.0000 0.11700  0.17670  0.70890  Biso   1.000  N
  C1       1.0000 0.46730  0.99570  0.11910  Biso   1.000  C
  C2       1.0000 0.96730  0.49570  0.11910  Biso   1.000  C
  C3       1.0000 0.53270  0.99570  0.38090  Biso   1.000  C
  C4       1.0000 0.03270  0.49570  0.38090  Biso   1.000  C
  C5       1.0000 0.53270  0.00430  0.88090  Biso   1.000  C
  C6       1.0000 0.03270  0.50430  0.88090  Biso   1.000  C
  C7       1.0000 0.46730  0.00430  0.61910  Biso   1.000  C
  C8       1.0000 0.96730  0.50430  0.61910  Biso   1.000  C
  C9       1.0000 0.34820  0.98610  0.15320  Biso   1.000  C
  C10      1.0000 0.84820  0.48610  0.15320  Biso   1.000  C
  C11      1.0000 0.65180  0.98610  0.34680  Biso   1.000  C
  C12      1.0000 0.15180  0.48610  0.34680  Biso   1.000  C
  C13      1.0000 0.65180  0.01390  0.84680  Biso   1.000  C
  C14      1.0000 0.15180  0.51390  0.84680  Biso   1.000  C
  C15      1.0000 0.34820  0.01390  0.65320  Biso   1.000  C
  C16      1.0000 0.84820  0.51390  0.65320  Biso   1.000  C
  C17      1.0000 0.20400  0.02050  0.14030  Biso   1.000  C
  C18      1.0000 0.70400  0.52050  0.14030  Biso   1.000  C
  C19      1.0000 0.79600  0.02050  0.35970  Biso   1.000  C
  C20      1.0000 0.29600  0.52050  0.35970  Biso   1.000  C
  C21      1.0000 0.79600  0.97950  0.85970  Biso   1.000  C
  C22      1.0000 0.29600  0.47950  0.85970  Biso   1.000  C
  C23      1.0000 0.20400  0.97950  0.64030  Biso   1.000  C
  C24      1.0000 0.70400  0.47950  0.64030  Biso   1.000  C
  C25      1.0000 0.12090  0.09330  0.07250  Biso   1.000  C
  C26      1.0000 0.62090  0.59330  0.07250  Biso   1.000  C
  C27      1.0000 0.87910  0.09330  0.42750  Biso   1.000  C
  C28      1.0000 0.37910  0.59330  0.42750  Biso   1.000  C
  C29      1.0000 0.87910  0.90670  0.92750  Biso   1.000  C
  C30      1.0000 0.37910  0.40670  0.92750  Biso   1.000  C
  C31      1.0000 0.12090  0.90670  0.57250  Biso   1.000  C
  C32      1.0000 0.62090  0.40670  0.57250  Biso   1.000  C
  C33      1.0000 0.16010  0.15880  0.08400  Biso   1.000  C
  C34      1.0000 0.66010  0.65880  0.08400  Biso   1.000  C
  C35      1.0000 0.83990  0.15880  0.41600  Biso   1.000  C
  C36      1.0000 0.33990  0.65880  0.41600  Biso   1.000  C
  C37      1.0000 0.83990  0.84120  0.91600  Biso   1.000  C
  C38      1.0000 0.33990  0.34120  0.91600  Biso   1.000  C
  C39      1.0000 0.16010  0.84120  0.58400  Biso   1.000  C
  C40      1.0000 0.66010  0.34120  0.58400  Biso   1.000  C
  C41      1.0000 0.10580  0.20100  0.05010  Biso   1.000  C
  C42      1.0000 0.60580  0.70100  0.05010  Biso   1.000  C
  C43      1.0000 0.89420  0.20100  0.44990  Biso   1.000  C
  C44      1.0000 0.39420  0.70100  0.44990  Biso   1.000  C
  C45      1.0000 0.89420  0.79900  0.94990  Biso   1.000  C
  C46      1.0000 0.39420  0.29900  0.94990  Biso   1.000  C
  C47      1.0000 0.10580  0.79900  0.55010  Biso   1.000  C
  C48      1.0000 0.60580  0.29900  0.55010  Biso   1.000  C
  C49      1.0000 0.13390  0.26450  0.06030  Biso   1.000  C
  C50      1.0000 0.63390  0.76450  0.06030  Biso   1.000  C
  C51      1.0000 0.86610  0.26450  0.43970  Biso   1.000  C
  C52      1.0000 0.36610  0.76450  0.43970  Biso   1.000  C
  C53      1.0000 0.86610  0.73550  0.93970  Biso   1.000  C
  C54      1.0000 0.36610  0.23550  0.93970  Biso   1.000  C
  C55      1.0000 0.13390  0.73550  0.56030  Biso   1.000  C
  C56      1.0000 0.63390  0.23550  0.56030  Biso   1.000  C
  C57      1.0000 0.06010  0.31050  0.02330  Biso   1.000  C
  C58      1.0000 0.56010  0.81050  0.02330  Biso   1.000  C
  C59      1.0000 0.93990  0.31050  0.47670  Biso   1.000  C
  C60      1.0000 0.43990  0.81050  0.47670  Biso   1.000  C
  C61      1.0000 0.93990  0.68950  0.97670  Biso   1.000  C
  C62      1.0000 0.43990  0.18950  0.97670  Biso   1.000  C
  C63      1.0000 0.06010  0.68950  0.52330  Biso   1.000  C
  C64      1.0000 0.56010  0.18950  0.52330  Biso   1.000  C
  C65      1.0000 0.72360  0.18000  0.93560  Biso   1.000  C
  C66      1.0000 0.22360  0.68000  0.93560  Biso   1.000  C
  C67      1.0000 0.27640  0.18000  0.56440  Biso   1.000  C
  C68      1.0000 0.77640  0.68000  0.56440  Biso   1.000  C
  C69      1.0000 0.27640  0.82000  0.06440  Biso   1.000  C
  C70      1.0000 0.77640  0.32000  0.06440  Biso   1.000  C
  C71      1.0000 0.72360  0.82000  0.43560  Biso   1.000  C
  C72      1.0000 0.22360  0.32000  0.43560  Biso   1.000  C
  C73      1.0000 0.85430  0.13620  0.93420  Biso   1.000  C
  C74      1.0000 0.35430  0.63620  0.93420  Biso   1.000  C
  C75      1.0000 0.14570  0.13620  0.56580  Biso   1.000  C
  C76      1.0000 0.64570  0.63620  0.56580  Biso   1.000  C
  C77      1.0000 0.14570  0.86380  0.06580  Biso   1.000  C
  C78      1.0000 0.64570  0.36380  0.06580  Biso   1.000  C
  C79      1.0000 0.85430  0.86380  0.43420  Biso   1.000  C
  C80      1.0000 0.35430  0.36380  0.43420  Biso   1.000  C
  C81      1.0000 0.79900  0.09150  0.96260  Biso   1.000  C
  C82      1.0000 0.29900  0.59150  0.96260  Biso   1.000  C
  C83      1.0000 0.20100  0.09150  0.53740  Biso   1.000  C
  C84      1.0000 0.70100  0.59150  0.53740  Biso   1.000  C
  C85      1.0000 0.20100  0.90850  0.03740  Biso   1.000  C
  C86      1.0000 0.70100  0.40850  0.03740  Biso   1.000  C
  C87      1.0000 0.79900  0.90850  0.46260  Biso   1.000  C
  C88      1.0000 0.29900  0.40850  0.46260  Biso   1.000  C
  C89      1.0000 0.21630  0.28200  0.10420  Biso   1.000  C
  C90      1.0000 0.71630  0.78200  0.10420  Biso   1.000  C
  C91      1.0000 0.78370  0.28200  0.39580  Biso   1.000  C
  C92      1.0000 0.28370  0.78200  0.39580  Biso   1.000  C
  C93      1.0000 0.78370  0.71800  0.89580  Biso   1.000  C
  C94      1.0000 0.28370  0.21800  0.89580  Biso   1.000  C
  C95      1.0000 0.21630  0.71800  0.60420  Biso   1.000  C
  C96      1.0000 0.71630  0.21800  0.60420  Biso   1.000  C
  C97      1.0000 0.27370  0.23740  0.13880  Biso   1.000  C
  C98      1.0000 0.77370  0.73740  0.13880  Biso   1.000  C
  C99      1.0000 0.72630  0.23740  0.36120  Biso   1.000  C
  C100     1.0000 0.22630  0.73740  0.36120  Biso   1.000  C
  C101     1.0000 0.72630  0.76260  0.86120  Biso   1.000  C
  C102     1.0000 0.22630  0.26260  0.86120  Biso   1.000  C
  C103     1.0000 0.27370  0.76260  0.63880  Biso   1.000  C
  C104     1.0000 0.77370  0.26260  0.63880  Biso   1.000  C
  C105     1.0000 0.24490  0.17780  0.12770  Biso   1.000  C
  C106     1.0000 0.74490  0.67780  0.12770  Biso   1.000  C
  C107     1.0000 0.75510  0.17780  0.37230  Biso   1.000  C
  C108     1.0000 0.25510  0.67780  0.37230  Biso   1.000  C
  C109     1.0000 0.75510  0.82220  0.87230  Biso   1.000  C
  C110     1.0000 0.25510  0.32220  0.87230  Biso   1.000  C
  C111     1.0000 0.24490  0.82220  0.62770  Biso   1.000  C
  C112     1.0000 0.74490  0.32220  0.62770  Biso   1.000  C
  C113     1.0000 0.35550  0.25650  0.18750  Biso   1.000  C
  C114     1.0000 0.85550  0.75650  0.18750  Biso   1.000  C
  C115     1.0000 0.64450  0.25650  0.31250  Biso   1.000  C
  C116     1.0000 0.14450  0.75650  0.31250  Biso   1.000  C
  C117     1.0000 0.64450  0.74350  0.81250  Biso   1.000  C
  C118     1.0000 0.14450  0.24350  0.81250  Biso   1.000  C
  C119     1.0000 0.35550  0.74350  0.68750  Biso   1.000  C
  C120     1.0000 0.85550  0.24350  0.68750  Biso   1.000  C
  C121     1.0000 0.67230  0.23490  0.17510  Biso   1.000  C
  C122     1.0000 0.17230  0.73490  0.17510  Biso   1.000  C
  C123     1.0000 0.32770  0.23490  0.32490  Biso   1.000  C
  C124     1.0000 0.82770  0.73490  0.32490  Biso   1.000  C
  C125     1.0000 0.32770  0.76510  0.82490  Biso   1.000  C
  C126     1.0000 0.82770  0.26510  0.82490  Biso   1.000  C
  C127     1.0000 0.67230  0.76510  0.67510  Biso   1.000  C
  C128     1.0000 0.17230  0.26510  0.67510  Biso   1.000  C
  C129     1.0000 0.83350  0.26360  0.18350  Biso   1.000  C
  C130     1.0000 0.33350  0.76360  0.18350  Biso   1.000  C
  C131     1.0000 0.16650  0.26360  0.31650  Biso   1.000  C
  C132     1.0000 0.66650  0.76360  0.31650  Biso   1.000  C
  C133     1.0000 0.16650  0.73640  0.81650  Biso   1.000  C
  C134     1.0000 0.66650  0.23640  0.81650  Biso   1.000  C
  C135     1.0000 0.83350  0.73640  0.68350  Biso   1.000  C
  C136     1.0000 0.33350  0.23640  0.68350  Biso   1.000  C
  C137     1.0000 0.79260  0.31690  0.20410  Biso   1.000  C
  C138     1.0000 0.29260  0.81690  0.20410  Biso   1.000  C
  C139     1.0000 0.20740  0.31690  0.29590  Biso   1.000  C
  C140     1.0000 0.70740  0.81690  0.29590  Biso   1.000  C
  C141     1.0000 0.20740  0.68310  0.79590  Biso   1.000  C
  C142     1.0000 0.70740  0.18310  0.79590  Biso   1.000  C
  C143     1.0000 0.79260  0.68310  0.70410  Biso   1.000  C
  C144     1.0000 0.29260  0.18310  0.70410  Biso   1.000  C
  O1       1.0000 0.50000  0.12340  0.25000  Biso   1.000  O
  O2       1.0000 0.00000  0.62340  0.25000  Biso   1.000  O
  O3       1.0000 0.50000  0.87660  0.75000  Biso   1.000  O
  O4       1.0000 0.00000  0.37660  0.75000  Biso   1.000  O
  O5       1.0000 0.79300  0.08230  0.21720  Biso   1.000  O
  O6       1.0000 0.29300  0.58230  0.21720  Biso   1.000  O
  O7       1.0000 0.20700  0.08230  0.28280  Biso   1.000  O
  O8       1.0000 0.70700  0.58230  0.28280  Biso   1.000  O
  O9       1.0000 0.20700  0.91770  0.78280  Biso   1.000  O
  O10      1.0000 0.70700  0.41770  0.78280  Biso   1.000  O
  O11      1.0000 0.79300  0.91770  0.71720  Biso   1.000  O
  O12      1.0000 0.29300  0.41770  0.71720  Biso   1.000  O
  H1       1.0000 0.58400  0.97500  0.11900  Biso   1.000  H
  H2       1.0000 0.08400  0.47500  0.11900  Biso   1.000  H
  H3       1.0000 0.41600  0.97500  0.38100  Biso   1.000  H
  H4       1.0000 0.91600  0.47500  0.38100  Biso   1.000  H
  H5       1.0000 0.41600  0.02500  0.88100  Biso   1.000  H
  H6       1.0000 0.91600  0.52500  0.88100  Biso   1.000  H
  H7       1.0000 0.58400  0.02500  0.61900  Biso   1.000  H
  H8       1.0000 0.08400  0.52500  0.61900  Biso   1.000  H
  H9       1.0000 0.36800  0.96400  0.18000  Biso   1.000  H
  H10      1.0000 0.86800  0.46400  0.18000  Biso   1.000  H
  H11      1.0000 0.63200  0.96400  0.32000  Biso   1.000  H
  H12      1.0000 0.13200  0.46400  0.32000  Biso   1.000  H
  H13      1.0000 0.63200  0.03600  0.82000  Biso   1.000  H
  H14      1.0000 0.13200  0.53600  0.82000  Biso   1.000  H
  H15      1.0000 0.36800  0.03600  0.68000  Biso   1.000  H
  H16      1.0000 0.86800  0.53600  0.68000  Biso   1.000  H
  H17      1.0000 0.08400  0.02100  0.15400  Biso   1.000  H
  H18      1.0000 0.58400  0.52100  0.15400  Biso   1.000  H
  H19      1.0000 0.91600  0.02100  0.34600  Biso   1.000  H
  H20      1.0000 0.41600  0.52100  0.34600  Biso   1.000  H
  H21      1.0000 0.91600  0.97900  0.84600  Biso   1.000  H
  H22      1.0000 0.41600  0.47900  0.84600  Biso   1.000  H
  H23      1.0000 0.08400  0.97900  0.65400  Biso   1.000  H
  H24      1.0000 0.58400  0.47900  0.65400  Biso   1.000  H
  H25      1.0000 0.12800  0.08600  0.03800  Biso   1.000  H
  H26      1.0000 0.62800  0.58600  0.03800  Biso   1.000  H
  H27      1.0000 0.87200  0.08600  0.46200  Biso   1.000  H
  H28      1.0000 0.37200  0.58600  0.46200  Biso   1.000  H
  H29      1.0000 0.87200  0.91400  0.96200  Biso   1.000  H
  H30      1.0000 0.37200  0.41400  0.96200  Biso   1.000  H
  H31      1.0000 0.12800  0.91400  0.53800  Biso   1.000  H
  H32      1.0000 0.62800  0.41400  0.53800  Biso   1.000  H
  H33      1.0000 0.99300  0.08500  0.07700  Biso   1.000  H
  H34      1.0000 0.49300  0.58500  0.07700  Biso   1.000  H
  H35      1.0000 0.00700  0.08500  0.42300  Biso   1.000  H
  H36      1.0000 0.50700  0.58500  0.42300  Biso   1.000  H
  H37      1.0000 0.00700  0.91500  0.92300  Biso   1.000  H
  H38      1.0000 0.50700  0.41500  0.92300  Biso   1.000  H
  H39      1.0000 0.99300  0.91500  0.57700  Biso   1.000  H
  H40      1.0000 0.49300  0.41500  0.57700  Biso   1.000  H
  H41      1.0000 0.99400  0.22300  0.05300  Biso   1.000  H
  H42      1.0000 0.49400  0.72300  0.05300  Biso   1.000  H
  H43      1.0000 0.00600  0.22300  0.44700  Biso   1.000  H
  H44      1.0000 0.50600  0.72300  0.44700  Biso   1.000  H
  H45      1.0000 0.00600  0.77700  0.94700  Biso   1.000  H
  H46      1.0000 0.50600  0.27700  0.94700  Biso   1.000  H
  H47      1.0000 0.99400  0.77700  0.55300  Biso   1.000  H
  H48      1.0000 0.49400  0.27700  0.55300  Biso   1.000  H
  H49      1.0000 0.15700  0.34200  0.02000  Biso   1.000  H
  H50      1.0000 0.65700  0.84200  0.02000  Biso   1.000  H
  H51      1.0000 0.84300  0.34200  0.48000  Biso   1.000  H
  H52      1.0000 0.34300  0.84200  0.48000  Biso   1.000  H
  H53      1.0000 0.84300  0.65800  0.98000  Biso   1.000  H
  H54      1.0000 0.34300  0.15800  0.98000  Biso   1.000  H
  H55      1.0000 0.15700  0.65800  0.52000  Biso   1.000  H
  H56      1.0000 0.65700  0.15800  0.52000  Biso   1.000  H
  H57      1.0000 0.04200  0.29300  0.99100  Biso   1.000  H
  H58      1.0000 0.54200  0.79300  0.99100  Biso   1.000  H
  H59      1.0000 0.95800  0.29300  0.50900  Biso   1.000  H
  H60      1.0000 0.45800  0.79300  0.50900  Biso   1.000  H
  H61      1.0000 0.95800  0.70700  0.00900  Biso   1.000  H
  H62      1.0000 0.45800  0.20700  0.00900  Biso   1.000  H
  H63      1.0000 0.04200  0.70700  0.49100  Biso   1.000  H
  H64      1.0000 0.54200  0.20700  0.49100  Biso   1.000  H
  H65      1.0000 0.72100  0.22100  0.92100  Biso   1.000  H
  H66      1.0000 0.22100  0.72100  0.92100  Biso   1.000  H
  H67      1.0000 0.27900  0.22100  0.57900  Biso   1.000  H
  H68      1.0000 0.77900  0.72100  0.57900  Biso   1.000  H
  H69      1.0000 0.27900  0.77900  0.07900  Biso   1.000  H
  H70      1.0000 0.77900  0.27900  0.07900  Biso   1.000  H
  H71      1.0000 0.72100  0.77900  0.42100  Biso   1.000  H
  H72      1.0000 0.22100  0.27900  0.42100  Biso   1.000  H
  H73      1.0000 0.53900  0.36200  0.08400  Biso   1.000  H
  H74      1.0000 0.03900  0.86200  0.08400  Biso   1.000  H
  H75      1.0000 0.46100  0.36200  0.41600  Biso   1.000  H
  H76      1.0000 0.96100  0.86200  0.41600  Biso   1.000  H
  H77      1.0000 0.46100  0.63800  0.91600  Biso   1.000  H
  H78      1.0000 0.96100  0.13800  0.91600  Biso   1.000  H
  H79      1.0000 0.53900  0.63800  0.58400  Biso   1.000  H
  H80      1.0000 0.03900  0.13800  0.58400  Biso   1.000  H
  H81      1.0000 0.87000  0.05300  0.97000  Biso   1.000  H
  H82      1.0000 0.37000  0.55300  0.97000  Biso   1.000  H
  H83      1.0000 0.13000  0.05300  0.53000  Biso   1.000  H
  H84      1.0000 0.63000  0.55300  0.53000  Biso   1.000  H
  H85      1.0000 0.13000  0.94700  0.03000  Biso   1.000  H
  H86      1.0000 0.63000  0.44700  0.03000  Biso   1.000  H
  H87      1.0000 0.87000  0.94700  0.47000  Biso   1.000  H
  H88      1.0000 0.37000  0.44700  0.47000  Biso   1.000  H
  H89      1.0000 0.24200  0.28800  0.13800  Biso   1.000  H
  H90      1.0000 0.74200  0.78800  0.13800  Biso   1.000  H
  H91      1.0000 0.75800  0.28800  0.36200  Biso   1.000  H
  H92      1.0000 0.25800  0.78800  0.36200  Biso   1.000  H
  H93      1.0000 0.75800  0.71200  0.86200  Biso   1.000  H
  H94      1.0000 0.25800  0.21200  0.86200  Biso   1.000  H
  H95      1.0000 0.24200  0.71200  0.63800  Biso   1.000  H
  H96      1.0000 0.74200  0.21200  0.63800  Biso   1.000  H
  H97      1.0000 0.28700  0.14600  0.15200  Biso   1.000  H
  H98      1.0000 0.78700  0.64600  0.15200  Biso   1.000  H
  H99      1.0000 0.71300  0.14600  0.34800  Biso   1.000  H
  H100     1.0000 0.21300  0.64600  0.34800  Biso   1.000  H
  H101     1.0000 0.71300  0.85400  0.84800  Biso   1.000  H
  H102     1.0000 0.21300  0.35400  0.84800  Biso   1.000  H
  H103     1.0000 0.28700  0.85400  0.65200  Biso   1.000  H
  H104     1.0000 0.78700  0.35400  0.65200  Biso   1.000  H
  H105     1.0000 0.34100  0.22400  0.21000  Biso   1.000  H
  H106     1.0000 0.84100  0.72400  0.21000  Biso   1.000  H
  H107     1.0000 0.65900  0.22400  0.29000  Biso   1.000  H
  H108     1.0000 0.15900  0.72400  0.29000  Biso   1.000  H
  H109     1.0000 0.65900  0.77600  0.79000  Biso   1.000  H
  H110     1.0000 0.15900  0.27600  0.79000  Biso   1.000  H
  H111     1.0000 0.34100  0.77600  0.71000  Biso   1.000  H
  H112     1.0000 0.84100  0.27600  0.71000  Biso   1.000  H
  H113     1.0000 0.29200  0.29100  0.19800  Biso   1.000  H
  H114     1.0000 0.79200  0.79100  0.19800  Biso   1.000  H
  H115     1.0000 0.70800  0.29100  0.30200  Biso   1.000  H
  H116     1.0000 0.20800  0.79100  0.30200  Biso   1.000  H
  H117     1.0000 0.70800  0.70900  0.80200  Biso   1.000  H
  H118     1.0000 0.20800  0.20900  0.80200  Biso   1.000  H
  H119     1.0000 0.29200  0.70900  0.69800  Biso   1.000  H
  H120     1.0000 0.79200  0.20900  0.69800  Biso   1.000  H
  H121     1.0000 0.65100  0.19200  0.16000  Biso   1.000  H
  H122     1.0000 0.15100  0.69200  0.16000  Biso   1.000  H
  H123     1.0000 0.34900  0.19200  0.34000  Biso   1.000  H
  H124     1.0000 0.84900  0.69200  0.34000  Biso   1.000  H
  H125     1.0000 0.34900  0.80800  0.84000  Biso   1.000  H
  H126     1.0000 0.84900  0.30800  0.84000  Biso   1.000  H
  H127     1.0000 0.65100  0.80800  0.66000  Biso   1.000  H
  H128     1.0000 0.15100  0.30800  0.66000  Biso   1.000  H
  H129     1.0000 0.95700  0.24600  0.17600  Biso   1.000  H
  H130     1.0000 0.45700  0.74600  0.17600  Biso   1.000  H
  H131     1.0000 0.04300  0.24600  0.32400  Biso   1.000  H
  H132     1.0000 0.54300  0.74600  0.32400  Biso   1.000  H
  H133     1.0000 0.04300  0.75400  0.82400  Biso   1.000  H
  H134     1.0000 0.54300  0.25400  0.82400  Biso   1.000  H
  H135     1.0000 0.95700  0.75400  0.67600  Biso   1.000  H
  H136     1.0000 0.45700  0.25400  0.67600  Biso   1.000  H
  H137     1.0000 0.88910  0.34400  0.20900  Biso   1.000  H
  H138     1.0000 0.38910  0.84400  0.20900  Biso   1.000  H
  H139     1.0000 0.11090  0.34400  0.29100  Biso   1.000  H
  H140     1.0000 0.61090  0.84400  0.29100  Biso   1.000  H
  H141     1.0000 0.11090  0.65600  0.79100  Biso   1.000  H
  H142     1.0000 0.61090  0.15600  0.79100  Biso   1.000  H
  H143     1.0000 0.88910  0.65600  0.70900  Biso   1.000  H
  H144     1.0000 0.38910  0.15600  0.70900  Biso   1.000  H
  H145     1.0000 0.58300  0.09000  0.24300  Biso   1.000  H
  H146     1.0000 0.08300  0.59000  0.24300  Biso   1.000  H
  H147     1.0000 0.41700  0.09000  0.25700  Biso   1.000  H
  H148     1.0000 0.91700  0.59000  0.25700  Biso   1.000  H
  H149     1.0000 0.41700  0.91000  0.75700  Biso   1.000  H
  H150     1.0000 0.91700  0.41000  0.75700  Biso   1.000  H
  H151     1.0000 0.58300  0.91000  0.74300  Biso   1.000  H
  H152     1.0000 0.08300  0.41000  0.74300  Biso   1.000  H
  H153     1.0000 0.80400  0.07100  0.18500  Biso   1.000  H
  H154     1.0000 0.30400  0.57100  0.18500  Biso   1.000  H
  H155     1.0000 0.19600  0.07100  0.31500  Biso   1.000  H
  H156     1.0000 0.69600  0.57100  0.31500  Biso   1.000  H
  H157     1.0000 0.19600  0.92900  0.81500  Biso   1.000  H
  H158     1.0000 0.69600  0.42900  0.81500  Biso   1.000  H
  H159     1.0000 0.80400  0.92900  0.68500  Biso   1.000  H
  H160     1.0000 0.30400  0.42900  0.68500  Biso   1.000  H
  H161     1.0000 0.87300  0.07700  0.24300  Biso   1.000  H
  H162     1.0000 0.37300  0.57700  0.24300  Biso   1.000  H
  H163     1.0000 0.12700  0.07700  0.25700  Biso   1.000  H
  H164     1.0000 0.62700  0.57700  0.25700  Biso   1.000  H
  H165     1.0000 0.12700  0.92300  0.75700  Biso   1.000  H
  H166     1.0000 0.62700  0.42300  0.75700  Biso   1.000  H
  H167     1.0000 0.87300  0.92300  0.74300  Biso   1.000  H
  H168     1.0000 0.37300  0.42300  0.74300  Biso   1.000  H
