data_image0
_cell_length_a       11.288
_cell_length_b       13.633
_cell_length_c       15.173
_cell_angle_alpha    90
_cell_angle_beta     104.635
_cell_angle_gamma    90

_symmetry_space_group_name_H-M    "P 1"
_symmetry_int_tables_number       1

loop_
  _symmetry_equiv_pos_as_xyz
  'x, y, z'

loop_
  _atom_site_label
  _atom_site_occupancy
  _atom_site_fract_x
  _atom_site_fract_y
  _atom_site_fract_z
  _atom_site_thermal_displace_type
  _atom_site_B_iso_or_equiv
  _atom_site_type_symbol
  Cu1      1.0000 0.89085  0.08663  0.00398  Biso   1.000  Cu
  Cu2      1.0000 0.10915  0.58663  0.49602  Biso   1.000  Cu
  Cu3      1.0000 0.10915  0.91337  0.99602  Biso   1.000  Cu
  Cu4      1.0000 0.89085  0.41337  0.50398  Biso   1.000  Cu
  Cl1      1.0000 0.89573  0.92519  0.04306  Biso   1.000  Cl
  Cl2      1.0000 0.10427  0.42519  0.45694  Biso   1.000  Cl
  Cl3      1.0000 0.10427  0.07481  0.95694  Biso   1.000  Cl
  Cl4      1.0000 0.89573  0.57481  0.54306  Biso   1.000  Cl
  N1       1.0000 0.79200  0.05640  0.87710  Biso   1.000  N
  N2       1.0000 0.20800  0.55640  0.62290  Biso   1.000  N
  N3       1.0000 0.20800  0.94360  0.12290  Biso   1.000  N
  N4       1.0000 0.79200  0.44360  0.37710  Biso   1.000  N
  N5       1.0000 0.67740  0.01690  0.85260  Biso   1.000  N
  N6       1.0000 0.32260  0.51690  0.64740  Biso   1.000  N
  N7       1.0000 0.32260  0.98310  0.14740  Biso   1.000  N
  N8       1.0000 0.67740  0.48310  0.35260  Biso   1.000  N
  N9       1.0000 0.97530  0.13060  0.13190  Biso   1.000  N
  N10      1.0000 0.02470  0.63060  0.36810  Biso   1.000  N
  N11      1.0000 0.02470  0.86940  0.86810  Biso   1.000  N
  N12      1.0000 0.97530  0.36940  0.63190  Biso   1.000  N
  N13      1.0000 0.93870  0.12260  0.21010  Biso   1.000  N
  N14      1.0000 0.06130  0.62260  0.28990  Biso   1.000  N
  N15      1.0000 0.06130  0.87740  0.78990  Biso   1.000  N
  N16      1.0000 0.93870  0.37740  0.71010  Biso   1.000  N
  N17      1.0000 0.46620  0.70260  0.07260  Biso   1.000  N
  N18      1.0000 0.53380  0.20260  0.42740  Biso   1.000  N
  N19      1.0000 0.53380  0.29740  0.92740  Biso   1.000  N
  N20      1.0000 0.46620  0.79740  0.57260  Biso   1.000  N
  N21      1.0000 0.37900  0.73480  0.11290  Biso   1.000  N
  N22      1.0000 0.62100  0.23480  0.38710  Biso   1.000  N
  N23      1.0000 0.62100  0.26520  0.88710  Biso   1.000  N
  N24      1.0000 0.37900  0.76520  0.61290  Biso   1.000  N
  C1       1.0000 0.82740  0.06300  0.79990  Biso   1.000  C
  C2       1.0000 0.17260  0.56300  0.70010  Biso   1.000  C
  C3       1.0000 0.17260  0.93700  0.20010  Biso   1.000  C
  C4       1.0000 0.82740  0.43700  0.29990  Biso   1.000  C
  C5       1.0000 0.73780  0.02820  0.72750  Biso   1.000  C
  C6       1.0000 0.26220  0.52820  0.77250  Biso   1.000  C
  C7       1.0000 0.26220  0.97180  0.27250  Biso   1.000  C
  C8       1.0000 0.73780  0.47180  0.22750  Biso   1.000  C
  C9       1.0000 0.64180  0.00130  0.76350  Biso   1.000  C
  C10      1.0000 0.35820  0.50130  0.73650  Biso   1.000  C
  C11      1.0000 0.35820  0.99870  0.23650  Biso   1.000  C
  C12      1.0000 0.64180  0.49870  0.26350  Biso   1.000  C
  C13      1.0000 0.60450  0.01480  0.91990  Biso   1.000  C
  C14      1.0000 0.39550  0.51480  0.58010  Biso   1.000  C
  C15      1.0000 0.39550  0.98520  0.08010  Biso   1.000  C
  C16      1.0000 0.60450  0.48520  0.41990  Biso   1.000  C
  C17      1.0000 0.50030  0.94130  0.89830  Biso   1.000  C
  C18      1.0000 0.49970  0.44130  0.60170  Biso   1.000  C
  C19      1.0000 0.49970  0.05870  0.10170  Biso   1.000  C
  C20      1.0000 0.50030  0.55870  0.39830  Biso   1.000  C
  C21      1.0000 0.38520  0.97200  0.84990  Biso   1.000  C
  C22      1.0000 0.61480  0.47200  0.65010  Biso   1.000  C
  C23      1.0000 0.61480  0.02800  0.15010  Biso   1.000  C
  C24      1.0000 0.38520  0.52800  0.34990  Biso   1.000  C
  C25      1.0000 0.28580  0.90360  0.83710  Biso   1.000  C
  C26      1.0000 0.71420  0.40360  0.66290  Biso   1.000  C
  C27      1.0000 0.71420  0.09640  0.16290  Biso   1.000  C
  C28      1.0000 0.28580  0.59640  0.33710  Biso   1.000  C
  C29      1.0000 0.83850  0.05990  0.21840  Biso   1.000  C
  C30      1.0000 0.16150  0.55990  0.28160  Biso   1.000  C
  C31      1.0000 0.16150  0.94010  0.78160  Biso   1.000  C
  C32      1.0000 0.83850  0.44010  0.71840  Biso   1.000  C
  C33      1.0000 0.07110  0.19130  0.15100  Biso   1.000  C
  C34      1.0000 0.92890  0.69130  0.34900  Biso   1.000  C
  C35      1.0000 0.92890  0.80870  0.84900  Biso   1.000  C
  C36      1.0000 0.07110  0.30870  0.65100  Biso   1.000  C
  C37      1.0000 0.09660  0.22120  0.24060  Biso   1.000  C
  C38      1.0000 0.90340  0.72120  0.25940  Biso   1.000  C
  C39      1.0000 0.90340  0.77880  0.75940  Biso   1.000  C
  C40      1.0000 0.09660  0.27880  0.74060  Biso   1.000  C
  C41      1.0000 0.01090  0.17710  0.27580  Biso   1.000  C
  C42      1.0000 0.98910  0.67710  0.22420  Biso   1.000  C
  C43      1.0000 0.98910  0.82290  0.72420  Biso   1.000  C
  C44      1.0000 0.01090  0.32290  0.77580  Biso   1.000  C
  C45      1.0000 0.30290  0.81400  0.87500  Biso   1.000  C
  C46      1.0000 0.69710  0.31400  0.62500  Biso   1.000  C
  C47      1.0000 0.69710  0.18600  0.12500  Biso   1.000  C
  C48      1.0000 0.30290  0.68600  0.37500  Biso   1.000  C
  C49      1.0000 0.41970  0.78410  0.92580  Biso   1.000  C
  C50      1.0000 0.58030  0.28410  0.57420  Biso   1.000  C
  C51      1.0000 0.58030  0.21590  0.07420  Biso   1.000  C
  C52      1.0000 0.41970  0.71590  0.42580  Biso   1.000  C
  C53      1.0000 0.51700  0.84870  0.93500  Biso   1.000  C
  C54      1.0000 0.48300  0.34870  0.56500  Biso   1.000  C
  C55      1.0000 0.48300  0.15130  0.06500  Biso   1.000  C
  C56      1.0000 0.51700  0.65130  0.43500  Biso   1.000  C
  C57      1.0000 0.43540  0.68780  0.97480  Biso   1.000  C
  C58      1.0000 0.56460  0.18780  0.52520  Biso   1.000  C
  C59      1.0000 0.56460  0.31220  0.02520  Biso   1.000  C
  C60      1.0000 0.43540  0.81220  0.47480  Biso   1.000  C
  C61      1.0000 0.57630  0.70430  0.13120  Biso   1.000  C
  C62      1.0000 0.42370  0.20430  0.36880  Biso   1.000  C
  C63      1.0000 0.42370  0.29570  0.86880  Biso   1.000  C
  C64      1.0000 0.57630  0.79570  0.63120  Biso   1.000  C
  C65      1.0000 0.56250  0.73790  0.21260  Biso   1.000  C
  C66      1.0000 0.43750  0.23790  0.28740  Biso   1.000  C
  C67      1.0000 0.43750  0.26210  0.78740  Biso   1.000  C
  C68      1.0000 0.56250  0.76210  0.71260  Biso   1.000  C
  C69      1.0000 0.43890  0.75540  0.19770  Biso   1.000  C
  C70      1.0000 0.56110  0.25540  0.30230  Biso   1.000  C
  C71      1.0000 0.56110  0.24460  0.80230  Biso   1.000  C
  C72      1.0000 0.43890  0.74460  0.69770  Biso   1.000  C
  O1       1.0000 0.86090  0.22580  0.96850  Biso   1.000  O
  O2       1.0000 0.13910  0.72580  0.53150  Biso   1.000  O
  O3       1.0000 0.13910  0.77420  0.03150  Biso   1.000  O
  O4       1.0000 0.86090  0.27420  0.46850  Biso   1.000  O
  Cl5      1.0000 0.25345  0.42211  0.06404  Biso   1.000  Cl
  Cl6      1.0000 0.74655  0.92211  0.43596  Biso   1.000  Cl
  Cl7      1.0000 0.74655  0.57789  0.93596  Biso   1.000  Cl
  Cl8      1.0000 0.25345  0.07789  0.56404  Biso   1.000  Cl
  O5       1.0000 0.25010  0.32550  0.04020  Biso   1.000  O
  O6       1.0000 0.74990  0.82550  0.45980  Biso   1.000  O
  O7       1.0000 0.74990  0.67450  0.95980  Biso   1.000  O
  O8       1.0000 0.25010  0.17450  0.54020  Biso   1.000  O
  O9       1.0000 0.34870  0.44150  0.13150  Biso   1.000  O
  O10      1.0000 0.65130  0.94150  0.36850  Biso   1.000  O
  O11      1.0000 0.65130  0.55850  0.86850  Biso   1.000  O
  O12      1.0000 0.34870  0.05850  0.63150  Biso   1.000  O
  O13      1.0000 0.28270  0.46660  0.99670  Biso   1.000  O
  O14      1.0000 0.71730  0.96660  0.50330  Biso   1.000  O
  O15      1.0000 0.71730  0.53340  0.00330  Biso   1.000  O
  O16      1.0000 0.28270  0.03340  0.49670  Biso   1.000  O
  O17      1.0000 0.15770  0.45620  0.08680  Biso   1.000  O
  O18      1.0000 0.84230  0.95620  0.41320  Biso   1.000  O
  O19      1.0000 0.84230  0.54380  0.91320  Biso   1.000  O
  O20      1.0000 0.15770  0.04380  0.58680  Biso   1.000  O
  O21      1.0000 0.91700  0.38280  0.08130  Biso   1.000  O
  O22      1.0000 0.08300  0.88280  0.41870  Biso   1.000  O
  O23      1.0000 0.08300  0.61720  0.91870  Biso   1.000  O
  O24      1.0000 0.91700  0.11720  0.58130  Biso   1.000  O
  H1       1.0000 0.90700  0.08800  0.79500  Biso   1.000  H
  H2       1.0000 0.09300  0.58800  0.70500  Biso   1.000  H
  H3       1.0000 0.09300  0.91200  0.20500  Biso   1.000  H
  H4       1.0000 0.90700  0.41200  0.29500  Biso   1.000  H
  H5       1.0000 0.74100  0.02700  0.66400  Biso   1.000  H
  H6       1.0000 0.25900  0.52700  0.83600  Biso   1.000  H
  H7       1.0000 0.25900  0.97300  0.33600  Biso   1.000  H
  H8       1.0000 0.74100  0.47300  0.16400  Biso   1.000  H
  H9       1.0000 0.56000  0.97800  0.72900  Biso   1.000  H
  H10      1.0000 0.44000  0.47800  0.77100  Biso   1.000  H
  H11      1.0000 0.44000  0.02200  0.27100  Biso   1.000  H
  H12      1.0000 0.56000  0.52200  0.22900  Biso   1.000  H
  H13      1.0000 0.65800  0.00000  0.98100  Biso   1.000  H
  H14      1.0000 0.34200  0.50000  0.51900  Biso   1.000  H
  H15      1.0000 0.34200  0.00000  0.01900  Biso   1.000  H
  H16      1.0000 0.65800  0.50000  0.48100  Biso   1.000  H
  H17      1.0000 0.56900  0.07900  0.92700  Biso   1.000  H
  H18      1.0000 0.43100  0.57900  0.57300  Biso   1.000  H
  H19      1.0000 0.43100  0.92100  0.07300  Biso   1.000  H
  H20      1.0000 0.56900  0.42100  0.42700  Biso   1.000  H
  H21      1.0000 0.69000  0.02700  0.19800  Biso   1.000  H
  H22      1.0000 0.31000  0.52700  0.30200  Biso   1.000  H
  H23      1.0000 0.31000  0.97300  0.80200  Biso   1.000  H
  H24      1.0000 0.69000  0.47300  0.69800  Biso   1.000  H
  H25      1.0000 0.85400  0.99400  0.20000  Biso   1.000  H
  H26      1.0000 0.14600  0.49400  0.30000  Biso   1.000  H
  H27      1.0000 0.14600  0.00600  0.80000  Biso   1.000  H
  H28      1.0000 0.85400  0.50600  0.70000  Biso   1.000  H
  H29      1.0000 0.83700  0.05400  0.28300  Biso   1.000  H
  H30      1.0000 0.16300  0.55400  0.21700  Biso   1.000  H
  H31      1.0000 0.16300  0.94600  0.71700  Biso   1.000  H
  H32      1.0000 0.83700  0.44600  0.78300  Biso   1.000  H
  H33      1.0000 0.11800  0.21400  0.10900  Biso   1.000  H
  H34      1.0000 0.88200  0.71400  0.39100  Biso   1.000  H
  H35      1.0000 0.88200  0.78600  0.89100  Biso   1.000  H
  H36      1.0000 0.11800  0.28600  0.60900  Biso   1.000  H
  H37      1.0000 0.16200  0.26900  0.26900  Biso   1.000  H
  H38      1.0000 0.83800  0.76900  0.23100  Biso   1.000  H
  H39      1.0000 0.83800  0.73100  0.73100  Biso   1.000  H
  H40      1.0000 0.16200  0.23100  0.76900  Biso   1.000  H
  H41      1.0000 0.00600  0.18100  0.34100  Biso   1.000  H
  H42      1.0000 0.99400  0.68100  0.15900  Biso   1.000  H
  H43      1.0000 0.99400  0.81900  0.65900  Biso   1.000  H
  H44      1.0000 0.00600  0.31900  0.84100  Biso   1.000  H
  H45      1.0000 0.28700  0.74300  0.87400  Biso   1.000  H
  H46      1.0000 0.71300  0.24300  0.62600  Biso   1.000  H
  H47      1.0000 0.71300  0.25700  0.12600  Biso   1.000  H
  H48      1.0000 0.28700  0.75700  0.37400  Biso   1.000  H
  H49      1.0000 0.60100  0.82700  0.96700  Biso   1.000  H
  H50      1.0000 0.39900  0.32700  0.53300  Biso   1.000  H
  H51      1.0000 0.39900  0.17300  0.03300  Biso   1.000  H
  H52      1.0000 0.60100  0.67300  0.46700  Biso   1.000  H
  H53      1.0000 0.49600  0.64900  0.95700  Biso   1.000  H
  H54      1.0000 0.50400  0.14900  0.54300  Biso   1.000  H
  H55      1.0000 0.50400  0.35100  0.04300  Biso   1.000  H
  H56      1.0000 0.49600  0.85100  0.45700  Biso   1.000  H
  H57      1.0000 0.35800  0.65000  0.95600  Biso   1.000  H
  H58      1.0000 0.64200  0.15000  0.54400  Biso   1.000  H
  H59      1.0000 0.64200  0.35000  0.04400  Biso   1.000  H
  H60      1.0000 0.35800  0.85000  0.45600  Biso   1.000  H
  H61      1.0000 0.65400  0.68500  0.11800  Biso   1.000  H
  H62      1.0000 0.34600  0.18500  0.38200  Biso   1.000  H
  H63      1.0000 0.34600  0.31500  0.88200  Biso   1.000  H
  H64      1.0000 0.65400  0.81500  0.61800  Biso   1.000  H
  H65      1.0000 0.62800  0.75000  0.27200  Biso   1.000  H
  H66      1.0000 0.37200  0.25000  0.22800  Biso   1.000  H
  H67      1.0000 0.37200  0.25000  0.72800  Biso   1.000  H
  H68      1.0000 0.62800  0.75000  0.77200  Biso   1.000  H
  H69      1.0000 0.39900  0.78100  0.24400  Biso   1.000  H
  H70      1.0000 0.60100  0.28100  0.25600  Biso   1.000  H
  H71      1.0000 0.60100  0.21900  0.75600  Biso   1.000  H
  H72      1.0000 0.39900  0.71900  0.74400  Biso   1.000  H
  H73      1.0000 0.78100  0.23900  0.93800  Biso   1.000  H
  H74      1.0000 0.21900  0.73900  0.56200  Biso   1.000  H
  H75      1.0000 0.21900  0.76100  0.06200  Biso   1.000  H
  H76      1.0000 0.78100  0.26100  0.43800  Biso   1.000  H
  H77      1.0000 0.91500  0.27600  0.98600  Biso   1.000  H
  H78      1.0000 0.08500  0.77600  0.51400  Biso   1.000  H
  H79      1.0000 0.08500  0.72400  0.01400  Biso   1.000  H
  H80      1.0000 0.91500  0.22400  0.48600  Biso   1.000  H
  H81      1.0000 0.99700  0.40800  0.08800  Biso   1.000  H
  H82      1.0000 0.00300  0.90800  0.41200  Biso   1.000  H
  H83      1.0000 0.00300  0.59200  0.91200  Biso   1.000  H
  H84      1.0000 0.99700  0.09200  0.58800  Biso   1.000  H
  H85      1.0000 0.91000  0.34800  0.13400  Biso   1.000  H
  H86      1.0000 0.09000  0.84800  0.36600  Biso   1.000  H
  H87      1.0000 0.09000  0.65200  0.86600  Biso   1.000  H
  H88      1.0000 0.91000  0.15200  0.63400  Biso   1.000  H
