data_image0
_cell_length_a       21.659
_cell_length_b       11.0123
_cell_length_c       16.923
_cell_angle_alpha    90
_cell_angle_beta     90
_cell_angle_gamma    90

_symmetry_space_group_name_H-M    "P 1"
_symmetry_int_tables_number       1

loop_
  _symmetry_equiv_pos_as_xyz
  'x, y, z'

loop_
  _atom_site_label
  _atom_site_occupancy
  _atom_site_fract_x
  _atom_site_fract_y
  _atom_site_fract_z
  _atom_site_thermal_displace_type
  _atom_site_B_iso_or_equiv
  _atom_site_type_symbol
  Cu1      1.0000 0.14897  0.02098  0.23478  Biso   1.000  Cu
  Cu2      1.0000 0.35103  0.47902  0.23478  Biso   1.000  Cu
  Cu3      1.0000 0.64897  0.97902  0.26522  Biso   1.000  Cu
  Cu4      1.0000 0.85103  0.52098  0.26522  Biso   1.000  Cu
  Cu5      1.0000 0.85103  0.97902  0.76522  Biso   1.000  Cu
  Cu6      1.0000 0.64897  0.52098  0.76522  Biso   1.000  Cu
  Cu7      1.0000 0.35103  0.02098  0.73478  Biso   1.000  Cu
  Cu8      1.0000 0.14897  0.47902  0.73478  Biso   1.000  Cu
  O1       1.0000 0.38197  0.66537  0.35312  Biso   1.000  O
  O2       1.0000 0.11803  0.83463  0.35312  Biso   1.000  O
  O3       1.0000 0.88197  0.33463  0.14688  Biso   1.000  O
  O4       1.0000 0.61803  0.16537  0.14688  Biso   1.000  O
  O5       1.0000 0.61803  0.33463  0.64688  Biso   1.000  O
  O6       1.0000 0.88197  0.16537  0.64688  Biso   1.000  O
  O7       1.0000 0.11803  0.66537  0.85312  Biso   1.000  O
  O8       1.0000 0.38197  0.83463  0.85312  Biso   1.000  O
  H1       1.0000 0.41390  0.62510  0.34930  Biso   1.000  H
  H2       1.0000 0.08610  0.87490  0.34930  Biso   1.000  H
  H3       1.0000 0.91390  0.37490  0.15070  Biso   1.000  H
  H4       1.0000 0.58610  0.12510  0.15070  Biso   1.000  H
  H5       1.0000 0.58610  0.37490  0.65070  Biso   1.000  H
  H6       1.0000 0.91390  0.12510  0.65070  Biso   1.000  H
  H7       1.0000 0.08610  0.62510  0.84930  Biso   1.000  H
  H8       1.0000 0.41390  0.87490  0.84930  Biso   1.000  H
  O9       1.0000 0.23512  0.96558  0.24983  Biso   1.000  O
  O10      1.0000 0.26488  0.53442  0.24983  Biso   1.000  O
  O11      1.0000 0.73512  0.03442  0.25017  Biso   1.000  O
  O12      1.0000 0.76488  0.46558  0.25017  Biso   1.000  O
  O13      1.0000 0.76488  0.03442  0.75017  Biso   1.000  O
  O14      1.0000 0.73512  0.46558  0.75017  Biso   1.000  O
  O15      1.0000 0.26488  0.96558  0.74983  Biso   1.000  O
  O16      1.0000 0.23512  0.53442  0.74983  Biso   1.000  O
  O17      1.0000 0.52014  0.03737  0.16916  Biso   1.000  O
  O18      1.0000 0.97986  0.46263  0.16916  Biso   1.000  O
  O19      1.0000 0.02014  0.96263  0.33084  Biso   1.000  O
  O20      1.0000 0.47986  0.53737  0.33084  Biso   1.000  O
  O21      1.0000 0.47986  0.96263  0.83084  Biso   1.000  O
  O22      1.0000 0.02014  0.53737  0.83084  Biso   1.000  O
  O23      1.0000 0.97986  0.03737  0.66916  Biso   1.000  O
  O24      1.0000 0.52014  0.46263  0.66916  Biso   1.000  O
  O25      1.0000 0.55988  0.93831  0.27281  Biso   1.000  O
  O26      1.0000 0.94012  0.56169  0.27281  Biso   1.000  O
  O27      1.0000 0.05988  0.06169  0.22719  Biso   1.000  O
  O28      1.0000 0.44012  0.43831  0.22719  Biso   1.000  O
  O29      1.0000 0.44012  0.06169  0.72719  Biso   1.000  O
  O30      1.0000 0.05988  0.43831  0.72719  Biso   1.000  O
  O31      1.0000 0.94012  0.93831  0.77281  Biso   1.000  O
  O32      1.0000 0.55988  0.56169  0.77281  Biso   1.000  O
  N1       1.0000 0.14887  0.27567  0.41187  Biso   1.000  N
  N2       1.0000 0.35113  0.22433  0.41187  Biso   1.000  N
  N3       1.0000 0.64887  0.72433  0.08813  Biso   1.000  N
  N4       1.0000 0.85113  0.77567  0.08813  Biso   1.000  N
  N5       1.0000 0.85113  0.72433  0.58813  Biso   1.000  N
  N6       1.0000 0.64887  0.77567  0.58813  Biso   1.000  N
  N7       1.0000 0.35113  0.27567  0.91187  Biso   1.000  N
  N8       1.0000 0.14887  0.22433  0.91187  Biso   1.000  N
  O33      1.0000 0.28897  0.08265  0.16750  Biso   1.000  O
  O34      1.0000 0.21103  0.41735  0.16750  Biso   1.000  O
  O35      1.0000 0.78897  0.91735  0.33250  Biso   1.000  O
  O36      1.0000 0.71103  0.58265  0.33250  Biso   1.000  O
  O37      1.0000 0.71103  0.91735  0.83250  Biso   1.000  O
  O38      1.0000 0.78897  0.58265  0.83250  Biso   1.000  O
  O39      1.0000 0.21103  0.08265  0.66750  Biso   1.000  O
  O40      1.0000 0.28897  0.41735  0.66750  Biso   1.000  O
  O41      1.0000 0.02808  0.31347  0.46009  Biso   1.000  O
  O42      1.0000 0.47192  0.18653  0.46009  Biso   1.000  O
  O43      1.0000 0.52808  0.68653  0.03991  Biso   1.000  O
  O44      1.0000 0.97192  0.81347  0.03991  Biso   1.000  O
  O45      1.0000 0.97192  0.68653  0.53991  Biso   1.000  O
  O46      1.0000 0.52808  0.81347  0.53991  Biso   1.000  O
  O47      1.0000 0.47192  0.31347  0.96009  Biso   1.000  O
  O48      1.0000 0.02808  0.18653  0.96009  Biso   1.000  O
  C1       1.0000 0.40036  0.98103  0.22380  Biso   1.000  C
  C2       1.0000 0.09964  0.51897  0.22380  Biso   1.000  C
  C3       1.0000 0.90036  0.01897  0.27620  Biso   1.000  C
  C4       1.0000 0.59964  0.48103  0.27620  Biso   1.000  C
  C5       1.0000 0.59964  0.01897  0.77620  Biso   1.000  C
  C6       1.0000 0.90036  0.48103  0.77620  Biso   1.000  C
  C7       1.0000 0.09964  0.98103  0.72380  Biso   1.000  C
  C8       1.0000 0.40036  0.51897  0.72380  Biso   1.000  C
  H9       1.0000 0.40370  0.04910  0.19160  Biso   1.000  H
  H10      1.0000 0.09630  0.45090  0.19160  Biso   1.000  H
  H11      1.0000 0.90370  0.95090  0.30840  Biso   1.000  H
  H12      1.0000 0.59630  0.54910  0.30840  Biso   1.000  H
  H13      1.0000 0.59630  0.95090  0.80840  Biso   1.000  H
  H14      1.0000 0.90370  0.54910  0.80840  Biso   1.000  H
  H15      1.0000 0.09630  0.04910  0.69160  Biso   1.000  H
  H16      1.0000 0.40370  0.45090  0.69160  Biso   1.000  H
  C9       1.0000 0.28468  0.00187  0.21869  Biso   1.000  C
  C10      1.0000 0.21532  0.49813  0.21869  Biso   1.000  C
  C11      1.0000 0.78468  0.99813  0.28131  Biso   1.000  C
  C12      1.0000 0.71532  0.50187  0.28131  Biso   1.000  C
  C13      1.0000 0.71532  0.99813  0.78131  Biso   1.000  C
  C14      1.0000 0.78468  0.50187  0.78131  Biso   1.000  C
  C15      1.0000 0.21532  0.00187  0.71869  Biso   1.000  C
  C16      1.0000 0.28468  0.49813  0.71869  Biso   1.000  C
  C17      1.0000 0.34241  0.93843  0.24577  Biso   1.000  C
  C18      1.0000 0.15759  0.56157  0.24577  Biso   1.000  C
  C19      1.0000 0.84241  0.06157  0.25423  Biso   1.000  C
  C20      1.0000 0.65759  0.43843  0.25423  Biso   1.000  C
  C21      1.0000 0.65759  0.06157  0.75423  Biso   1.000  C
  C22      1.0000 0.84241  0.43843  0.75423  Biso   1.000  C
  C23      1.0000 0.15759  0.93843  0.74577  Biso   1.000  C
  C24      1.0000 0.34241  0.56157  0.74577  Biso   1.000  C
  C25      1.0000 0.39004  0.77144  0.31352  Biso   1.000  C
  C26      1.0000 0.10996  0.72856  0.31352  Biso   1.000  C
  C27      1.0000 0.89004  0.22856  0.18648  Biso   1.000  C
  C28      1.0000 0.60996  0.27144  0.18648  Biso   1.000  C
  C29      1.0000 0.60996  0.22856  0.68648  Biso   1.000  C
  C30      1.0000 0.89004  0.27144  0.68648  Biso   1.000  C
  C31      1.0000 0.10996  0.77144  0.81352  Biso   1.000  C
  C32      1.0000 0.39004  0.72856  0.81352  Biso   1.000  C
  C33      1.0000 0.44787  0.81733  0.29411  Biso   1.000  C
  C34      1.0000 0.05213  0.68267  0.29411  Biso   1.000  C
  C35      1.0000 0.94787  0.18267  0.20589  Biso   1.000  C
  C36      1.0000 0.55213  0.31733  0.20589  Biso   1.000  C
  C37      1.0000 0.55213  0.18267  0.70589  Biso   1.000  C
  C38      1.0000 0.94787  0.31733  0.70589  Biso   1.000  C
  C39      1.0000 0.05213  0.81733  0.79411  Biso   1.000  C
  C40      1.0000 0.44787  0.68267  0.79411  Biso   1.000  C
  H17      1.0000 0.48330  0.77720  0.31100  Biso   1.000  H
  H18      1.0000 0.01670  0.72280  0.31100  Biso   1.000  H
  H19      1.0000 0.98330  0.22280  0.18900  Biso   1.000  H
  H20      1.0000 0.51670  0.27720  0.18900  Biso   1.000  H
  H21      1.0000 0.51670  0.22280  0.68900  Biso   1.000  H
  H22      1.0000 0.98330  0.27720  0.68900  Biso   1.000  H
  H23      1.0000 0.01670  0.77720  0.81100  Biso   1.000  H
  H24      1.0000 0.48330  0.72280  0.81100  Biso   1.000  H
  C41      1.0000 0.45302  0.92222  0.24979  Biso   1.000  C
  C42      1.0000 0.04698  0.57778  0.24979  Biso   1.000  C
  C43      1.0000 0.95302  0.07778  0.25021  Biso   1.000  C
  C44      1.0000 0.54698  0.42222  0.25021  Biso   1.000  C
  C45      1.0000 0.54698  0.07778  0.75021  Biso   1.000  C
  C46      1.0000 0.95302  0.42222  0.75021  Biso   1.000  C
  C47      1.0000 0.04698  0.92222  0.74979  Biso   1.000  C
  C48      1.0000 0.45302  0.57778  0.74979  Biso   1.000  C
  C49      1.0000 0.51603  0.97039  0.22804  Biso   1.000  C
  C50      1.0000 0.98397  0.52961  0.22804  Biso   1.000  C
  C51      1.0000 0.01603  0.02961  0.27196  Biso   1.000  C
  C52      1.0000 0.48397  0.47039  0.27196  Biso   1.000  C
  C53      1.0000 0.48397  0.02961  0.77196  Biso   1.000  C
  C54      1.0000 0.01603  0.47039  0.77196  Biso   1.000  C
  C55      1.0000 0.98397  0.97039  0.72804  Biso   1.000  C
  C56      1.0000 0.51603  0.52961  0.72804  Biso   1.000  C
  N9       1.0000 0.15728  0.12202  0.32988  Biso   1.000  N
  N10      1.0000 0.34272  0.37798  0.32988  Biso   1.000  N
  N11      1.0000 0.65728  0.87798  0.17012  Biso   1.000  N
  N12      1.0000 0.84272  0.62202  0.17012  Biso   1.000  N
  N13      1.0000 0.84272  0.87798  0.67012  Biso   1.000  N
  N14      1.0000 0.65728  0.62202  0.67012  Biso   1.000  N
  N15      1.0000 0.34272  0.12202  0.82988  Biso   1.000  N
  N16      1.0000 0.15728  0.37798  0.82988  Biso   1.000  N
  C57      1.0000 0.13680  0.23340  0.34053  Biso   1.000  C
  C58      1.0000 0.36320  0.26660  0.34053  Biso   1.000  C
  C59      1.0000 0.63680  0.76660  0.15947  Biso   1.000  C
  C60      1.0000 0.86320  0.73340  0.15947  Biso   1.000  C
  C61      1.0000 0.86320  0.76660  0.65947  Biso   1.000  C
  C62      1.0000 0.63680  0.73340  0.65947  Biso   1.000  C
  C63      1.0000 0.36320  0.23340  0.84053  Biso   1.000  C
  C64      1.0000 0.13680  0.26660  0.84053  Biso   1.000  C
  H25      1.0000 0.11610  0.27760  0.30190  Biso   1.000  H
  H26      1.0000 0.38390  0.22240  0.30190  Biso   1.000  H
  H27      1.0000 0.61610  0.72240  0.19810  Biso   1.000  H
  H28      1.0000 0.88390  0.77760  0.19810  Biso   1.000  H
  H29      1.0000 0.88390  0.72240  0.69810  Biso   1.000  H
  H30      1.0000 0.61610  0.77760  0.69810  Biso   1.000  H
  H31      1.0000 0.38390  0.27760  0.80190  Biso   1.000  H
  H32      1.0000 0.11610  0.22240  0.80190  Biso   1.000  H
  C65      1.0000 0.33782  0.83431  0.29021  Biso   1.000  C
  C66      1.0000 0.16218  0.66569  0.29021  Biso   1.000  C
  C67      1.0000 0.83782  0.16569  0.20979  Biso   1.000  C
  C68      1.0000 0.66218  0.33431  0.20979  Biso   1.000  C
  C69      1.0000 0.66218  0.16569  0.70979  Biso   1.000  C
  C70      1.0000 0.83782  0.33431  0.70979  Biso   1.000  C
  C71      1.0000 0.16218  0.83431  0.79021  Biso   1.000  C
  C72      1.0000 0.33782  0.66569  0.79021  Biso   1.000  C
  H33      1.0000 0.29910  0.80570  0.30480  Biso   1.000  H
  H34      1.0000 0.20090  0.69430  0.30480  Biso   1.000  H
  H35      1.0000 0.79910  0.19430  0.19520  Biso   1.000  H
  H36      1.0000 0.70090  0.30570  0.19520  Biso   1.000  H
  H37      1.0000 0.70090  0.19430  0.69520  Biso   1.000  H
  H38      1.0000 0.79910  0.30570  0.69520  Biso   1.000  H
  H39      1.0000 0.20090  0.80570  0.80480  Biso   1.000  H
  H40      1.0000 0.29910  0.69430  0.80480  Biso   1.000  H
  C73      1.0000 0.94451  0.17650  0.46255  Biso   1.000  C
  C74      1.0000 0.55549  0.32350  0.46255  Biso   1.000  C
  C75      1.0000 0.44451  0.82350  0.03745  Biso   1.000  C
  C76      1.0000 0.05549  0.67650  0.03745  Biso   1.000  C
  C77      1.0000 0.05549  0.82350  0.53745  Biso   1.000  C
  C78      1.0000 0.44451  0.67650  0.53745  Biso   1.000  C
  C79      1.0000 0.55549  0.17650  0.96255  Biso   1.000  C
  C80      1.0000 0.94451  0.32350  0.96255  Biso   1.000  C
  H41      1.0000 0.96510  0.13230  0.42060  Biso   1.000  H
  H42      1.0000 0.53490  0.36770  0.42060  Biso   1.000  H
  H43      1.0000 0.46510  0.86770  0.07940  Biso   1.000  H
  H44      1.0000 0.03490  0.63230  0.07940  Biso   1.000  H
  H45      1.0000 0.03490  0.86770  0.57940  Biso   1.000  H
  H46      1.0000 0.46510  0.63230  0.57940  Biso   1.000  H
  H47      1.0000 0.53490  0.13230  0.92060  Biso   1.000  H
  H48      1.0000 0.96510  0.36770  0.92060  Biso   1.000  H
  H49      1.0000 0.92310  0.11810  0.49550  Biso   1.000  H
  H50      1.0000 0.57690  0.38190  0.49550  Biso   1.000  H
  H51      1.0000 0.42310  0.88190  0.00450  Biso   1.000  H
  H52      1.0000 0.07690  0.61810  0.00450  Biso   1.000  H
  H53      1.0000 0.07690  0.88190  0.50450  Biso   1.000  H
  H54      1.0000 0.42310  0.61810  0.50450  Biso   1.000  H
  H55      1.0000 0.57690  0.11810  0.99550  Biso   1.000  H
  H56      1.0000 0.92310  0.38190  0.99550  Biso   1.000  H
  C81      1.0000 0.07591  0.37650  0.50044  Biso   1.000  C
  C82      1.0000 0.42409  0.12350  0.50044  Biso   1.000  C
  C83      1.0000 0.57591  0.62350  0.99956  Biso   1.000  C
  C84      1.0000 0.92409  0.87650  0.99956  Biso   1.000  C
  C85      1.0000 0.92409  0.62350  0.49956  Biso   1.000  C
  C86      1.0000 0.57591  0.87650  0.49956  Biso   1.000  C
  C87      1.0000 0.42409  0.37650  0.00044  Biso   1.000  C
  C88      1.0000 0.07591  0.12350  0.00044  Biso   1.000  C
  H57      1.0000 0.08920  0.33050  0.54630  Biso   1.000  H
  H58      1.0000 0.41080  0.16950  0.54630  Biso   1.000  H
  H59      1.0000 0.58920  0.66950  0.95370  Biso   1.000  H
  H60      1.0000 0.91080  0.83050  0.95370  Biso   1.000  H
  H61      1.0000 0.91080  0.66950  0.45370  Biso   1.000  H
  H62      1.0000 0.58920  0.83050  0.45370  Biso   1.000  H
  H63      1.0000 0.41080  0.33050  0.04630  Biso   1.000  H
  H64      1.0000 0.08920  0.16950  0.04630  Biso   1.000  H
  H65      1.0000 0.06120  0.45510  0.51810  Biso   1.000  H
  H66      1.0000 0.43880  0.04490  0.51810  Biso   1.000  H
  H67      1.0000 0.56120  0.54490  0.98190  Biso   1.000  H
  H68      1.0000 0.93880  0.95510  0.98190  Biso   1.000  H
  H69      1.0000 0.93880  0.54490  0.48190  Biso   1.000  H
  H70      1.0000 0.56120  0.95510  0.48190  Biso   1.000  H
  H71      1.0000 0.43880  0.45510  0.01810  Biso   1.000  H
  H72      1.0000 0.06120  0.04490  0.01810  Biso   1.000  H
  C89      1.0000 0.12863  0.39210  0.44387  Biso   1.000  C
  C90      1.0000 0.37137  0.10790  0.44387  Biso   1.000  C
  C91      1.0000 0.62863  0.60790  0.05613  Biso   1.000  C
  C92      1.0000 0.87137  0.89210  0.05613  Biso   1.000  C
  C93      1.0000 0.87137  0.60790  0.55613  Biso   1.000  C
  C94      1.0000 0.62863  0.89210  0.55613  Biso   1.000  C
  C95      1.0000 0.37137  0.39210  0.94387  Biso   1.000  C
  C96      1.0000 0.12863  0.10790  0.94387  Biso   1.000  C
  H73      1.0000 0.11590  0.44470  0.40090  Biso   1.000  H
  H74      1.0000 0.38410  0.05530  0.40090  Biso   1.000  H
  H75      1.0000 0.61590  0.55530  0.09910  Biso   1.000  H
  H76      1.0000 0.88410  0.94470  0.09910  Biso   1.000  H
  H77      1.0000 0.88410  0.55530  0.59910  Biso   1.000  H
  H78      1.0000 0.61590  0.94470  0.59910  Biso   1.000  H
  H79      1.0000 0.38410  0.44470  0.90090  Biso   1.000  H
  H80      1.0000 0.11590  0.05530  0.90090  Biso   1.000  H
  H81      1.0000 0.16290  0.43080  0.47090  Biso   1.000  H
  H82      1.0000 0.33710  0.06920  0.47090  Biso   1.000  H
  H83      1.0000 0.66290  0.56920  0.02910  Biso   1.000  H
  H84      1.0000 0.83710  0.93080  0.02910  Biso   1.000  H
  H85      1.0000 0.83710  0.56920  0.52910  Biso   1.000  H
  H86      1.0000 0.66290  0.93080  0.52910  Biso   1.000  H
  H87      1.0000 0.33710  0.43080  0.97090  Biso   1.000  H
  H88      1.0000 0.16290  0.06920  0.97090  Biso   1.000  H
  C97      1.0000 0.18341  0.09150  0.40117  Biso   1.000  C
  C98      1.0000 0.31659  0.40850  0.40117  Biso   1.000  C
  C99      1.0000 0.68341  0.90850  0.09883  Biso   1.000  C
  C100     1.0000 0.81659  0.59150  0.09883  Biso   1.000  C
  C101     1.0000 0.81659  0.90850  0.59883  Biso   1.000  C
  C102     1.0000 0.68341  0.59150  0.59883  Biso   1.000  C
  C103     1.0000 0.31659  0.09150  0.90117  Biso   1.000  C
  C104     1.0000 0.18341  0.40850  0.90117  Biso   1.000  C
  H89      1.0000 0.20200  0.01730  0.41240  Biso   1.000  H
  H90      1.0000 0.29800  0.48270  0.41240  Biso   1.000  H
  H91      1.0000 0.70200  0.98270  0.08760  Biso   1.000  H
  H92      1.0000 0.79800  0.51730  0.08760  Biso   1.000  H
  H93      1.0000 0.79800  0.98270  0.58760  Biso   1.000  H
  H94      1.0000 0.70200  0.51730  0.58760  Biso   1.000  H
  H95      1.0000 0.29800  0.01730  0.91240  Biso   1.000  H
  H96      1.0000 0.20200  0.48270  0.91240  Biso   1.000  H
  C105     1.0000 0.99117  0.24170  0.51059  Biso   1.000  C
  C106     1.0000 0.50883  0.25830  0.51059  Biso   1.000  C
  C107     1.0000 0.49117  0.75830  0.98941  Biso   1.000  C
  C108     1.0000 0.00883  0.74170  0.98941  Biso   1.000  C
  C109     1.0000 0.00883  0.75830  0.48941  Biso   1.000  C
  C110     1.0000 0.49117  0.74170  0.48941  Biso   1.000  C
  C111     1.0000 0.50883  0.24170  0.01059  Biso   1.000  C
  C112     1.0000 0.99117  0.25830  0.01059  Biso   1.000  C
  H97      1.0000 0.97070  0.29290  0.54920  Biso   1.000  H
  H98      1.0000 0.52930  0.20710  0.54920  Biso   1.000  H
  H99      1.0000 0.47070  0.70710  0.95080  Biso   1.000  H
  H100     1.0000 0.02930  0.79290  0.95080  Biso   1.000  H
  H101     1.0000 0.02930  0.70710  0.45080  Biso   1.000  H
  H102     1.0000 0.47070  0.79290  0.45080  Biso   1.000  H
  H103     1.0000 0.52930  0.29290  0.04920  Biso   1.000  H
  H104     1.0000 0.97070  0.20710  0.04920  Biso   1.000  H
  H105     1.0000 0.01680  0.18380  0.53860  Biso   1.000  H
  H106     1.0000 0.48320  0.31620  0.53860  Biso   1.000  H
  H107     1.0000 0.51680  0.81620  0.96140  Biso   1.000  H
  H108     1.0000 0.98320  0.68380  0.96140  Biso   1.000  H
  H109     1.0000 0.98320  0.81620  0.46140  Biso   1.000  H
  H110     1.0000 0.51680  0.68380  0.46140  Biso   1.000  H
  H111     1.0000 0.48320  0.18380  0.03860  Biso   1.000  H
  H112     1.0000 0.01680  0.31620  0.03860  Biso   1.000  H
  C113     1.0000 0.17821  0.18420  0.45224  Biso   1.000  C
  C114     1.0000 0.32179  0.31580  0.45224  Biso   1.000  C
  C115     1.0000 0.67821  0.81580  0.04776  Biso   1.000  C
  C116     1.0000 0.82179  0.68420  0.04776  Biso   1.000  C
  C117     1.0000 0.82179  0.81580  0.54776  Biso   1.000  C
  C118     1.0000 0.67821  0.68420  0.54776  Biso   1.000  C
  C119     1.0000 0.32179  0.18420  0.95224  Biso   1.000  C
  C120     1.0000 0.17821  0.31580  0.95224  Biso   1.000  C
  H113     1.0000 0.19170  0.18600  0.50440  Biso   1.000  H
  H114     1.0000 0.30830  0.31400  0.50440  Biso   1.000  H
  H115     1.0000 0.69170  0.81400  0.99560  Biso   1.000  H
  H116     1.0000 0.80830  0.68600  0.99560  Biso   1.000  H
  H117     1.0000 0.80830  0.81400  0.49560  Biso   1.000  H
  H118     1.0000 0.69170  0.68600  0.49560  Biso   1.000  H
  H119     1.0000 0.30830  0.18600  0.00440  Biso   1.000  H
  H120     1.0000 0.19170  0.31400  0.00440  Biso   1.000  H
  N17      1.0000 0.89945  0.26100  0.42799  Biso   1.000  N
  N18      1.0000 0.60055  0.23900  0.42799  Biso   1.000  N
  N19      1.0000 0.39945  0.73900  0.07201  Biso   1.000  N
  N20      1.0000 0.10055  0.76100  0.07201  Biso   1.000  N
  N21      1.0000 0.10055  0.73900  0.57201  Biso   1.000  N
  N22      1.0000 0.39945  0.76100  0.57201  Biso   1.000  N
  N23      1.0000 0.60055  0.26100  0.92799  Biso   1.000  N
  N24      1.0000 0.89945  0.23900  0.92799  Biso   1.000  N
  C121     1.0000 0.90954  0.33870  0.36920  Biso   1.000  C
  C122     1.0000 0.59046  0.16130  0.36920  Biso   1.000  C
  C123     1.0000 0.40954  0.66130  0.13080  Biso   1.000  C
  C124     1.0000 0.09046  0.83870  0.13080  Biso   1.000  C
  C125     1.0000 0.09046  0.66130  0.63080  Biso   1.000  C
  C126     1.0000 0.40954  0.83870  0.63080  Biso   1.000  C
  C127     1.0000 0.59046  0.33870  0.86920  Biso   1.000  C
  C128     1.0000 0.90954  0.16130  0.86920  Biso   1.000  C
  H121     1.0000 0.94700  0.34660  0.34300  Biso   1.000  H
  H122     1.0000 0.55300  0.15340  0.34300  Biso   1.000  H
  H123     1.0000 0.44700  0.65340  0.15700  Biso   1.000  H
  H124     1.0000 0.05300  0.84660  0.15700  Biso   1.000  H
  H125     1.0000 0.05300  0.65340  0.65700  Biso   1.000  H
  H126     1.0000 0.44700  0.84660  0.65700  Biso   1.000  H
  H127     1.0000 0.55300  0.34660  0.84300  Biso   1.000  H
  H128     1.0000 0.94700  0.15340  0.84300  Biso   1.000  H
  C129     1.0000 0.83997  0.27760  0.45200  Biso   1.000  C
  C130     1.0000 0.66003  0.22240  0.45200  Biso   1.000  C
  C131     1.0000 0.33997  0.72240  0.04800  Biso   1.000  C
  C132     1.0000 0.16003  0.77760  0.04800  Biso   1.000  C
  C133     1.0000 0.16003  0.72240  0.54800  Biso   1.000  C
  C134     1.0000 0.33997  0.77760  0.54800  Biso   1.000  C
  C135     1.0000 0.66003  0.27760  0.95200  Biso   1.000  C
  C136     1.0000 0.83997  0.22240  0.95200  Biso   1.000  C
  H129     1.0000 0.81980  0.23700  0.49260  Biso   1.000  H
  H130     1.0000 0.68020  0.26300  0.49260  Biso   1.000  H
  H131     1.0000 0.31980  0.76300  0.00740  Biso   1.000  H
  H132     1.0000 0.18020  0.73700  0.00740  Biso   1.000  H
  H133     1.0000 0.18020  0.76300  0.50740  Biso   1.000  H
  H134     1.0000 0.31980  0.73700  0.50740  Biso   1.000  H
  H135     1.0000 0.68020  0.23700  0.99260  Biso   1.000  H
  H136     1.0000 0.81980  0.26300  0.99260  Biso   1.000  H
  N25      1.0000 0.85989  0.40313  0.35270  Biso   1.000  N
  N26      1.0000 0.64011  0.09687  0.35270  Biso   1.000  N
  N27      1.0000 0.35989  0.59687  0.14730  Biso   1.000  N
  N28      1.0000 0.14011  0.90313  0.14730  Biso   1.000  N
  N29      1.0000 0.14011  0.59687  0.64730  Biso   1.000  N
  N30      1.0000 0.35989  0.90313  0.64730  Biso   1.000  N
  N31      1.0000 0.64011  0.40313  0.85270  Biso   1.000  N
  N32      1.0000 0.85989  0.09687  0.85270  Biso   1.000  N
  C137     1.0000 0.81669  0.36360  0.40567  Biso   1.000  C
  C138     1.0000 0.68331  0.13640  0.40567  Biso   1.000  C
  C139     1.0000 0.31669  0.63640  0.09433  Biso   1.000  C
  C140     1.0000 0.18331  0.86360  0.09433  Biso   1.000  C
  C141     1.0000 0.18331  0.63640  0.59433  Biso   1.000  C
  C142     1.0000 0.31669  0.86360  0.59433  Biso   1.000  C
  C143     1.0000 0.68331  0.36360  0.90567  Biso   1.000  C
  C144     1.0000 0.81669  0.13640  0.90567  Biso   1.000  C
  H137     1.0000 0.77650  0.39280  0.40880  Biso   1.000  H
  H138     1.0000 0.72350  0.10720  0.40880  Biso   1.000  H
  H139     1.0000 0.27650  0.60720  0.09120  Biso   1.000  H
  H140     1.0000 0.22350  0.89280  0.09120  Biso   1.000  H
  H141     1.0000 0.22350  0.60720  0.59120  Biso   1.000  H
  H142     1.0000 0.27650  0.89280  0.59120  Biso   1.000  H
  H143     1.0000 0.72350  0.39280  0.90880  Biso   1.000  H
  H144     1.0000 0.77650  0.10720  0.90880  Biso   1.000  H
  O49      1.0000 0.17622  0.17722  0.14228  Biso   1.000  O
  O50      1.0000 0.32378  0.32278  0.14228  Biso   1.000  O
  O51      1.0000 0.67622  0.82278  0.35772  Biso   1.000  O
  O52      1.0000 0.82378  0.67722  0.35772  Biso   1.000  O
  O53      1.0000 0.82378  0.82278  0.85772  Biso   1.000  O
  O54      1.0000 0.67622  0.67722  0.85772  Biso   1.000  O
  O55      1.0000 0.32378  0.17722  0.64228  Biso   1.000  O
  O56      1.0000 0.17622  0.32278  0.64228  Biso   1.000  O
  H145     1.0000 0.17790  0.25190  0.15610  Biso   1.000  H
  H146     1.0000 0.32210  0.24810  0.15610  Biso   1.000  H
  H147     1.0000 0.67790  0.74810  0.34390  Biso   1.000  H
  H148     1.0000 0.82210  0.75190  0.34390  Biso   1.000  H
  H149     1.0000 0.82210  0.74810  0.84390  Biso   1.000  H
  H150     1.0000 0.67790  0.75190  0.84390  Biso   1.000  H
  H151     1.0000 0.32210  0.25190  0.65610  Biso   1.000  H
  H152     1.0000 0.17790  0.24810  0.65610  Biso   1.000  H
  H153     1.0000 0.21300  0.14650  0.14200  Biso   1.000  H
  H154     1.0000 0.28700  0.35350  0.14200  Biso   1.000  H
  H155     1.0000 0.71300  0.85350  0.35800  Biso   1.000  H
  H156     1.0000 0.78700  0.64650  0.35800  Biso   1.000  H
  H157     1.0000 0.78700  0.85350  0.85800  Biso   1.000  H
  H158     1.0000 0.71300  0.64650  0.85800  Biso   1.000  H
  H159     1.0000 0.28700  0.14650  0.64200  Biso   1.000  H
  H160     1.0000 0.21300  0.35350  0.64200  Biso   1.000  H
