data_image0
_cell_length_a       10.6602
_cell_length_b       11.9053
_cell_length_c       22.724
_cell_angle_alpha    90
_cell_angle_beta     90
_cell_angle_gamma    90

_symmetry_space_group_name_H-M    "P 1"
_symmetry_int_tables_number       1

loop_
  _symmetry_equiv_pos_as_xyz
  'x, y, z'

loop_
  _atom_site_label
  _atom_site_occupancy
  _atom_site_fract_x
  _atom_site_fract_y
  _atom_site_fract_z
  _atom_site_thermal_displace_type
  _atom_site_B_iso_or_equiv
  _atom_site_type_symbol
  Fe1      1.0000 0.35574  0.54899  0.08735  Biso   1.000  Fe
  Fe2      1.0000 0.14426  0.45101  0.58735  Biso   1.000  Fe
  Fe3      1.0000 0.64426  0.04899  0.41265  Biso   1.000  Fe
  Fe4      1.0000 0.85574  0.95101  0.91265  Biso   1.000  Fe
  Cu1      1.0000 0.03653  0.86967  0.11149  Biso   1.000  Cu
  Cu2      1.0000 0.46347  0.13033  0.61149  Biso   1.000  Cu
  Cu3      1.0000 0.96347  0.36967  0.38851  Biso   1.000  Cu
  Cu4      1.0000 0.53653  0.63033  0.88851  Biso   1.000  Cu
  O1       1.0000 0.35279  0.57642  0.26150  Biso   1.000  O
  O2       1.0000 0.14721  0.42358  0.76150  Biso   1.000  O
  O3       1.0000 0.64721  0.07642  0.23850  Biso   1.000  O
  O4       1.0000 0.85279  0.92358  0.73850  Biso   1.000  O
  O5       1.0000 0.15806  0.42750  0.22241  Biso   1.000  O
  O6       1.0000 0.34194  0.57250  0.72241  Biso   1.000  O
  O7       1.0000 0.84194  0.92750  0.27759  Biso   1.000  O
  O8       1.0000 0.65806  0.07250  0.77759  Biso   1.000  O
  O9       1.0000 0.25981  0.85405  0.25437  Biso   1.000  O
  O10      1.0000 0.24019  0.14595  0.75437  Biso   1.000  O
  O11      1.0000 0.74019  0.35405  0.24563  Biso   1.000  O
  O12      1.0000 0.75981  0.64595  0.74563  Biso   1.000  O
  O13      1.0000 0.05860  0.69481  0.26290  Biso   1.000  O
  O14      1.0000 0.44140  0.30519  0.76290  Biso   1.000  O
  O15      1.0000 0.94140  0.19481  0.23710  Biso   1.000  O
  O16      1.0000 0.55860  0.80519  0.73710  Biso   1.000  O
  O17      1.0000 0.72568  0.78942  0.63130  Biso   1.000  O
  O18      1.0000 0.77432  0.21058  0.13130  Biso   1.000  O
  O19      1.0000 0.27432  0.28942  0.86870  Biso   1.000  O
  O20      1.0000 0.22568  0.71058  0.36870  Biso   1.000  O
  H1       1.0000 0.68250  0.75610  0.65750  Biso   1.000  H
  H2       1.0000 0.81750  0.24390  0.15750  Biso   1.000  H
  H3       1.0000 0.31750  0.25610  0.84250  Biso   1.000  H
  H4       1.0000 0.18250  0.74390  0.34250  Biso   1.000  H
  H5       1.0000 0.80190  0.76890  0.63400  Biso   1.000  H
  H6       1.0000 0.69810  0.23110  0.13400  Biso   1.000  H
  H7       1.0000 0.19810  0.26890  0.86600  Biso   1.000  H
  H8       1.0000 0.30190  0.73110  0.36600  Biso   1.000  H
  O21      1.0000 0.87058  0.98295  0.15461  Biso   1.000  O
  O22      1.0000 0.62942  0.01705  0.65461  Biso   1.000  O
  O23      1.0000 0.12942  0.48295  0.34539  Biso   1.000  O
  O24      1.0000 0.37058  0.51705  0.84539  Biso   1.000  O
  H9       1.0000 0.89020  0.99990  0.18980  Biso   1.000  H
  H10      1.0000 0.60980  0.00010  0.68980  Biso   1.000  H
  H11      1.0000 0.10980  0.49990  0.31020  Biso   1.000  H
  H12      1.0000 0.39020  0.50010  0.81020  Biso   1.000  H
  H13      1.0000 0.86140  0.04270  0.13460  Biso   1.000  H
  H14      1.0000 0.63860  0.95730  0.63460  Biso   1.000  H
  H15      1.0000 0.13860  0.54270  0.36540  Biso   1.000  H
  H16      1.0000 0.36140  0.45730  0.86540  Biso   1.000  H
  N1       1.0000 0.46484  0.66404  0.12301  Biso   1.000  N
  N2       1.0000 0.03516  0.33596  0.62301  Biso   1.000  N
  N3       1.0000 0.53516  0.16404  0.37699  Biso   1.000  N
  N4       1.0000 0.96484  0.83596  0.87699  Biso   1.000  N
  N5       1.0000 0.29606  0.53333  0.16505  Biso   1.000  N
  N6       1.0000 0.20394  0.46667  0.66505  Biso   1.000  N
  N7       1.0000 0.70394  0.03333  0.33495  Biso   1.000  N
  N8       1.0000 0.79606  0.96667  0.83495  Biso   1.000  N
  N9       1.0000 0.22657  0.43575  0.07057  Biso   1.000  N
  N10      1.0000 0.27343  0.56425  0.57057  Biso   1.000  N
  N11      1.0000 0.77343  0.93575  0.42943  Biso   1.000  N
  N12      1.0000 0.72657  0.06425  0.92943  Biso   1.000  N
  N13      1.0000 0.55020  0.35750  0.10515  Biso   1.000  N
  N14      1.0000 0.94980  0.64250  0.60515  Biso   1.000  N
  N15      1.0000 0.44980  0.85750  0.39485  Biso   1.000  N
  N16      1.0000 0.05020  0.14250  0.89485  Biso   1.000  N
  N17      1.0000 0.18010  0.73960  0.04480  Biso   1.000  N
  N18      1.0000 0.31990  0.26040  0.54480  Biso   1.000  N
  N19      1.0000 0.81990  0.23960  0.45520  Biso   1.000  N
  N20      1.0000 0.68010  0.76040  0.95520  Biso   1.000  N
  N21      1.0000 0.46803  0.57693  0.96314  Biso   1.000  N
  N22      1.0000 0.03197  0.42307  0.46314  Biso   1.000  N
  N23      1.0000 0.53197  0.07693  0.53686  Biso   1.000  N
  N24      1.0000 0.96803  0.92307  0.03686  Biso   1.000  N
  N25      1.0000 0.18183  0.97748  0.11785  Biso   1.000  N
  N26      1.0000 0.31817  0.02252  0.61785  Biso   1.000  N
  N27      1.0000 0.81817  0.47748  0.38215  Biso   1.000  N
  N28      1.0000 0.68183  0.52252  0.88215  Biso   1.000  N
  N29      1.0000 0.10110  0.82034  0.18703  Biso   1.000  N
  N30      1.0000 0.39890  0.17966  0.68703  Biso   1.000  N
  N31      1.0000 0.89890  0.32034  0.31297  Biso   1.000  N
  N32      1.0000 0.60110  0.67966  0.81297  Biso   1.000  N
  N33      1.0000 0.93434  0.72816  0.11974  Biso   1.000  N
  N34      1.0000 0.56566  0.27184  0.61974  Biso   1.000  N
  N35      1.0000 0.06566  0.22816  0.38026  Biso   1.000  N
  N36      1.0000 0.43434  0.77184  0.88026  Biso   1.000  N
  C1       1.0000 0.54150  0.73740  0.09575  Biso   1.000  C
  C2       1.0000 0.95850  0.26260  0.59575  Biso   1.000  C
  C3       1.0000 0.45850  0.23740  0.40425  Biso   1.000  C
  C4       1.0000 0.04150  0.76260  0.90425  Biso   1.000  C
  H17      1.0000 0.54850  0.73530  0.05500  Biso   1.000  H
  H18      1.0000 0.95150  0.26470  0.55500  Biso   1.000  H
  H19      1.0000 0.45150  0.23530  0.44500  Biso   1.000  H
  H20      1.0000 0.04850  0.76470  0.94500  Biso   1.000  H
  C5       1.0000 0.60980  0.81540  0.12691  Biso   1.000  C
  C6       1.0000 0.89020  0.18460  0.62691  Biso   1.000  C
  C7       1.0000 0.39020  0.31540  0.37309  Biso   1.000  C
  C8       1.0000 0.10980  0.68460  0.87309  Biso   1.000  C
  H21      1.0000 0.66130  0.86590  0.10710  Biso   1.000  H
  H22      1.0000 0.83870  0.13410  0.60710  Biso   1.000  H
  H23      1.0000 0.33870  0.36590  0.39290  Biso   1.000  H
  H24      1.0000 0.16130  0.63410  0.89290  Biso   1.000  H
  C9       1.0000 0.60210  0.81880  0.18651  Biso   1.000  C
  C10      1.0000 0.89790  0.18120  0.68651  Biso   1.000  C
  C11      1.0000 0.39790  0.31880  0.31349  Biso   1.000  C
  C12      1.0000 0.10210  0.68120  0.81349  Biso   1.000  C
  H25      1.0000 0.65020  0.86960  0.20790  Biso   1.000  H
  H26      1.0000 0.84980  0.13040  0.70790  Biso   1.000  H
  H27      1.0000 0.34980  0.36960  0.29210  Biso   1.000  H
  H28      1.0000 0.15020  0.63040  0.79210  Biso   1.000  H
  C13      1.0000 0.52190  0.74590  0.21502  Biso   1.000  C
  C14      1.0000 0.97810  0.25410  0.71502  Biso   1.000  C
  C15      1.0000 0.47810  0.24590  0.28498  Biso   1.000  C
  C16      1.0000 0.02190  0.75410  0.78498  Biso   1.000  C
  H29      1.0000 0.51370  0.74800  0.25580  Biso   1.000  H
  H30      1.0000 0.98630  0.25200  0.75580  Biso   1.000  H
  H31      1.0000 0.48630  0.24800  0.24420  Biso   1.000  H
  H32      1.0000 0.01370  0.75200  0.74420  Biso   1.000  H
  C17      1.0000 0.45380  0.66970  0.18202  Biso   1.000  C
  C18      1.0000 0.04620  0.33030  0.68202  Biso   1.000  C
  C19      1.0000 0.54620  0.16970  0.31798  Biso   1.000  C
  C20      1.0000 0.95380  0.83030  0.81798  Biso   1.000  C
  C21      1.0000 0.36270  0.58950  0.20897  Biso   1.000  C
  C22      1.0000 0.13730  0.41050  0.70897  Biso   1.000  C
  C23      1.0000 0.63730  0.08950  0.29103  Biso   1.000  C
  C24      1.0000 0.86270  0.91050  0.79103  Biso   1.000  C
  C25      1.0000 0.20340  0.45580  0.17548  Biso   1.000  C
  C26      1.0000 0.29660  0.54420  0.67548  Biso   1.000  C
  C27      1.0000 0.79660  0.95580  0.32452  Biso   1.000  C
  C28      1.0000 0.70340  0.04420  0.82452  Biso   1.000  C
  C29      1.0000 0.16190  0.40320  0.11875  Biso   1.000  C
  C30      1.0000 0.33810  0.59680  0.61875  Biso   1.000  C
  C31      1.0000 0.83810  0.90320  0.38125  Biso   1.000  C
  C32      1.0000 0.66190  0.09680  0.88125  Biso   1.000  C
  C33      1.0000 0.06340  0.32820  0.11530  Biso   1.000  C
  C34      1.0000 0.43660  0.67180  0.61530  Biso   1.000  C
  C35      1.0000 0.93660  0.82820  0.38470  Biso   1.000  C
  C36      1.0000 0.56340  0.17180  0.88470  Biso   1.000  C
  H33      1.0000 0.01960  0.30770  0.14900  Biso   1.000  H
  H34      1.0000 0.48040  0.69230  0.64900  Biso   1.000  H
  H35      1.0000 0.98040  0.80770  0.35100  Biso   1.000  H
  H36      1.0000 0.51960  0.19230  0.85100  Biso   1.000  H
  C37      1.0000 0.03090  0.28440  0.06159  Biso   1.000  C
  C38      1.0000 0.46910  0.71560  0.56159  Biso   1.000  C
  C39      1.0000 0.96910  0.78440  0.43841  Biso   1.000  C
  C40      1.0000 0.53090  0.21560  0.93841  Biso   1.000  C
  H37      1.0000 0.96440  0.23430  0.05830  Biso   1.000  H
  H38      1.0000 0.53560  0.76570  0.55830  Biso   1.000  H
  H39      1.0000 0.03560  0.73430  0.44170  Biso   1.000  H
  H40      1.0000 0.46440  0.26570  0.94170  Biso   1.000  H
  C41      1.0000 0.09820  0.31590  0.01286  Biso   1.000  C
  C42      1.0000 0.40180  0.68410  0.51286  Biso   1.000  C
  C43      1.0000 0.90180  0.81590  0.48714  Biso   1.000  C
  C44      1.0000 0.59820  0.18410  0.98714  Biso   1.000  C
  H41      1.0000 0.07900  0.28570  0.97620  Biso   1.000  H
  H42      1.0000 0.42100  0.71430  0.47620  Biso   1.000  H
  H43      1.0000 0.92100  0.78570  0.52380  Biso   1.000  H
  H44      1.0000 0.57900  0.21430  0.02380  Biso   1.000  H
  C45      1.0000 0.19430  0.39220  0.01845  Biso   1.000  C
  C46      1.0000 0.30570  0.60780  0.51845  Biso   1.000  C
  C47      1.0000 0.80570  0.89220  0.48155  Biso   1.000  C
  C48      1.0000 0.69430  0.10780  0.98155  Biso   1.000  C
  H45      1.0000 0.23820  0.41410  0.98500  Biso   1.000  H
  H46      1.0000 0.26180  0.58590  0.48500  Biso   1.000  H
  H47      1.0000 0.76180  0.91410  0.51500  Biso   1.000  H
  H48      1.0000 0.73820  0.08590  0.01500  Biso   1.000  H
  C49      1.0000 0.48100  0.42900  0.09847  Biso   1.000  C
  C50      1.0000 0.01900  0.57100  0.59847  Biso   1.000  C
  C51      1.0000 0.51900  0.92900  0.40153  Biso   1.000  C
  C52      1.0000 0.98100  0.07100  0.90153  Biso   1.000  C
  C53      1.0000 0.24200  0.66830  0.06149  Biso   1.000  C
  C54      1.0000 0.25800  0.33170  0.56149  Biso   1.000  C
  C55      1.0000 0.75800  0.16830  0.43851  Biso   1.000  C
  C56      1.0000 0.74200  0.83170  0.93851  Biso   1.000  C
  C57      1.0000 0.42570  0.56270  0.00880  Biso   1.000  C
  C58      1.0000 0.07430  0.43730  0.50880  Biso   1.000  C
  C59      1.0000 0.57430  0.06270  0.49120  Biso   1.000  C
  C60      1.0000 0.92570  0.93730  0.99120  Biso   1.000  C
  C61      1.0000 0.21980  0.05370  0.07888  Biso   1.000  C
  C62      1.0000 0.28020  0.94630  0.57888  Biso   1.000  C
  C63      1.0000 0.78020  0.55370  0.42112  Biso   1.000  C
  C64      1.0000 0.71980  0.44630  0.92112  Biso   1.000  C
  H49      1.0000 0.17320  0.06430  0.04480  Biso   1.000  H
  H50      1.0000 0.32680  0.93570  0.54480  Biso   1.000  H
  H51      1.0000 0.82680  0.56430  0.45520  Biso   1.000  H
  H52      1.0000 0.67320  0.43570  0.95520  Biso   1.000  H
  C65      1.0000 0.32660  0.11770  0.08753  Biso   1.000  C
  C66      1.0000 0.17340  0.88230  0.58753  Biso   1.000  C
  C67      1.0000 0.67340  0.61770  0.41247  Biso   1.000  C
  C68      1.0000 0.82660  0.38230  0.91247  Biso   1.000  C
  H53      1.0000 0.35050  0.17120  0.05990  Biso   1.000  H
  H54      1.0000 0.14950  0.82880  0.55990  Biso   1.000  H
  H55      1.0000 0.64950  0.67120  0.44010  Biso   1.000  H
  H56      1.0000 0.85050  0.32880  0.94010  Biso   1.000  H
  C69      1.0000 0.39670  0.10100  0.13732  Biso   1.000  C
  C70      1.0000 0.10330  0.89900  0.63732  Biso   1.000  C
  C71      1.0000 0.60330  0.60100  0.36268  Biso   1.000  C
  C72      1.0000 0.89670  0.39900  0.86268  Biso   1.000  C
  H57      1.0000 0.46990  0.14180  0.14340  Biso   1.000  H
  H58      1.0000 0.03010  0.85820  0.64340  Biso   1.000  H
  H59      1.0000 0.53010  0.64180  0.35660  Biso   1.000  H
  H60      1.0000 0.96990  0.35820  0.85660  Biso   1.000  H
  C73      1.0000 0.35770  0.02320  0.17821  Biso   1.000  C
  C74      1.0000 0.14230  0.97680  0.67821  Biso   1.000  C
  C75      1.0000 0.64230  0.52320  0.32179  Biso   1.000  C
  C76      1.0000 0.85770  0.47680  0.82179  Biso   1.000  C
  H61      1.0000 0.40330  0.01170  0.21260  Biso   1.000  H
  H62      1.0000 0.09670  0.98830  0.71260  Biso   1.000  H
  H63      1.0000 0.59670  0.51170  0.28740  Biso   1.000  H
  H64      1.0000 0.90330  0.48830  0.78740  Biso   1.000  H
  C77      1.0000 0.24970  0.96250  0.16738  Biso   1.000  C
  C78      1.0000 0.25030  0.03750  0.66738  Biso   1.000  C
  C79      1.0000 0.75030  0.46250  0.33262  Biso   1.000  C
  C80      1.0000 0.74970  0.53750  0.83262  Biso   1.000  C
  C81      1.0000 0.20300  0.87260  0.20858  Biso   1.000  C
  C82      1.0000 0.29700  0.12740  0.70858  Biso   1.000  C
  C83      1.0000 0.79700  0.37260  0.29142  Biso   1.000  C
  C84      1.0000 0.70300  0.62740  0.79142  Biso   1.000  C
  C85      1.0000 0.04210  0.73190  0.21328  Biso   1.000  C
  C86      1.0000 0.45790  0.26810  0.71328  Biso   1.000  C
  C87      1.0000 0.95790  0.23190  0.28672  Biso   1.000  C
  C88      1.0000 0.54210  0.76810  0.78672  Biso   1.000  C
  C89      1.0000 0.94920  0.67760  0.17255  Biso   1.000  C
  C90      1.0000 0.55080  0.32240  0.67255  Biso   1.000  C
  C91      1.0000 0.05080  0.17760  0.32745  Biso   1.000  C
  C92      1.0000 0.44920  0.82240  0.82745  Biso   1.000  C
  C93      1.0000 0.88860  0.57970  0.18620  Biso   1.000  C
  C94      1.0000 0.61140  0.42030  0.68620  Biso   1.000  C
  C95      1.0000 0.11140  0.07970  0.31380  Biso   1.000  C
  C96      1.0000 0.38860  0.92030  0.81380  Biso   1.000  C
  H65      1.0000 0.90020  0.54680  0.22290  Biso   1.000  H
  H66      1.0000 0.59980  0.45320  0.72290  Biso   1.000  H
  H67      1.0000 0.09980  0.04680  0.27710  Biso   1.000  H
  H68      1.0000 0.40020  0.95320  0.77710  Biso   1.000  H
  C97      1.0000 0.81010  0.52940  0.14542  Biso   1.000  C
  C98      1.0000 0.68990  0.47060  0.64542  Biso   1.000  C
  C99      1.0000 0.18990  0.02940  0.35458  Biso   1.000  C
  C100     1.0000 0.31010  0.97060  0.85458  Biso   1.000  C
  H69      1.0000 0.76710  0.46360  0.15430  Biso   1.000  H
  H70      1.0000 0.73290  0.53640  0.65430  Biso   1.000  H
  H71      1.0000 0.23290  0.96360  0.34570  Biso   1.000  H
  H72      1.0000 0.26710  0.03640  0.84570  Biso   1.000  H
  C101     1.0000 0.79760  0.58000  0.09124  Biso   1.000  C
  C102     1.0000 0.70240  0.42000  0.59124  Biso   1.000  C
  C103     1.0000 0.20240  0.08000  0.40876  Biso   1.000  C
  C104     1.0000 0.29760  0.92000  0.90876  Biso   1.000  C
  H73      1.0000 0.74720  0.54750  0.06250  Biso   1.000  H
  H74      1.0000 0.75280  0.45250  0.56250  Biso   1.000  H
  H75      1.0000 0.25280  0.04750  0.43750  Biso   1.000  H
  H76      1.0000 0.24720  0.95250  0.93750  Biso   1.000  H
  C105     1.0000 0.85970  0.67870  0.07980  Biso   1.000  C
  C106     1.0000 0.64030  0.32130  0.57980  Biso   1.000  C
  C107     1.0000 0.14030  0.17870  0.42020  Biso   1.000  C
  C108     1.0000 0.35970  0.82130  0.92020  Biso   1.000  C
  H77      1.0000 0.84980  0.71230  0.04320  Biso   1.000  H
  H78      1.0000 0.65020  0.28770  0.54320  Biso   1.000  H
  H79      1.0000 0.15020  0.21230  0.45680  Biso   1.000  H
  H80      1.0000 0.34980  0.78770  0.95680  Biso   1.000  H
