data_image0
_cell_length_a       16.097
_cell_length_b       15.619
_cell_length_c       14.524
_cell_angle_alpha    90
_cell_angle_beta     112.267
_cell_angle_gamma    90

_symmetry_space_group_name_H-M    "P 1"
_symmetry_int_tables_number       1

loop_
  _symmetry_equiv_pos_as_xyz
  'x, y, z'

loop_
  _atom_site_label
  _atom_site_occupancy
  _atom_site_fract_x
  _atom_site_fract_y
  _atom_site_fract_z
  _atom_site_thermal_displace_type
  _atom_site_B_iso_or_equiv
  _atom_site_type_symbol
  Cu1      1.0000 0.24961  0.74544  0.51241  Biso   1.000  Cu
  Cu2      1.0000 0.75039  0.24544  0.98759  Biso   1.000  Cu
  Cu3      1.0000 0.75039  0.25456  0.48759  Biso   1.000  Cu
  Cu4      1.0000 0.24961  0.75456  0.01241  Biso   1.000  Cu
  Fe1      1.0000 0.47430  0.68872  0.34904  Biso   1.000  Fe
  Fe2      1.0000 0.52570  0.18872  0.15096  Biso   1.000  Fe
  Fe3      1.0000 0.52570  0.31128  0.65096  Biso   1.000  Fe
  Fe4      1.0000 0.47430  0.81128  0.84904  Biso   1.000  Fe
  Fe5      1.0000 0.02471  0.82401  0.67028  Biso   1.000  Fe
  Fe6      1.0000 0.97529  0.32401  0.82972  Biso   1.000  Fe
  Fe7      1.0000 0.97529  0.17599  0.32972  Biso   1.000  Fe
  Fe8      1.0000 0.02471  0.67599  0.17028  Biso   1.000  Fe
  C1       1.0000 0.49810  0.87580  0.37620  Biso   1.000  C
  C2       1.0000 0.50190  0.37580  0.12380  Biso   1.000  C
  C3       1.0000 0.50190  0.12420  0.62380  Biso   1.000  C
  C4       1.0000 0.49810  0.62420  0.87620  Biso   1.000  C
  H1       1.0000 0.44420  0.88150  0.32190  Biso   1.000  H
  H2       1.0000 0.55580  0.38150  0.17810  Biso   1.000  H
  H3       1.0000 0.55580  0.11850  0.67810  Biso   1.000  H
  H4       1.0000 0.44420  0.61850  0.82190  Biso   1.000  H
  C5       1.0000 0.54160  0.94820  0.42330  Biso   1.000  C
  C6       1.0000 0.45840  0.44820  0.07670  Biso   1.000  C
  C7       1.0000 0.45840  0.05180  0.57670  Biso   1.000  C
  C8       1.0000 0.54160  0.55180  0.92330  Biso   1.000  C
  H5       1.0000 0.51760  0.00190  0.40060  Biso   1.000  H
  H6       1.0000 0.48240  0.50190  0.09940  Biso   1.000  H
  H7       1.0000 0.48240  0.99810  0.59940  Biso   1.000  H
  H8       1.0000 0.51760  0.49810  0.90060  Biso   1.000  H
  C9       1.0000 0.62375  0.94100  0.50720  Biso   1.000  C
  C10      1.0000 0.37625  0.44100  0.99280  Biso   1.000  C
  C11      1.0000 0.37625  0.05900  0.49280  Biso   1.000  C
  C12      1.0000 0.62375  0.55900  0.00720  Biso   1.000  C
  H9       1.0000 0.65530  0.98880  0.54050  Biso   1.000  H
  H10      1.0000 0.34470  0.48880  0.95950  Biso   1.000  H
  H11      1.0000 0.34470  0.01120  0.45950  Biso   1.000  H
  H12      1.0000 0.65530  0.51120  0.04050  Biso   1.000  H
  C13      1.0000 0.65180  0.86470  0.53420  Biso   1.000  C
  C14      1.0000 0.34820  0.36470  0.96580  Biso   1.000  C
  C15      1.0000 0.34820  0.13530  0.46580  Biso   1.000  C
  C16      1.0000 0.65180  0.63530  0.03420  Biso   1.000  C
  H13      1.0000 0.70550  0.85730  0.58860  Biso   1.000  H
  H14      1.0000 0.29450  0.35730  0.91140  Biso   1.000  H
  H15      1.0000 0.29450  0.14270  0.41140  Biso   1.000  H
  H16      1.0000 0.70550  0.64270  0.08860  Biso   1.000  H
  C17      1.0000 0.60450  0.79135  0.48470  Biso   1.000  C
  C18      1.0000 0.39550  0.29135  0.01530  Biso   1.000  C
  C19      1.0000 0.39550  0.20865  0.51530  Biso   1.000  C
  C20      1.0000 0.60450  0.70865  0.98470  Biso   1.000  C
  C21      1.0000 0.63630  0.70100  0.51684  Biso   1.000  C
  C22      1.0000 0.36370  0.20100  0.98316  Biso   1.000  C
  C23      1.0000 0.36370  0.29900  0.48316  Biso   1.000  C
  C24      1.0000 0.63630  0.79900  0.01684  Biso   1.000  C
  C25      1.0000 0.58220  0.55393  0.45770  Biso   1.000  C
  C26      1.0000 0.41780  0.05393  0.04230  Biso   1.000  C
  C27      1.0000 0.41780  0.44607  0.54230  Biso   1.000  C
  C28      1.0000 0.58220  0.94607  0.95770  Biso   1.000  C
  C29      1.0000 0.50480  0.51371  0.38130  Biso   1.000  C
  C30      1.0000 0.49520  0.01371  0.11870  Biso   1.000  C
  C31      1.0000 0.49520  0.48629  0.61870  Biso   1.000  C
  C32      1.0000 0.50480  0.98629  0.88130  Biso   1.000  C
  C33      1.0000 0.49050  0.42680  0.36550  Biso   1.000  C
  C34      1.0000 0.50950  0.92680  0.13450  Biso   1.000  C
  C35      1.0000 0.50950  0.57320  0.63450  Biso   1.000  C
  C36      1.0000 0.49050  0.07320  0.86550  Biso   1.000  C
  H17      1.0000 0.53420  0.38890  0.40460  Biso   1.000  H
  H18      1.0000 0.46580  0.88890  0.09540  Biso   1.000  H
  H19      1.0000 0.46580  0.61110  0.59540  Biso   1.000  H
  H20      1.0000 0.53420  0.11110  0.90460  Biso   1.000  H
  C37      1.0000 0.41440  0.39490  0.29450  Biso   1.000  C
  C38      1.0000 0.58560  0.89490  0.20550  Biso   1.000  C
  C39      1.0000 0.58560  0.60510  0.70550  Biso   1.000  C
  C40      1.0000 0.41440  0.10510  0.79450  Biso   1.000  C
  H21      1.0000 0.40650  0.33600  0.28650  Biso   1.000  H
  H22      1.0000 0.59350  0.83600  0.21350  Biso   1.000  H
  H23      1.0000 0.59350  0.66400  0.71350  Biso   1.000  H
  H24      1.0000 0.40650  0.16400  0.78650  Biso   1.000  H
  C41      1.0000 0.34940  0.44950  0.23460  Biso   1.000  C
  C42      1.0000 0.65060  0.94950  0.26540  Biso   1.000  C
  C43      1.0000 0.65060  0.55050  0.76540  Biso   1.000  C
  C44      1.0000 0.34940  0.05050  0.73460  Biso   1.000  C
  H25      1.0000 0.29710  0.42910  0.18540  Biso   1.000  H
  H26      1.0000 0.70290  0.92910  0.31460  Biso   1.000  H
  H27      1.0000 0.70290  0.57090  0.81460  Biso   1.000  H
  H28      1.0000 0.29710  0.07090  0.68540  Biso   1.000  H
  C45      1.0000 0.36550  0.53560  0.25100  Biso   1.000  C
  C46      1.0000 0.63450  0.03560  0.24900  Biso   1.000  C
  C47      1.0000 0.63450  0.46440  0.74900  Biso   1.000  C
  C48      1.0000 0.36550  0.96440  0.75100  Biso   1.000  C
  H29      1.0000 0.32240  0.57360  0.21120  Biso   1.000  H
  H30      1.0000 0.67760  0.07360  0.28880  Biso   1.000  H
  H31      1.0000 0.67760  0.42640  0.78880  Biso   1.000  H
  H32      1.0000 0.32240  0.92640  0.71120  Biso   1.000  H
  C49      1.0000 0.54596  0.67554  0.26850  Biso   1.000  C
  C50      1.0000 0.45404  0.17554  0.23150  Biso   1.000  C
  C51      1.0000 0.45404  0.32446  0.73150  Biso   1.000  C
  C52      1.0000 0.54596  0.82446  0.76850  Biso   1.000  C
  C53      1.0000 0.38910  0.70358  0.41480  Biso   1.000  C
  C54      1.0000 0.61090  0.20358  0.08520  Biso   1.000  C
  C55      1.0000 0.61090  0.29642  0.58520  Biso   1.000  C
  C56      1.0000 0.38910  0.79642  0.91480  Biso   1.000  C
  C57      1.0000 0.38630  0.73444  0.22400  Biso   1.000  C
  C58      1.0000 0.61370  0.23444  0.27600  Biso   1.000  C
  C59      1.0000 0.61370  0.26556  0.77600  Biso   1.000  C
  C60      1.0000 0.38630  0.76556  0.72400  Biso   1.000  C
  C61      1.0000 0.11412  0.79863  0.60995  Biso   1.000  C
  C62      1.0000 0.88588  0.29863  0.89005  Biso   1.000  C
  C63      1.0000 0.88588  0.20137  0.39005  Biso   1.000  C
  C64      1.0000 0.11412  0.70137  0.10995  Biso   1.000  C
  C65      1.0000 0.11169  0.78931  0.79910  Biso   1.000  C
  C66      1.0000 0.88831  0.28931  0.70090  Biso   1.000  C
  C67      1.0000 0.88831  0.21069  0.20090  Biso   1.000  C
  C68      1.0000 0.11169  0.71069  0.29910  Biso   1.000  C
  C69      1.0000 0.94760  0.84333  0.74440  Biso   1.000  C
  C70      1.0000 0.05240  0.34333  0.75560  Biso   1.000  C
  C71      1.0000 0.05240  0.15667  0.25560  Biso   1.000  C
  C72      1.0000 0.94760  0.65667  0.24440  Biso   1.000  C
  C73      1.0000 0.12900  0.98360  0.74770  Biso   1.000  C
  C74      1.0000 0.87100  0.48360  0.75230  Biso   1.000  C
  C75      1.0000 0.87100  0.01640  0.25230  Biso   1.000  C
  C76      1.0000 0.12900  0.51640  0.24770  Biso   1.000  C
  H33      1.0000 0.17310  0.94930  0.79270  Biso   1.000  H
  H34      1.0000 0.82690  0.44930  0.70730  Biso   1.000  H
  H35      1.0000 0.82690  0.05070  0.20730  Biso   1.000  H
  H36      1.0000 0.17310  0.55070  0.29270  Biso   1.000  H
  C77      1.0000 0.14440  0.06790  0.75000  Biso   1.000  C
  C78      1.0000 0.85560  0.56790  0.75000  Biso   1.000  C
  C79      1.0000 0.85560  0.93210  0.25000  Biso   1.000  C
  C80      1.0000 0.14440  0.43210  0.25000  Biso   1.000  C
  H37      1.0000 0.19740  0.09150  0.79450  Biso   1.000  H
  H38      1.0000 0.80260  0.59150  0.70550  Biso   1.000  H
  H39      1.0000 0.80260  0.90850  0.20550  Biso   1.000  H
  H40      1.0000 0.19740  0.40850  0.29450  Biso   1.000  H
  C81      1.0000 0.07670  0.11960  0.68210  Biso   1.000  C
  C82      1.0000 0.92330  0.61960  0.81790  Biso   1.000  C
  C83      1.0000 0.92330  0.88040  0.31790  Biso   1.000  C
  C84      1.0000 0.07670  0.38040  0.18210  Biso   1.000  C
  H41      1.0000 0.08500  0.17840  0.68000  Biso   1.000  H
  H42      1.0000 0.91500  0.67840  0.82000  Biso   1.000  H
  H43      1.0000 0.91500  0.82160  0.32000  Biso   1.000  H
  H44      1.0000 0.08500  0.32160  0.18000  Biso   1.000  H
  C85      1.0000 0.00010  0.08280  0.62060  Biso   1.000  C
  C86      1.0000 0.99990  0.58280  0.87940  Biso   1.000  C
  C87      1.0000 0.99990  0.91720  0.37940  Biso   1.000  C
  C88      1.0000 0.00010  0.41720  0.12060  Biso   1.000  C
  H45      1.0000 0.95290  0.11650  0.57970  Biso   1.000  H
  H46      1.0000 0.04710  0.61650  0.92030  Biso   1.000  H
  H47      1.0000 0.04710  0.88350  0.42030  Biso   1.000  H
  H48      1.0000 0.95290  0.38350  0.07970  Biso   1.000  H
  C89      1.0000 0.99230  0.99510  0.61880  Biso   1.000  C
  C90      1.0000 0.00770  0.49510  0.88120  Biso   1.000  C
  C91      1.0000 0.00770  0.00490  0.38120  Biso   1.000  C
  C92      1.0000 0.99230  0.50490  0.11880  Biso   1.000  C
  C93      1.0000 0.91350  0.94950  0.54810  Biso   1.000  C
  C94      1.0000 0.08650  0.44950  0.95190  Biso   1.000  C
  C95      1.0000 0.08650  0.05050  0.45190  Biso   1.000  C
  C96      1.0000 0.91350  0.55050  0.04810  Biso   1.000  C
  C97      1.0000 0.86370  0.80100  0.50460  Biso   1.000  C
  C98      1.0000 0.13630  0.30100  0.99540  Biso   1.000  C
  C99      1.0000 0.13630  0.19900  0.49540  Biso   1.000  C
  C100     1.0000 0.86370  0.69900  0.00460  Biso   1.000  C
  C101     1.0000 0.89630  0.72280  0.54300  Biso   1.000  C
  C102     1.0000 0.10370  0.22280  0.95700  Biso   1.000  C
  C103     1.0000 0.10370  0.27720  0.45700  Biso   1.000  C
  C104     1.0000 0.89630  0.77720  0.04300  Biso   1.000  C
  C105     1.0000 0.84120  0.65580  0.49260  Biso   1.000  C
  C106     1.0000 0.15880  0.15580  0.00740  Biso   1.000  C
  C107     1.0000 0.15880  0.34420  0.50740  Biso   1.000  C
  C108     1.0000 0.84120  0.84420  0.99260  Biso   1.000  C
  H49      1.0000 0.78520  0.66670  0.44330  Biso   1.000  H
  H50      1.0000 0.21480  0.16670  0.05670  Biso   1.000  H
  H51      1.0000 0.21480  0.33330  0.55670  Biso   1.000  H
  H52      1.0000 0.78520  0.83330  0.94330  Biso   1.000  H
  C109     1.0000 0.87100  0.57190  0.51680  Biso   1.000  C
  C110     1.0000 0.12900  0.07190  0.98320  Biso   1.000  C
  C111     1.0000 0.12900  0.42810  0.48320  Biso   1.000  C
  C112     1.0000 0.87100  0.92810  0.01680  Biso   1.000  C
  H53      1.0000 0.82300  0.53960  0.47410  Biso   1.000  H
  H54      1.0000 0.17700  0.03960  0.02590  Biso   1.000  H
  H55      1.0000 0.17700  0.46040  0.52590  Biso   1.000  H
  H56      1.0000 0.82300  0.96040  0.97410  Biso   1.000  H
  C113     1.0000 0.95380  0.55600  0.58980  Biso   1.000  C
  C114     1.0000 0.04620  0.05600  0.91020  Biso   1.000  C
  C115     1.0000 0.04620  0.44400  0.41020  Biso   1.000  C
  C116     1.0000 0.95380  0.94400  0.08980  Biso   1.000  C
  H57      1.0000 0.97310  0.49990  0.60590  Biso   1.000  H
  H58      1.0000 0.02690  0.99990  0.89410  Biso   1.000  H
  H59      1.0000 0.02690  0.50010  0.39410  Biso   1.000  H
  H60      1.0000 0.97310  0.00010  0.10590  Biso   1.000  H
  C117     1.0000 0.00910  0.62400  0.64010  Biso   1.000  C
  C118     1.0000 0.99090  0.12400  0.85990  Biso   1.000  C
  C119     1.0000 0.99090  0.37600  0.35990  Biso   1.000  C
  C120     1.0000 0.00910  0.87600  0.14010  Biso   1.000  C
  H61      1.0000 0.06190  0.60770  0.67940  Biso   1.000  H
  H62      1.0000 0.93810  0.10770  0.82060  Biso   1.000  H
  H63      1.0000 0.93810  0.39230  0.32060  Biso   1.000  H
  H64      1.0000 0.06190  0.89230  0.17940  Biso   1.000  H
  N1       1.0000 0.52948  0.79904  0.40460  Biso   1.000  N
  N2       1.0000 0.47052  0.29904  0.09540  Biso   1.000  N
  N3       1.0000 0.47052  0.20096  0.59540  Biso   1.000  N
  N4       1.0000 0.52948  0.70096  0.90460  Biso   1.000  N
  N5       1.0000 0.57150  0.64427  0.45821  Biso   1.000  N
  N6       1.0000 0.42850  0.14427  0.04179  Biso   1.000  N
  N7       1.0000 0.42850  0.35573  0.54179  Biso   1.000  N
  N8       1.0000 0.57150  0.85573  0.95821  Biso   1.000  N
  N9       1.0000 0.43983  0.56815  0.32094  Biso   1.000  N
  N10      1.0000 0.56017  0.06815  0.17906  Biso   1.000  N
  N11      1.0000 0.56017  0.43185  0.67906  Biso   1.000  N
  N12      1.0000 0.43983  0.93185  0.82094  Biso   1.000  N
  N13      1.0000 0.05430  0.94468  0.68494  Biso   1.000  N
  N14      1.0000 0.94570  0.44468  0.81506  Biso   1.000  N
  N15      1.0000 0.94570  0.05532  0.31506  Biso   1.000  N
  N16      1.0000 0.05430  0.55532  0.18494  Biso   1.000  N
  N17      1.0000 0.92584  0.86083  0.55669  Biso   1.000  N
  N18      1.0000 0.07416  0.36083  0.94331  Biso   1.000  N
  N19      1.0000 0.07416  0.13917  0.44331  Biso   1.000  N
  N20      1.0000 0.92584  0.63917  0.05669  Biso   1.000  N
  N21      1.0000 0.97993  0.70729  0.61642  Biso   1.000  N
  N22      1.0000 0.02007  0.20729  0.88358  Biso   1.000  N
  N23      1.0000 0.02007  0.29271  0.38358  Biso   1.000  N
  N24      1.0000 0.97993  0.79271  0.11642  Biso   1.000  N
  N25      1.0000 0.15843  0.77438  0.57091  Biso   1.000  N
  N26      1.0000 0.84157  0.27438  0.92909  Biso   1.000  N
  N27      1.0000 0.84157  0.22562  0.42909  Biso   1.000  N
  N28      1.0000 0.15843  0.72562  0.07091  Biso   1.000  N
  N29      1.0000 0.34050  0.71559  0.45327  Biso   1.000  N
  N30      1.0000 0.65950  0.21559  0.04673  Biso   1.000  N
  N31      1.0000 0.65950  0.28441  0.54673  Biso   1.000  N
  N32      1.0000 0.34050  0.78441  0.95327  Biso   1.000  N
  N33      1.0000 0.89900  0.85810  0.78040  Biso   1.000  N
  N34      1.0000 0.10100  0.35810  0.71960  Biso   1.000  N
  N35      1.0000 0.10100  0.14190  0.21960  Biso   1.000  N
  N36      1.0000 0.89900  0.64190  0.28040  Biso   1.000  N
  N37      1.0000 0.59030  0.66080  0.22720  Biso   1.000  N
  N38      1.0000 0.40970  0.16080  0.27280  Biso   1.000  N
  N39      1.0000 0.40970  0.33920  0.77280  Biso   1.000  N
  N40      1.0000 0.59030  0.83920  0.72720  Biso   1.000  N
  N41      1.0000 0.34110  0.75319  0.14851  Biso   1.000  N
  N42      1.0000 0.65890  0.25319  0.35149  Biso   1.000  N
  N43      1.0000 0.65890  0.24681  0.85149  Biso   1.000  N
  N44      1.0000 0.34110  0.74681  0.64851  Biso   1.000  N
  N45      1.0000 0.15761  0.77505  0.87911  Biso   1.000  N
  N46      1.0000 0.84239  0.27505  0.62089  Biso   1.000  N
  N47      1.0000 0.84239  0.22495  0.12089  Biso   1.000  N
  N48      1.0000 0.15761  0.72495  0.37911  Biso   1.000  N
  O1       1.0000 0.70397  0.68259  0.58425  Biso   1.000  O
  O2       1.0000 0.29603  0.18259  0.91575  Biso   1.000  O
  O3       1.0000 0.29603  0.31741  0.41575  Biso   1.000  O
  O4       1.0000 0.70397  0.81741  0.08425  Biso   1.000  O
  O5       1.0000 0.64615  0.51530  0.51220  Biso   1.000  O
  O6       1.0000 0.35385  0.01530  0.98780  Biso   1.000  O
  O7       1.0000 0.35385  0.48470  0.48780  Biso   1.000  O
  O8       1.0000 0.64615  0.98470  0.01220  Biso   1.000  O
  O9       1.0000 0.79376  0.81186  0.43503  Biso   1.000  O
  O10      1.0000 0.20624  0.31186  0.06497  Biso   1.000  O
  O11      1.0000 0.20624  0.18814  0.56497  Biso   1.000  O
  O12      1.0000 0.79376  0.68814  0.93503  Biso   1.000  O
  O13      1.0000 0.84768  0.98522  0.49020  Biso   1.000  O
  O14      1.0000 0.15232  0.48522  0.00980  Biso   1.000  O
  O15      1.0000 0.15232  0.01478  0.50980  Biso   1.000  O
  O16      1.0000 0.84768  0.51478  0.99020  Biso   1.000  O
  O17      1.0000 0.26384  0.88548  0.48017  Biso   1.000  O
  O18      1.0000 0.73616  0.38548  0.01983  Biso   1.000  O
  O19      1.0000 0.73616  0.11452  0.51983  Biso   1.000  O
  O20      1.0000 0.26384  0.61452  0.98017  Biso   1.000  O
  H65      1.0000 0.22880  0.91480  0.49910  Biso   1.000  H
  H66      1.0000 0.77120  0.41480  0.00090  Biso   1.000  H
  H67      1.0000 0.77120  0.08520  0.50090  Biso   1.000  H
  H68      1.0000 0.22880  0.58520  0.99910  Biso   1.000  H
  H69      1.0000 0.24950  0.89200  0.41790  Biso   1.000  H
  H70      1.0000 0.75050  0.39200  0.08210  Biso   1.000  H
  H71      1.0000 0.75050  0.10800  0.58210  Biso   1.000  H
  H72      1.0000 0.24950  0.60800  0.91790  Biso   1.000  H
  O21      1.0000 0.23970  0.58390  0.54210  Biso   1.000  O
  O22      1.0000 0.76030  0.08390  0.95790  Biso   1.000  O
  O23      1.0000 0.76030  0.41610  0.45790  Biso   1.000  O
  O24      1.0000 0.23970  0.91610  0.04210  Biso   1.000  O
  H73      1.0000 0.26150  0.57750  0.60490  Biso   1.000  H
  H74      1.0000 0.73850  0.07750  0.89510  Biso   1.000  H
  H75      1.0000 0.73850  0.42250  0.39510  Biso   1.000  H
  H76      1.0000 0.26150  0.92250  0.10490  Biso   1.000  H
  H77      1.0000 0.27530  0.55300  0.51310  Biso   1.000  H
  H78      1.0000 0.72470  0.05300  0.98690  Biso   1.000  H
  H79      1.0000 0.72470  0.44700  0.48690  Biso   1.000  H
  H80      1.0000 0.27530  0.94700  0.01310  Biso   1.000  H
  O25      1.0000 0.74422  0.95349  0.78180  Biso   1.000  O
  O26      1.0000 0.25578  0.45349  0.71820  Biso   1.000  O
  O27      1.0000 0.25578  0.04651  0.21820  Biso   1.000  O
  O28      1.0000 0.74422  0.54651  0.28180  Biso   1.000  O
  H81      1.0000 0.68880  0.94590  0.74730  Biso   1.000  H
  H82      1.0000 0.31120  0.44590  0.75270  Biso   1.000  H
  H83      1.0000 0.31120  0.05410  0.25270  Biso   1.000  H
  H84      1.0000 0.68880  0.55410  0.24730  Biso   1.000  H
  H85      1.0000 0.77520  0.92010  0.76130  Biso   1.000  H
  H86      1.0000 0.22480  0.42010  0.73870  Biso   1.000  H
  H87      1.0000 0.22480  0.07990  0.23870  Biso   1.000  H
  H88      1.0000 0.77520  0.57990  0.26130  Biso   1.000  H
  O29      1.0000 0.74345  0.10795  0.71050  Biso   1.000  O
  O30      1.0000 0.25655  0.60795  0.78950  Biso   1.000  O
  O31      1.0000 0.25655  0.89205  0.28950  Biso   1.000  O
  O32      1.0000 0.74345  0.39205  0.21050  Biso   1.000  O
  H89      1.0000 0.79650  0.08960  0.74140  Biso   1.000  H
  H90      1.0000 0.20350  0.58960  0.75860  Biso   1.000  H
  H91      1.0000 0.20350  0.91040  0.25860  Biso   1.000  H
  H92      1.0000 0.79650  0.41040  0.24140  Biso   1.000  H
  H93      1.0000 0.70870  0.08660  0.73630  Biso   1.000  H
  H94      1.0000 0.29130  0.58660  0.76370  Biso   1.000  H
  H95      1.0000 0.29130  0.91340  0.26370  Biso   1.000  H
  H96      1.0000 0.70870  0.41340  0.23630  Biso   1.000  H
