data_image0
_cell_length_a       20.3854
_cell_length_b       7.9172
_cell_length_c       17.7768
_cell_angle_alpha    90
_cell_angle_beta     90
_cell_angle_gamma    90

_symmetry_space_group_name_H-M    "P 1"
_symmetry_int_tables_number       1

loop_
  _symmetry_equiv_pos_as_xyz
  'x, y, z'

loop_
  _atom_site_label
  _atom_site_occupancy
  _atom_site_fract_x
  _atom_site_fract_y
  _atom_site_fract_z
  _atom_site_thermal_displace_type
  _atom_site_B_iso_or_equiv
  _atom_site_type_symbol
  N1       1.0000 0.01700  0.71040  0.21250  Biso   1.000  N
  N2       1.0000 0.98300  0.28960  0.21250  Biso   1.000  N
  N3       1.0000 0.48300  0.21040  0.78750  Biso   1.000  N
  N4       1.0000 0.51700  0.78960  0.78750  Biso   1.000  N
  N5       1.0000 0.98300  0.28960  0.78750  Biso   1.000  N
  N6       1.0000 0.01700  0.71040  0.78750  Biso   1.000  N
  N7       1.0000 0.51700  0.78960  0.21250  Biso   1.000  N
  N8       1.0000 0.48300  0.21040  0.21250  Biso   1.000  N
  Cu1      1.0000 0.04861  0.66969  0.10622  Biso   1.000  Cu
  Cu2      1.0000 0.95139  0.33031  0.10622  Biso   1.000  Cu
  Cu3      1.0000 0.45139  0.16969  0.89378  Biso   1.000  Cu
  Cu4      1.0000 0.54861  0.83031  0.89378  Biso   1.000  Cu
  Cu5      1.0000 0.95139  0.33031  0.89378  Biso   1.000  Cu
  Cu6      1.0000 0.04861  0.66969  0.89378  Biso   1.000  Cu
  Cu7      1.0000 0.54861  0.83031  0.10622  Biso   1.000  Cu
  Cu8      1.0000 0.45139  0.16969  0.10622  Biso   1.000  Cu
  P1       1.0000 0.19935  0.72888  0.15514  Biso   1.000  P
  P2       1.0000 0.80065  0.27112  0.15514  Biso   1.000  P
  P3       1.0000 0.30065  0.22888  0.84486  Biso   1.000  P
  P4       1.0000 0.69935  0.77112  0.84486  Biso   1.000  P
  P5       1.0000 0.80065  0.27112  0.84486  Biso   1.000  P
  P6       1.0000 0.19935  0.72888  0.84486  Biso   1.000  P
  P7       1.0000 0.69935  0.77112  0.15514  Biso   1.000  P
  P8       1.0000 0.30065  0.22888  0.15514  Biso   1.000  P
  P9       1.0000 0.42845  0.88030  0.00000  Biso   1.000  P
  P10      1.0000 0.57155  0.11970  0.00000  Biso   1.000  P
  P11      1.0000 0.07155  0.38030  0.00000  Biso   1.000  P
  P12      1.0000 0.92845  0.61970  0.00000  Biso   1.000  P
  O1       1.0000 0.13714  0.63080  0.13903  Biso   1.000  O
  O2       1.0000 0.86286  0.36920  0.13903  Biso   1.000  O
  O3       1.0000 0.36286  0.13080  0.86097  Biso   1.000  O
  O4       1.0000 0.63714  0.86920  0.86097  Biso   1.000  O
  O5       1.0000 0.86286  0.36920  0.86097  Biso   1.000  O
  O6       1.0000 0.13714  0.63080  0.86097  Biso   1.000  O
  O7       1.0000 0.63714  0.86920  0.13903  Biso   1.000  O
  O8       1.0000 0.36286  0.13080  0.13903  Biso   1.000  O
  O9       1.0000 0.17710  0.91160  0.17835  Biso   1.000  O
  O10      1.0000 0.82290  0.08840  0.17835  Biso   1.000  O
  O11      1.0000 0.32290  0.41160  0.82165  Biso   1.000  O
  O12      1.0000 0.67710  0.58840  0.82165  Biso   1.000  O
  O13      1.0000 0.82290  0.08840  0.82165  Biso   1.000  O
  O14      1.0000 0.17710  0.91160  0.82165  Biso   1.000  O
  O15      1.0000 0.67710  0.58840  0.17835  Biso   1.000  O
  O16      1.0000 0.32290  0.41160  0.17835  Biso   1.000  O
  H1       1.0000 0.21030  0.97090  0.18760  Biso   1.000  H
  H2       1.0000 0.78970  0.02910  0.18760  Biso   1.000  H
  H3       1.0000 0.28970  0.47090  0.81240  Biso   1.000  H
  H4       1.0000 0.71030  0.52910  0.81240  Biso   1.000  H
  H5       1.0000 0.78970  0.02910  0.81240  Biso   1.000  H
  H6       1.0000 0.21030  0.97090  0.81240  Biso   1.000  H
  H7       1.0000 0.71030  0.52910  0.18760  Biso   1.000  H
  H8       1.0000 0.28970  0.47090  0.18760  Biso   1.000  H
  O17      1.0000 0.24365  0.65050  0.21340  Biso   1.000  O
  O18      1.0000 0.75635  0.34950  0.21340  Biso   1.000  O
  O19      1.0000 0.25635  0.15050  0.78660  Biso   1.000  O
  O20      1.0000 0.74365  0.84950  0.78660  Biso   1.000  O
  O21      1.0000 0.75635  0.34950  0.78660  Biso   1.000  O
  O22      1.0000 0.24365  0.65050  0.78660  Biso   1.000  O
  O23      1.0000 0.74365  0.84950  0.21340  Biso   1.000  O
  O24      1.0000 0.25635  0.15050  0.21340  Biso   1.000  O
  O25      1.0000 0.45871  0.81700  0.92770  Biso   1.000  O
  O26      1.0000 0.54129  0.18300  0.92770  Biso   1.000  O
  O27      1.0000 0.04129  0.31700  0.07230  Biso   1.000  O
  O28      1.0000 0.95871  0.68300  0.07230  Biso   1.000  O
  O29      1.0000 0.54129  0.18300  0.07230  Biso   1.000  O
  O30      1.0000 0.45871  0.81700  0.07230  Biso   1.000  O
  O31      1.0000 0.95871  0.68300  0.92770  Biso   1.000  O
  O32      1.0000 0.04129  0.31700  0.92770  Biso   1.000  O
  O33      1.0000 0.42993  0.07560  0.00000  Biso   1.000  O
  O34      1.0000 0.57007  0.92440  0.00000  Biso   1.000  O
  O35      1.0000 0.07007  0.57560  0.00000  Biso   1.000  O
  O36      1.0000 0.92993  0.42440  0.00000  Biso   1.000  O
  O37      1.0000 0.07016  0.93970  0.07600  Biso   1.000  O
  O38      1.0000 0.92984  0.06030  0.07600  Biso   1.000  O
  O39      1.0000 0.42984  0.43970  0.92400  Biso   1.000  O
  O40      1.0000 0.57016  0.56030  0.92400  Biso   1.000  O
  O41      1.0000 0.92984  0.06030  0.92400  Biso   1.000  O
  O42      1.0000 0.07016  0.93970  0.92400  Biso   1.000  O
  O43      1.0000 0.57016  0.56030  0.07600  Biso   1.000  O
  O44      1.0000 0.42984  0.43970  0.07600  Biso   1.000  O
  H9       1.0000 0.03640  0.00090  0.08260  Biso   1.000  H
  H10      1.0000 0.96360  0.99910  0.08260  Biso   1.000  H
  H11      1.0000 0.46360  0.50090  0.91740  Biso   1.000  H
  H12      1.0000 0.53640  0.49910  0.91740  Biso   1.000  H
  H13      1.0000 0.96360  0.99910  0.91740  Biso   1.000  H
  H14      1.0000 0.03640  0.00090  0.91740  Biso   1.000  H
  H15      1.0000 0.53640  0.49910  0.08260  Biso   1.000  H
  H16      1.0000 0.46360  0.50090  0.08260  Biso   1.000  H
  H17      1.0000 0.10100  0.97000  0.10200  Biso   1.000  H
  H18      1.0000 0.89900  0.03000  0.10200  Biso   1.000  H
  H19      1.0000 0.39900  0.47000  0.89800  Biso   1.000  H
  H20      1.0000 0.60100  0.53000  0.89800  Biso   1.000  H
  H21      1.0000 0.89900  0.03000  0.89800  Biso   1.000  H
  H22      1.0000 0.10100  0.97000  0.89800  Biso   1.000  H
  H23      1.0000 0.60100  0.53000  0.10200  Biso   1.000  H
  H24      1.0000 0.39900  0.47000  0.10200  Biso   1.000  H
  C1       1.0000 0.24410  0.75160  0.06810  Biso   1.000  C
  C2       1.0000 0.75590  0.24840  0.06810  Biso   1.000  C
  C3       1.0000 0.25590  0.25160  0.93190  Biso   1.000  C
  C4       1.0000 0.74410  0.74840  0.93190  Biso   1.000  C
  C5       1.0000 0.75590  0.24840  0.93190  Biso   1.000  C
  C6       1.0000 0.24410  0.75160  0.93190  Biso   1.000  C
  C7       1.0000 0.74410  0.74840  0.06810  Biso   1.000  C
  C8       1.0000 0.25590  0.25160  0.06810  Biso   1.000  C
  C9       1.0000 0.21150  0.73200  0.00000  Biso   1.000  C
  C10      1.0000 0.78850  0.26800  0.00000  Biso   1.000  C
  C11      1.0000 0.28850  0.23200  0.00000  Biso   1.000  C
  C12      1.0000 0.71150  0.76800  0.00000  Biso   1.000  C
  C13      1.0000 0.31100  0.79170  0.06770  Biso   1.000  C
  C14      1.0000 0.68900  0.20830  0.06770  Biso   1.000  C
  C15      1.0000 0.18900  0.29170  0.93230  Biso   1.000  C
  C16      1.0000 0.81100  0.70830  0.93230  Biso   1.000  C
  C17      1.0000 0.68900  0.20830  0.93230  Biso   1.000  C
  C18      1.0000 0.31100  0.79170  0.93230  Biso   1.000  C
  C19      1.0000 0.81100  0.70830  0.06770  Biso   1.000  C
  C20      1.0000 0.18900  0.29170  0.06770  Biso   1.000  C
  H25      1.0000 0.33420  0.80390  0.11440  Biso   1.000  H
  H26      1.0000 0.66580  0.19610  0.11440  Biso   1.000  H
  H27      1.0000 0.16580  0.30390  0.88560  Biso   1.000  H
  H28      1.0000 0.83420  0.69610  0.88560  Biso   1.000  H
  H29      1.0000 0.66580  0.19610  0.88560  Biso   1.000  H
  H30      1.0000 0.33420  0.80390  0.88560  Biso   1.000  H
  H31      1.0000 0.83420  0.69610  0.11440  Biso   1.000  H
  H32      1.0000 0.16580  0.30390  0.11440  Biso   1.000  H
  C21      1.0000 0.34390  0.81330  0.00000  Biso   1.000  C
  C22      1.0000 0.65610  0.18670  0.00000  Biso   1.000  C
  C23      1.0000 0.15610  0.31330  0.00000  Biso   1.000  C
  C24      1.0000 0.84390  0.68670  0.00000  Biso   1.000  C
  C25      1.0000 0.03910  0.76500  0.34540  Biso   1.000  C
  C26      1.0000 0.96090  0.23500  0.34540  Biso   1.000  C
  C27      1.0000 0.46090  0.26500  0.65460  Biso   1.000  C
  C28      1.0000 0.53910  0.73500  0.65460  Biso   1.000  C
  C29      1.0000 0.96090  0.23500  0.65460  Biso   1.000  C
  C30      1.0000 0.03910  0.76500  0.65460  Biso   1.000  C
  C31      1.0000 0.53910  0.73500  0.34540  Biso   1.000  C
  C32      1.0000 0.46090  0.26500  0.34540  Biso   1.000  C
  H33      1.0000 0.06670  0.73830  0.38750  Biso   1.000  H
  H34      1.0000 0.93330  0.26170  0.38750  Biso   1.000  H
  H35      1.0000 0.43330  0.23830  0.61250  Biso   1.000  H
  H36      1.0000 0.56670  0.76170  0.61250  Biso   1.000  H
  H37      1.0000 0.93330  0.26170  0.61250  Biso   1.000  H
  H38      1.0000 0.06670  0.73830  0.61250  Biso   1.000  H
  H39      1.0000 0.56670  0.76170  0.38750  Biso   1.000  H
  H40      1.0000 0.43330  0.23830  0.38750  Biso   1.000  H
  C33      1.0000 0.97970  0.84340  0.35590  Biso   1.000  C
  C34      1.0000 0.02030  0.15660  0.35590  Biso   1.000  C
  C35      1.0000 0.52030  0.34340  0.64410  Biso   1.000  C
  C36      1.0000 0.47970  0.65660  0.64410  Biso   1.000  C
  C37      1.0000 0.02030  0.15660  0.64410  Biso   1.000  C
  C38      1.0000 0.97970  0.84340  0.64410  Biso   1.000  C
  C39      1.0000 0.47970  0.65660  0.35590  Biso   1.000  C
  C40      1.0000 0.52030  0.34340  0.35590  Biso   1.000  C
  C41      1.0000 0.93980  0.86000  0.29330  Biso   1.000  C
  C42      1.0000 0.06020  0.14000  0.29330  Biso   1.000  C
  C43      1.0000 0.56020  0.36000  0.70670  Biso   1.000  C
  C44      1.0000 0.43980  0.64000  0.70670  Biso   1.000  C
  C45      1.0000 0.06020  0.14000  0.70670  Biso   1.000  C
  C46      1.0000 0.93980  0.86000  0.70670  Biso   1.000  C
  C47      1.0000 0.43980  0.64000  0.29330  Biso   1.000  C
  C48      1.0000 0.56020  0.36000  0.29330  Biso   1.000  C
  H41      1.0000 0.89990  0.92410  0.29620  Biso   1.000  H
  H42      1.0000 0.10010  0.07590  0.29620  Biso   1.000  H
  H43      1.0000 0.60010  0.42410  0.70380  Biso   1.000  H
  H44      1.0000 0.39990  0.57590  0.70380  Biso   1.000  H
  H45      1.0000 0.10010  0.07590  0.70380  Biso   1.000  H
  H46      1.0000 0.89990  0.92410  0.70380  Biso   1.000  H
  H47      1.0000 0.39990  0.57590  0.29620  Biso   1.000  H
  H48      1.0000 0.60010  0.42410  0.29620  Biso   1.000  H
  C49      1.0000 0.95430  0.91400  0.42980  Biso   1.000  C
  C50      1.0000 0.04570  0.08600  0.42980  Biso   1.000  C
  C51      1.0000 0.54570  0.41400  0.57020  Biso   1.000  C
  C52      1.0000 0.45430  0.58600  0.57020  Biso   1.000  C
  C53      1.0000 0.04570  0.08600  0.57020  Biso   1.000  C
  C54      1.0000 0.95430  0.91400  0.57020  Biso   1.000  C
  C55      1.0000 0.45430  0.58600  0.42980  Biso   1.000  C
  C56      1.0000 0.54570  0.41400  0.42980  Biso   1.000  C
  H49      1.0000 0.90800  0.89210  0.43270  Biso   1.000  H
  H50      1.0000 0.09200  0.10790  0.43270  Biso   1.000  H
  H51      1.0000 0.59200  0.39210  0.56730  Biso   1.000  H
  H52      1.0000 0.40800  0.60790  0.56730  Biso   1.000  H
  H53      1.0000 0.09200  0.10790  0.56730  Biso   1.000  H
  H54      1.0000 0.90800  0.89210  0.56730  Biso   1.000  H
  H55      1.0000 0.40800  0.60790  0.43270  Biso   1.000  H
  H56      1.0000 0.59200  0.39210  0.43270  Biso   1.000  H
  H57      1.0000 0.96030  0.03390  0.43030  Biso   1.000  H
  H58      1.0000 0.03970  0.96610  0.43030  Biso   1.000  H
  H59      1.0000 0.53970  0.53390  0.56970  Biso   1.000  H
  H60      1.0000 0.46030  0.46610  0.56970  Biso   1.000  H
  H61      1.0000 0.03970  0.96610  0.56970  Biso   1.000  H
  H62      1.0000 0.96030  0.03390  0.56970  Biso   1.000  H
  H63      1.0000 0.46030  0.46610  0.43030  Biso   1.000  H
  H64      1.0000 0.53970  0.53390  0.43030  Biso   1.000  H
  C57      1.0000 0.05730  0.71700  0.27740  Biso   1.000  C
  C58      1.0000 0.94270  0.28300  0.27740  Biso   1.000  C
  C59      1.0000 0.44270  0.21700  0.72260  Biso   1.000  C
  C60      1.0000 0.55730  0.78300  0.72260  Biso   1.000  C
  C61      1.0000 0.94270  0.28300  0.72260  Biso   1.000  C
  C62      1.0000 0.05730  0.71700  0.72260  Biso   1.000  C
  C63      1.0000 0.55730  0.78300  0.27740  Biso   1.000  C
  C64      1.0000 0.44270  0.21700  0.27740  Biso   1.000  C
  H65      1.0000 0.10300  0.69550  0.26900  Biso   1.000  H
  H66      1.0000 0.89700  0.30450  0.26900  Biso   1.000  H
  H67      1.0000 0.39700  0.19550  0.73100  Biso   1.000  H
  H68      1.0000 0.60300  0.80450  0.73100  Biso   1.000  H
  H69      1.0000 0.89700  0.30450  0.73100  Biso   1.000  H
  H70      1.0000 0.10300  0.69550  0.73100  Biso   1.000  H
  H71      1.0000 0.60300  0.80450  0.26900  Biso   1.000  H
  H72      1.0000 0.39700  0.19550  0.26900  Biso   1.000  H
  C65      1.0000 0.96500  0.68300  0.50000  Biso   1.000  C
  C66      1.0000 0.03500  0.31700  0.50000  Biso   1.000  C
  C67      1.0000 0.53500  0.18300  0.50000  Biso   1.000  C
  C68      1.0000 0.46500  0.81700  0.50000  Biso   1.000  C
  C69      1.0000 0.01970  0.63200  0.34230  Biso   1.000  C
  C70      1.0000 0.98030  0.36800  0.34230  Biso   1.000  C
  C71      1.0000 0.48030  0.13200  0.65770  Biso   1.000  C
  C72      1.0000 0.51970  0.86800  0.65770  Biso   1.000  C
  C73      1.0000 0.98030  0.36800  0.65770  Biso   1.000  C
  C74      1.0000 0.01970  0.63200  0.65770  Biso   1.000  C
  C75      1.0000 0.51970  0.86800  0.34230  Biso   1.000  C
  C76      1.0000 0.48030  0.13200  0.34230  Biso   1.000  C
  H73      1.0000 0.04320  0.57890  0.38270  Biso   1.000  H
  H74      1.0000 0.95680  0.42110  0.38270  Biso   1.000  H
  H75      1.0000 0.45680  0.07890  0.61730  Biso   1.000  H
  H76      1.0000 0.54320  0.92110  0.61730  Biso   1.000  H
  H77      1.0000 0.95680  0.42110  0.61730  Biso   1.000  H
  H78      1.0000 0.04320  0.57890  0.61730  Biso   1.000  H
  H79      1.0000 0.54320  0.92110  0.38270  Biso   1.000  H
  H80      1.0000 0.45680  0.07890  0.38270  Biso   1.000  H
  C77      1.0000 0.95660  0.69700  0.35670  Biso   1.000  C
  C78      1.0000 0.04340  0.30300  0.35670  Biso   1.000  C
  C79      1.0000 0.54340  0.19700  0.64330  Biso   1.000  C
  C80      1.0000 0.45660  0.80300  0.64330  Biso   1.000  C
  C81      1.0000 0.04340  0.30300  0.64330  Biso   1.000  C
  C82      1.0000 0.95660  0.69700  0.64330  Biso   1.000  C
  C83      1.0000 0.45660  0.80300  0.35670  Biso   1.000  C
  C84      1.0000 0.54340  0.19700  0.35670  Biso   1.000  C
  C85      1.0000 0.92290  0.75500  0.29430  Biso   1.000  C
  C86      1.0000 0.07710  0.24500  0.29430  Biso   1.000  C
  C87      1.0000 0.57710  0.25500  0.70570  Biso   1.000  C
  C88      1.0000 0.42290  0.74500  0.70570  Biso   1.000  C
  C89      1.0000 0.07710  0.24500  0.70570  Biso   1.000  C
  C90      1.0000 0.92290  0.75500  0.70570  Biso   1.000  C
  C91      1.0000 0.42290  0.74500  0.29430  Biso   1.000  C
  C92      1.0000 0.57710  0.25500  0.29430  Biso   1.000  C
  H81      1.0000 0.87650  0.77610  0.29670  Biso   1.000  H
  H82      1.0000 0.12350  0.22390  0.29670  Biso   1.000  H
  H83      1.0000 0.62350  0.27610  0.70330  Biso   1.000  H
  H84      1.0000 0.37650  0.72390  0.70330  Biso   1.000  H
  H85      1.0000 0.12350  0.22390  0.70330  Biso   1.000  H
  H86      1.0000 0.87650  0.77610  0.70330  Biso   1.000  H
  H87      1.0000 0.37650  0.72390  0.29670  Biso   1.000  H
  H88      1.0000 0.62350  0.27610  0.29670  Biso   1.000  H
  C93      1.0000 0.92260  0.72100  0.43130  Biso   1.000  C
  C94      1.0000 0.07740  0.27900  0.43130  Biso   1.000  C
  C95      1.0000 0.57740  0.22100  0.56870  Biso   1.000  C
  C96      1.0000 0.42260  0.77900  0.56870  Biso   1.000  C
  C97      1.0000 0.07740  0.27900  0.56870  Biso   1.000  C
  C98      1.0000 0.92260  0.72100  0.56870  Biso   1.000  C
  C99      1.0000 0.42260  0.77900  0.43130  Biso   1.000  C
  C100     1.0000 0.57740  0.22100  0.43130  Biso   1.000  C
  H89      1.0000 0.87600  0.73820  0.43460  Biso   1.000  H
  H90      1.0000 0.12400  0.26180  0.43460  Biso   1.000  H
  H91      1.0000 0.62400  0.23820  0.56540  Biso   1.000  H
  H92      1.0000 0.37600  0.76180  0.56540  Biso   1.000  H
  H93      1.0000 0.12400  0.26180  0.56540  Biso   1.000  H
  H94      1.0000 0.87600  0.73820  0.56540  Biso   1.000  H
  H95      1.0000 0.37600  0.76180  0.43460  Biso   1.000  H
  H96      1.0000 0.62400  0.23820  0.43460  Biso   1.000  H
  C101     1.0000 0.04770  0.64100  0.26940  Biso   1.000  C
  C102     1.0000 0.95230  0.35900  0.26940  Biso   1.000  C
  C103     1.0000 0.45230  0.14100  0.73060  Biso   1.000  C
  C104     1.0000 0.54770  0.85900  0.73060  Biso   1.000  C
  C105     1.0000 0.95230  0.35900  0.73060  Biso   1.000  C
  C106     1.0000 0.04770  0.64100  0.73060  Biso   1.000  C
  C107     1.0000 0.54770  0.85900  0.26940  Biso   1.000  C
  C108     1.0000 0.45230  0.14100  0.26940  Biso   1.000  C
  H97      1.0000 0.09120  0.59730  0.26210  Biso   1.000  H
  H98      1.0000 0.90880  0.40270  0.26210  Biso   1.000  H
  H99      1.0000 0.40880  0.09730  0.73790  Biso   1.000  H
  H100     1.0000 0.59120  0.90270  0.73790  Biso   1.000  H
  H101     1.0000 0.90880  0.40270  0.73790  Biso   1.000  H
  H102     1.0000 0.09120  0.59730  0.73790  Biso   1.000  H
  H103     1.0000 0.59120  0.90270  0.26210  Biso   1.000  H
  H104     1.0000 0.40880  0.09730  0.26210  Biso   1.000  H
  C109     1.0000 0.98790  0.83900  0.50000  Biso   1.000  C
  C110     1.0000 0.01210  0.16100  0.50000  Biso   1.000  C
  C111     1.0000 0.51210  0.33900  0.50000  Biso   1.000  C
  C112     1.0000 0.48790  0.66100  0.50000  Biso   1.000  C
  C113     1.0000 0.95740  0.77950  0.22400  Biso   1.000  C
  C114     1.0000 0.04260  0.22050  0.22400  Biso   1.000  C
  C115     1.0000 0.54260  0.27950  0.77600  Biso   1.000  C
  C116     1.0000 0.45740  0.72050  0.77600  Biso   1.000  C
  C117     1.0000 0.04260  0.22050  0.77600  Biso   1.000  C
  C118     1.0000 0.95740  0.77950  0.77600  Biso   1.000  C
  C119     1.0000 0.45740  0.72050  0.22400  Biso   1.000  C
  C120     1.0000 0.54260  0.27950  0.22400  Biso   1.000  C
  C121     1.0000 0.20100  0.86200  0.50000  Biso   1.000  C
  C122     1.0000 0.79900  0.13800  0.50000  Biso   1.000  C
  C123     1.0000 0.29900  0.36200  0.50000  Biso   1.000  C
  C124     1.0000 0.70100  0.63800  0.50000  Biso   1.000  C
  C125     1.0000 0.19800  0.93100  0.43000  Biso   1.000  C
  C126     1.0000 0.80200  0.06900  0.43000  Biso   1.000  C
  C127     1.0000 0.30200  0.43100  0.57000  Biso   1.000  C
  C128     1.0000 0.69800  0.56900  0.57000  Biso   1.000  C
  C129     1.0000 0.80200  0.06900  0.57000  Biso   1.000  C
  C130     1.0000 0.19800  0.93100  0.57000  Biso   1.000  C
  C131     1.0000 0.69800  0.56900  0.43000  Biso   1.000  C
  C132     1.0000 0.30200  0.43100  0.43000  Biso   1.000  C
  H105     1.0000 0.22420  0.03490  0.42920  Biso   1.000  H
  H106     1.0000 0.77580  0.96510  0.42920  Biso   1.000  H
  H107     1.0000 0.27580  0.53490  0.57080  Biso   1.000  H
  H108     1.0000 0.72420  0.46510  0.57080  Biso   1.000  H
  H109     1.0000 0.77580  0.96510  0.57080  Biso   1.000  H
  H110     1.0000 0.22420  0.03490  0.57080  Biso   1.000  H
  H111     1.0000 0.72420  0.46510  0.42920  Biso   1.000  H
  H112     1.0000 0.27580  0.53490  0.42920  Biso   1.000  H
  H113     1.0000 0.15240  0.95740  0.41800  Biso   1.000  H
  H114     1.0000 0.84760  0.04260  0.41800  Biso   1.000  H
  H115     1.0000 0.34760  0.45740  0.58200  Biso   1.000  H
  H116     1.0000 0.65240  0.54260  0.58200  Biso   1.000  H
  H117     1.0000 0.84760  0.04260  0.58200  Biso   1.000  H
  H118     1.0000 0.15240  0.95740  0.58200  Biso   1.000  H
  H119     1.0000 0.65240  0.54260  0.41800  Biso   1.000  H
  H120     1.0000 0.34760  0.45740  0.41800  Biso   1.000  H
  H121     1.0000 0.21550  0.85070  0.39350  Biso   1.000  H
  H122     1.0000 0.78450  0.14930  0.39350  Biso   1.000  H
  H123     1.0000 0.28450  0.35070  0.60650  Biso   1.000  H
  H124     1.0000 0.71550  0.64930  0.60650  Biso   1.000  H
  H125     1.0000 0.78450  0.14930  0.60650  Biso   1.000  H
  H126     1.0000 0.21550  0.85070  0.60650  Biso   1.000  H
  H127     1.0000 0.71550  0.64930  0.39350  Biso   1.000  H
  H128     1.0000 0.28450  0.35070  0.39350  Biso   1.000  H
  O45      1.0000 0.16390  0.71500  0.50000  Biso   1.000  O
  O46      1.0000 0.83610  0.28500  0.50000  Biso   1.000  O
  O47      1.0000 0.33610  0.21500  0.50000  Biso   1.000  O
  O48      1.0000 0.66390  0.78500  0.50000  Biso   1.000  O
  H129     1.0000 0.93200  0.79900  0.18200  Biso   1.000  H
  H130     1.0000 0.06800  0.20100  0.18200  Biso   1.000  H
  H131     1.0000 0.56800  0.29900  0.81800  Biso   1.000  H
  H132     1.0000 0.43200  0.70100  0.81800  Biso   1.000  H
  H133     1.0000 0.06800  0.20100  0.81800  Biso   1.000  H
  H134     1.0000 0.93200  0.79900  0.81800  Biso   1.000  H
  H135     1.0000 0.43200  0.70100  0.18200  Biso   1.000  H
  H136     1.0000 0.56800  0.29900  0.18200  Biso   1.000  H
  H137     1.0000 0.17400  0.69100  0.00000  Biso   1.000  H
  H138     1.0000 0.82600  0.30900  0.00000  Biso   1.000  H
  H139     1.0000 0.32600  0.19100  0.00000  Biso   1.000  H
  H140     1.0000 0.67400  0.80900  0.00000  Biso   1.000  H
  O49      1.0000 0.22010  0.58300  0.36030  Biso   1.000  O
  O50      1.0000 0.77990  0.41700  0.36030  Biso   1.000  O
  O51      1.0000 0.27990  0.08300  0.63970  Biso   1.000  O
  O52      1.0000 0.72010  0.91700  0.63970  Biso   1.000  O
  O53      1.0000 0.77990  0.41700  0.63970  Biso   1.000  O
  O54      1.0000 0.22010  0.58300  0.63970  Biso   1.000  O
  O55      1.0000 0.72010  0.91700  0.36030  Biso   1.000  O
  O56      1.0000 0.27990  0.08300  0.36030  Biso   1.000  O
  O57      1.0000 0.23600  0.71600  0.36590  Biso   1.000  O
  O58      1.0000 0.76400  0.28400  0.36590  Biso   1.000  O
  O59      1.0000 0.26400  0.21600  0.63410  Biso   1.000  O
  O60      1.0000 0.73600  0.78400  0.63410  Biso   1.000  O
  O61      1.0000 0.76400  0.28400  0.63410  Biso   1.000  O
  O62      1.0000 0.23600  0.71600  0.63410  Biso   1.000  O
  O63      1.0000 0.73600  0.78400  0.36590  Biso   1.000  O
  O64      1.0000 0.26400  0.21600  0.36590  Biso   1.000  O
  H141     1.0000 0.23080  0.73050  0.31890  Biso   1.000  H
  H142     1.0000 0.76920  0.26950  0.31890  Biso   1.000  H
  H143     1.0000 0.26920  0.23050  0.68110  Biso   1.000  H
  H144     1.0000 0.73080  0.76950  0.68110  Biso   1.000  H
  H145     1.0000 0.76920  0.26950  0.68110  Biso   1.000  H
  H146     1.0000 0.23080  0.73050  0.68110  Biso   1.000  H
  H147     1.0000 0.73080  0.76950  0.31890  Biso   1.000  H
  H148     1.0000 0.26920  0.23050  0.31890  Biso   1.000  H
  H149     1.0000 0.27090  0.64850  0.36900  Biso   1.000  H
  H150     1.0000 0.72910  0.35150  0.36900  Biso   1.000  H
  H151     1.0000 0.22910  0.14850  0.63100  Biso   1.000  H
  H152     1.0000 0.77090  0.85150  0.63100  Biso   1.000  H
  H153     1.0000 0.72910  0.35150  0.63100  Biso   1.000  H
  H154     1.0000 0.27090  0.64850  0.63100  Biso   1.000  H
  H155     1.0000 0.77090  0.85150  0.36900  Biso   1.000  H
  H156     1.0000 0.22910  0.14850  0.36900  Biso   1.000  H
  H157     1.0000 0.91410  0.60900  0.42900  Biso   1.000  H
  H158     1.0000 0.08590  0.39100  0.42900  Biso   1.000  H
  H159     1.0000 0.58590  0.10900  0.57100  Biso   1.000  H
  H160     1.0000 0.41410  0.89100  0.57100  Biso   1.000  H
  H161     1.0000 0.08590  0.39100  0.57100  Biso   1.000  H
  H162     1.0000 0.91410  0.60900  0.57100  Biso   1.000  H
  H163     1.0000 0.41410  0.89100  0.42900  Biso   1.000  H
  H164     1.0000 0.58590  0.10900  0.42900  Biso   1.000  H
