data_image0
_cell_length_a       9.0522
_cell_length_b       18.0988
_cell_length_c       19.5538
_cell_angle_alpha    90
_cell_angle_beta     95.286
_cell_angle_gamma    90

_symmetry_space_group_name_H-M    "P 1"
_symmetry_int_tables_number       1

loop_
  _symmetry_equiv_pos_as_xyz
  'x, y, z'

loop_
  _atom_site_label
  _atom_site_occupancy
  _atom_site_fract_x
  _atom_site_fract_y
  _atom_site_fract_z
  _atom_site_thermal_displace_type
  _atom_site_B_iso_or_equiv
  _atom_site_type_symbol
  Cu1      1.0000 0.46713  0.24787  0.25379  Biso   1.000  Cu
  Cu2      1.0000 0.53287  0.74787  0.24621  Biso   1.000  Cu
  Cu3      1.0000 0.53287  0.75213  0.74621  Biso   1.000  Cu
  Cu4      1.0000 0.46713  0.25213  0.75379  Biso   1.000  Cu
  N1       1.0000 0.66710  0.27009  0.21971  Biso   1.000  N
  N2       1.0000 0.33290  0.77009  0.28029  Biso   1.000  N
  N3       1.0000 0.33290  0.72991  0.78029  Biso   1.000  N
  N4       1.0000 0.66710  0.22991  0.71971  Biso   1.000  N
  C1       1.0000 0.74560  0.21343  0.19768  Biso   1.000  C
  C2       1.0000 0.25440  0.71343  0.30232  Biso   1.000  C
  C3       1.0000 0.25440  0.78657  0.80232  Biso   1.000  C
  C4       1.0000 0.74560  0.28657  0.69768  Biso   1.000  C
  H1       1.0000 0.70960  0.16560  0.20120  Biso   1.000  H
  H2       1.0000 0.29040  0.66560  0.29880  Biso   1.000  H
  H3       1.0000 0.29040  0.83440  0.79880  Biso   1.000  H
  H4       1.0000 0.70960  0.33440  0.70120  Biso   1.000  H
  C5       1.0000 0.87890  0.22459  0.16984  Biso   1.000  C
  C6       1.0000 0.12110  0.72459  0.33016  Biso   1.000  C
  C7       1.0000 0.12110  0.77541  0.83016  Biso   1.000  C
  C8       1.0000 0.87890  0.27541  0.66984  Biso   1.000  C
  H5       1.0000 0.93240  0.18450  0.15550  Biso   1.000  H
  H6       1.0000 0.06760  0.68450  0.34450  Biso   1.000  H
  H7       1.0000 0.06760  0.81550  0.84450  Biso   1.000  H
  H8       1.0000 0.93240  0.31550  0.65550  Biso   1.000  H
  C9       1.0000 0.93180  0.29541  0.16358  Biso   1.000  C
  C10      1.0000 0.06820  0.79541  0.33642  Biso   1.000  C
  C11      1.0000 0.06820  0.70459  0.83642  Biso   1.000  C
  C12      1.0000 0.93180  0.20459  0.66358  Biso   1.000  C
  H9       1.0000 0.02090  0.30360  0.14460  Biso   1.000  H
  H10      1.0000 0.97910  0.80360  0.35540  Biso   1.000  H
  H11      1.0000 0.97910  0.69640  0.85540  Biso   1.000  H
  H12      1.0000 0.02090  0.19640  0.64460  Biso   1.000  H
  C13      1.0000 0.85040  0.35470  0.18596  Biso   1.000  C
  C14      1.0000 0.14960  0.85470  0.31404  Biso   1.000  C
  C15      1.0000 0.14960  0.64530  0.81404  Biso   1.000  C
  C16      1.0000 0.85040  0.14530  0.68596  Biso   1.000  C
  C17      1.0000 0.71840  0.33951  0.21454  Biso   1.000  C
  C18      1.0000 0.28160  0.83951  0.28546  Biso   1.000  C
  C19      1.0000 0.28160  0.66049  0.78546  Biso   1.000  C
  C20      1.0000 0.71840  0.16049  0.71454  Biso   1.000  C
  H13      1.0000 0.66410  0.37850  0.23050  Biso   1.000  H
  H14      1.0000 0.33590  0.87850  0.26950  Biso   1.000  H
  H15      1.0000 0.33590  0.62150  0.76950  Biso   1.000  H
  H16      1.0000 0.66410  0.12150  0.73050  Biso   1.000  H
  N5       1.0000 0.90810  0.42554  0.17861  Biso   1.000  N
  N6       1.0000 0.09190  0.92554  0.32139  Biso   1.000  N
  N7       1.0000 0.09190  0.57446  0.82139  Biso   1.000  N
  N8       1.0000 0.90810  0.07446  0.67861  Biso   1.000  N
  H17      1.0000 0.99630  0.42800  0.16570  Biso   1.000  H
  H18      1.0000 0.00370  0.92800  0.33430  Biso   1.000  H
  H19      1.0000 0.00370  0.57200  0.83430  Biso   1.000  H
  H20      1.0000 0.99630  0.07200  0.66570  Biso   1.000  H
  C21      1.0000 0.83990  0.49166  0.18965  Biso   1.000  C
  C22      1.0000 0.16010  0.99166  0.31035  Biso   1.000  C
  C23      1.0000 0.16010  0.50834  0.81035  Biso   1.000  C
  C24      1.0000 0.83990  0.00834  0.68965  Biso   1.000  C
  O1       1.0000 0.71493  0.49748  0.20729  Biso   1.000  O
  O2       1.0000 0.28507  0.99748  0.29271  Biso   1.000  O
  O3       1.0000 0.28507  0.50252  0.79271  Biso   1.000  O
  O4       1.0000 0.71493  0.00252  0.70729  Biso   1.000  O
  N9       1.0000 0.93170  0.55078  0.17867  Biso   1.000  N
  N10      1.0000 0.06830  0.05078  0.32133  Biso   1.000  N
  N11      1.0000 0.06830  0.44922  0.82133  Biso   1.000  N
  N12      1.0000 0.93170  0.94922  0.67867  Biso   1.000  N
  H21      1.0000 0.02130  0.54080  0.17050  Biso   1.000  H
  H22      1.0000 0.97870  0.04080  0.32950  Biso   1.000  H
  H23      1.0000 0.97870  0.45920  0.82950  Biso   1.000  H
  H24      1.0000 0.02130  0.95920  0.67050  Biso   1.000  H
  C25      1.0000 0.89150  0.62488  0.17978  Biso   1.000  C
  C26      1.0000 0.10850  0.12488  0.32022  Biso   1.000  C
  C27      1.0000 0.10850  0.37512  0.82022  Biso   1.000  C
  C28      1.0000 0.89150  0.87512  0.67978  Biso   1.000  C
  C29      1.0000 0.97200  0.67625  0.14527  Biso   1.000  C
  C30      1.0000 0.02800  0.17625  0.35473  Biso   1.000  C
  C31      1.0000 0.02800  0.32375  0.85473  Biso   1.000  C
  C32      1.0000 0.97200  0.82375  0.64527  Biso   1.000  C
  H25      1.0000 0.05300  0.66130  0.12270  Biso   1.000  H
  H26      1.0000 0.94700  0.16130  0.37730  Biso   1.000  H
  H27      1.0000 0.94700  0.33870  0.87730  Biso   1.000  H
  H28      1.0000 0.05300  0.83870  0.62270  Biso   1.000  H
  C33      1.0000 0.93020  0.74937  0.14494  Biso   1.000  C
  C34      1.0000 0.06980  0.24937  0.35506  Biso   1.000  C
  C35      1.0000 0.06980  0.25063  0.85506  Biso   1.000  C
  C36      1.0000 0.93020  0.75063  0.64494  Biso   1.000  C
  H29      1.0000 0.98500  0.78450  0.12350  Biso   1.000  H
  H30      1.0000 0.01500  0.28450  0.37650  Biso   1.000  H
  H31      1.0000 0.01500  0.21550  0.87650  Biso   1.000  H
  H32      1.0000 0.98500  0.71550  0.62350  Biso   1.000  H
  C37      1.0000 0.80590  0.77042  0.17672  Biso   1.000  C
  C38      1.0000 0.19410  0.27042  0.32328  Biso   1.000  C
  C39      1.0000 0.19410  0.22958  0.82328  Biso   1.000  C
  C40      1.0000 0.80590  0.72958  0.67672  Biso   1.000  C
  H33      1.0000 0.77470  0.81940  0.17400  Biso   1.000  H
  H34      1.0000 0.22530  0.31940  0.32600  Biso   1.000  H
  H35      1.0000 0.22530  0.18060  0.82600  Biso   1.000  H
  H36      1.0000 0.77470  0.68060  0.67400  Biso   1.000  H
  N13      1.0000 0.73000  0.72160  0.21130  Biso   1.000  N
  N14      1.0000 0.27000  0.22160  0.28870  Biso   1.000  N
  N15      1.0000 0.27000  0.27840  0.78870  Biso   1.000  N
  N16      1.0000 0.73000  0.77840  0.71130  Biso   1.000  N
  C41      1.0000 0.77410  0.65069  0.21478  Biso   1.000  C
  C42      1.0000 0.22590  0.15069  0.28522  Biso   1.000  C
  C43      1.0000 0.22590  0.34931  0.78522  Biso   1.000  C
  C44      1.0000 0.77410  0.84931  0.71478  Biso   1.000  C
  H37      1.0000 0.72490  0.61780  0.24130  Biso   1.000  H
  H38      1.0000 0.27510  0.11780  0.25870  Biso   1.000  H
  H39      1.0000 0.27510  0.38220  0.75870  Biso   1.000  H
  H40      1.0000 0.72490  0.88220  0.74130  Biso   1.000  H
  N17      1.0000 0.54900  0.26799  0.35238  Biso   1.000  N
  N18      1.0000 0.45100  0.76799  0.14762  Biso   1.000  N
  N19      1.0000 0.45100  0.73201  0.64762  Biso   1.000  N
  N20      1.0000 0.54900  0.23201  0.85238  Biso   1.000  N
  C45      1.0000 0.57330  0.21384  0.39879  Biso   1.000  C
  C46      1.0000 0.42670  0.71384  0.10121  Biso   1.000  C
  C47      1.0000 0.42670  0.78616  0.60121  Biso   1.000  C
  C48      1.0000 0.57330  0.28616  0.89879  Biso   1.000  C
  H41      1.0000 0.55410  0.16520  0.38560  Biso   1.000  H
  H42      1.0000 0.44590  0.66520  0.11440  Biso   1.000  H
  H43      1.0000 0.44590  0.83480  0.61440  Biso   1.000  H
  H44      1.0000 0.55410  0.33480  0.88560  Biso   1.000  H
  C49      1.0000 0.62640  0.22890  0.46588  Biso   1.000  C
  C50      1.0000 0.37360  0.72890  0.03412  Biso   1.000  C
  C51      1.0000 0.37360  0.77110  0.53412  Biso   1.000  C
  C52      1.0000 0.62640  0.27110  0.96588  Biso   1.000  C
  H45      1.0000 0.64300  0.19050  0.49720  Biso   1.000  H
  H46      1.0000 0.35700  0.69050  0.00280  Biso   1.000  H
  H47      1.0000 0.35700  0.80950  0.50280  Biso   1.000  H
  H48      1.0000 0.64300  0.30950  0.99720  Biso   1.000  H
  C53      1.0000 0.65450  0.30050  0.48631  Biso   1.000  C
  C54      1.0000 0.34550  0.80050  0.01369  Biso   1.000  C
  C55      1.0000 0.34550  0.69950  0.51369  Biso   1.000  C
  C56      1.0000 0.65450  0.19950  0.98631  Biso   1.000  C
  H49      1.0000 0.69110  0.31090  0.53130  Biso   1.000  H
  H50      1.0000 0.30890  0.81090  0.96870  Biso   1.000  H
  H51      1.0000 0.30890  0.68910  0.46870  Biso   1.000  H
  H52      1.0000 0.69110  0.18910  0.03130  Biso   1.000  H
  C57      1.0000 0.62750  0.35721  0.43876  Biso   1.000  C
  C58      1.0000 0.37250  0.85721  0.06124  Biso   1.000  C
  C59      1.0000 0.37250  0.64279  0.56124  Biso   1.000  C
  C60      1.0000 0.62750  0.14279  0.93876  Biso   1.000  C
  C61      1.0000 0.57590  0.33821  0.37175  Biso   1.000  C
  C62      1.0000 0.42410  0.83821  0.12825  Biso   1.000  C
  C63      1.0000 0.42410  0.66179  0.62825  Biso   1.000  C
  C64      1.0000 0.57590  0.16179  0.87175  Biso   1.000  C
  H53      1.0000 0.55950  0.37550  0.33930  Biso   1.000  H
  H54      1.0000 0.44050  0.87550  0.16070  Biso   1.000  H
  H55      1.0000 0.44050  0.62450  0.66070  Biso   1.000  H
  H56      1.0000 0.55950  0.12450  0.83930  Biso   1.000  H
  N21      1.0000 0.65050  0.43002  0.46082  Biso   1.000  N
  N22      1.0000 0.34950  0.93002  0.03918  Biso   1.000  N
  N23      1.0000 0.34950  0.56998  0.53918  Biso   1.000  N
  N24      1.0000 0.65050  0.06998  0.96082  Biso   1.000  N
  H57      1.0000 0.67840  0.43670  0.50360  Biso   1.000  H
  H58      1.0000 0.32160  0.93670  0.99640  Biso   1.000  H
  H59      1.0000 0.32160  0.56330  0.49640  Biso   1.000  H
  H60      1.0000 0.67840  0.06330  0.00360  Biso   1.000  H
  C65      1.0000 0.63270  0.49219  0.42026  Biso   1.000  C
  C66      1.0000 0.36730  0.99219  0.07974  Biso   1.000  C
  C67      1.0000 0.36730  0.50781  0.57974  Biso   1.000  C
  C68      1.0000 0.63270  0.00781  0.92026  Biso   1.000  C
  O5       1.0000 0.60150  0.49180  0.35869  Biso   1.000  O
  O6       1.0000 0.39850  0.99180  0.14131  Biso   1.000  O
  O7       1.0000 0.39850  0.50820  0.64131  Biso   1.000  O
  O8       1.0000 0.60150  0.00820  0.85869  Biso   1.000  O
  N25      1.0000 0.65390  0.55600  0.45891  Biso   1.000  N
  N26      1.0000 0.34610  0.05600  0.04109  Biso   1.000  N
  N27      1.0000 0.34610  0.44400  0.54109  Biso   1.000  N
  N28      1.0000 0.65390  0.94400  0.95891  Biso   1.000  N
  H61      1.0000 0.66440  0.55130  0.50290  Biso   1.000  H
  H62      1.0000 0.33560  0.05130  0.99710  Biso   1.000  H
  H63      1.0000 0.33560  0.44870  0.49710  Biso   1.000  H
  H64      1.0000 0.66440  0.94870  0.00290  Biso   1.000  H
  C69      1.0000 0.65970  0.62740  0.43229  Biso   1.000  C
  C70      1.0000 0.34030  0.12740  0.06771  Biso   1.000  C
  C71      1.0000 0.34030  0.37260  0.56771  Biso   1.000  C
  C72      1.0000 0.65970  0.87260  0.93229  Biso   1.000  C
  C73      1.0000 0.72820  0.68164  0.47504  Biso   1.000  C
  C74      1.0000 0.27180  0.18164  0.02496  Biso   1.000  C
  C75      1.0000 0.27180  0.31836  0.52496  Biso   1.000  C
  C76      1.0000 0.72820  0.81836  0.97504  Biso   1.000  C
  H65      1.0000 0.76800  0.66990  0.51930  Biso   1.000  H
  H66      1.0000 0.23200  0.16990  0.98070  Biso   1.000  H
  H67      1.0000 0.23200  0.33010  0.48070  Biso   1.000  H
  H68      1.0000 0.76800  0.83010  0.01930  Biso   1.000  H
  C77      1.0000 0.73570  0.75278  0.45060  Biso   1.000  C
  C78      1.0000 0.26430  0.25278  0.04940  Biso   1.000  C
  C79      1.0000 0.26430  0.24722  0.54940  Biso   1.000  C
  C80      1.0000 0.73570  0.74722  0.95060  Biso   1.000  C
  H69      1.0000 0.77950  0.78980  0.47850  Biso   1.000  H
  H70      1.0000 0.22050  0.28980  0.02150  Biso   1.000  H
  H71      1.0000 0.22050  0.21020  0.52150  Biso   1.000  H
  H72      1.0000 0.77950  0.71020  0.97850  Biso   1.000  H
  C81      1.0000 0.67820  0.76873  0.38460  Biso   1.000  C
  C82      1.0000 0.32180  0.26873  0.11540  Biso   1.000  C
  C83      1.0000 0.32180  0.23127  0.61540  Biso   1.000  C
  C84      1.0000 0.67820  0.73127  0.88460  Biso   1.000  C
  H73      1.0000 0.68590  0.81670  0.36820  Biso   1.000  H
  H74      1.0000 0.31410  0.31670  0.13180  Biso   1.000  H
  H75      1.0000 0.31410  0.18330  0.63180  Biso   1.000  H
  H76      1.0000 0.68590  0.68330  0.86820  Biso   1.000  H
  N29      1.0000 0.61120  0.71717  0.34324  Biso   1.000  N
  N30      1.0000 0.38880  0.21717  0.15676  Biso   1.000  N
  N31      1.0000 0.38880  0.28283  0.65676  Biso   1.000  N
  N32      1.0000 0.61120  0.78283  0.84324  Biso   1.000  N
  C85      1.0000 0.60100  0.64770  0.36689  Biso   1.000  C
  C86      1.0000 0.39900  0.14770  0.13311  Biso   1.000  C
  C87      1.0000 0.39900  0.35230  0.63311  Biso   1.000  C
  C88      1.0000 0.60100  0.85230  0.86689  Biso   1.000  C
  H77      1.0000 0.55310  0.61220  0.33850  Biso   1.000  H
  H78      1.0000 0.44690  0.11220  0.16150  Biso   1.000  H
  H79      1.0000 0.44690  0.38780  0.66150  Biso   1.000  H
  H80      1.0000 0.55310  0.88780  0.83850  Biso   1.000  H
  F1       1.0000 0.06411  0.44898  0.66117  Biso   1.000  F
  F2       1.0000 0.93589  0.94898  0.83883  Biso   1.000  F
  F3       1.0000 0.93589  0.55102  0.33883  Biso   1.000  F
  F4       1.0000 0.06411  0.05102  0.16117  Biso   1.000  F
  F5       1.0000 0.01706  0.50909  0.56670  Biso   1.000  F
  F6       1.0000 0.98294  0.00909  0.93330  Biso   1.000  F
  F7       1.0000 0.98294  0.49091  0.43330  Biso   1.000  F
  F8       1.0000 0.01706  0.99091  0.06670  Biso   1.000  F
  F9       1.0000 0.05281  0.56790  0.66226  Biso   1.000  F
  F10      1.0000 0.94719  0.06790  0.83774  Biso   1.000  F
  F11      1.0000 0.94719  0.43210  0.33774  Biso   1.000  F
  F12      1.0000 0.05281  0.93210  0.16226  Biso   1.000  F
  C89      1.0000 0.99360  0.50730  0.63274  Biso   1.000  C
  C90      1.0000 0.00640  0.00730  0.86726  Biso   1.000  C
  C91      1.0000 0.00640  0.49270  0.36726  Biso   1.000  C
  C92      1.0000 0.99360  0.99270  0.13274  Biso   1.000  C
  S1       1.0000 0.79428  0.50261  0.64175  Biso   1.000  S
  S2       1.0000 0.20572  0.00261  0.85825  Biso   1.000  S
  S3       1.0000 0.20572  0.49739  0.35825  Biso   1.000  S
  S4       1.0000 0.79428  0.99739  0.14175  Biso   1.000  S
  O9       1.0000 0.78460  0.50446  0.71491  Biso   1.000  O
  O10      1.0000 0.21540  0.00446  0.78509  Biso   1.000  O
  O11      1.0000 0.21540  0.49554  0.28509  Biso   1.000  O
  O12      1.0000 0.78460  0.99554  0.21491  Biso   1.000  O
  O13      1.0000 0.73740  0.56815  0.60565  Biso   1.000  O
  O14      1.0000 0.26260  0.06815  0.89435  Biso   1.000  O
  O15      1.0000 0.26260  0.43185  0.39435  Biso   1.000  O
  O16      1.0000 0.73740  0.93185  0.10565  Biso   1.000  O
  O17      1.0000 0.75060  0.43401  0.60809  Biso   1.000  O
  O18      1.0000 0.24940  0.93401  0.89191  Biso   1.000  O
  O19      1.0000 0.24940  0.56599  0.39191  Biso   1.000  O
  O20      1.0000 0.75060  0.06599  0.10809  Biso   1.000  O
  F13      1.0000 0.13726  0.51719  0.97130  Biso   1.000  F
  F14      1.0000 0.86274  0.01719  0.52870  Biso   1.000  F
  F15      1.0000 0.86274  0.48281  0.02870  Biso   1.000  F
  F16      1.0000 0.13726  0.98281  0.47130  Biso   1.000  F
  F17      1.0000 0.36626  0.54851  0.98903  Biso   1.000  F
  F18      1.0000 0.63374  0.04851  0.51097  Biso   1.000  F
  F19      1.0000 0.63374  0.45149  0.01097  Biso   1.000  F
  F20      1.0000 0.36626  0.95149  0.48903  Biso   1.000  F
  F21      1.0000 0.30820  0.43481  0.96841  Biso   1.000  F
  F22      1.0000 0.69180  0.93481  0.53159  Biso   1.000  F
  F23      1.0000 0.69180  0.56519  0.03159  Biso   1.000  F
  F24      1.0000 0.30820  0.06519  0.46841  Biso   1.000  F
  C93      1.0000 0.26900  0.49591  0.99963  Biso   1.000  C
  C94      1.0000 0.73100  0.99591  0.50037  Biso   1.000  C
  C95      1.0000 0.73100  0.50409  0.00037  Biso   1.000  C
  C96      1.0000 0.26900  0.00409  0.49963  Biso   1.000  C
  S5       1.0000 0.26185  0.47994  0.09147  Biso   1.000  S
  S6       1.0000 0.73815  0.97994  0.40853  Biso   1.000  S
  S7       1.0000 0.73815  0.52006  0.90853  Biso   1.000  S
  S8       1.0000 0.26185  0.02006  0.59147  Biso   1.000  S
  O21      1.0000 0.21510  0.55019  0.11691  Biso   1.000  O
  O22      1.0000 0.78490  0.05019  0.38309  Biso   1.000  O
  O23      1.0000 0.78490  0.44981  0.88309  Biso   1.000  O
  O24      1.0000 0.21510  0.94981  0.61691  Biso   1.000  O
  O25      1.0000 0.15173  0.42218  0.09408  Biso   1.000  O
  O26      1.0000 0.84827  0.92218  0.40592  Biso   1.000  O
  O27      1.0000 0.84827  0.57782  0.90592  Biso   1.000  O
  O28      1.0000 0.15173  0.07782  0.59408  Biso   1.000  O
  O29      1.0000 0.41090  0.45853  0.11576  Biso   1.000  O
  O30      1.0000 0.58910  0.95853  0.38424  Biso   1.000  O
  O31      1.0000 0.58910  0.54147  0.88424  Biso   1.000  O
  O32      1.0000 0.41090  0.04147  0.61576  Biso   1.000  O
  O33      1.0000 0.39350  0.37748  0.23726  Biso   1.000  O
  O34      1.0000 0.60650  0.87748  0.26274  Biso   1.000  O
  O35      1.0000 0.60650  0.62252  0.76274  Biso   1.000  O
  O36      1.0000 0.39350  0.12252  0.73726  Biso   1.000  O
  O37      1.0000 0.45760  0.59715  0.22179  Biso   1.000  O
  O38      1.0000 0.54240  0.09715  0.27821  Biso   1.000  O
  O39      1.0000 0.54240  0.40285  0.77821  Biso   1.000  O
  O40      1.0000 0.45760  0.90285  0.72179  Biso   1.000  O
  H81      1.0000 0.41100  0.39900  0.20460  Biso   1.000  H
  H82      1.0000 0.58900  0.89900  0.29540  Biso   1.000  H
  H83      1.0000 0.58900  0.60100  0.79540  Biso   1.000  H
  H84      1.0000 0.41100  0.10100  0.70460  Biso   1.000  H
  H85      1.0000 0.34800  0.40720  0.25710  Biso   1.000  H
  H86      1.0000 0.65200  0.90720  0.24290  Biso   1.000  H
  H87      1.0000 0.65200  0.59280  0.74290  Biso   1.000  H
  H88      1.0000 0.34800  0.09280  0.75710  Biso   1.000  H
  H89      1.0000 0.38000  0.58400  0.21120  Biso   1.000  H
  H90      1.0000 0.62000  0.08400  0.28880  Biso   1.000  H
  H91      1.0000 0.62000  0.41600  0.78880  Biso   1.000  H
  H92      1.0000 0.38000  0.91600  0.71120  Biso   1.000  H
  H93      1.0000 0.50900  0.56720  0.21650  Biso   1.000  H
  H94      1.0000 0.49100  0.06720  0.28350  Biso   1.000  H
  H95      1.0000 0.49100  0.43280  0.78350  Biso   1.000  H
  H96      1.0000 0.50900  0.93280  0.71650  Biso   1.000  H
