data_image0
_cell_length_a       15.845
_cell_length_b       15.845
_cell_length_c       22.789
_cell_angle_alpha    90
_cell_angle_beta     90
_cell_angle_gamma    90

_symmetry_space_group_name_H-M    "P 1"
_symmetry_int_tables_number       1

loop_
  _symmetry_equiv_pos_as_xyz
  'x, y, z'

loop_
  _atom_site_label
  _atom_site_occupancy
  _atom_site_fract_x
  _atom_site_fract_y
  _atom_site_fract_z
  _atom_site_thermal_displace_type
  _atom_site_B_iso_or_equiv
  _atom_site_type_symbol
  Cu1      1.0000 0.36140  0.99580  0.62920  Biso   1.000  Cu
  Cu2      1.0000 0.00420  0.36140  0.37080  Biso   1.000  Cu
  Cu3      1.0000 0.63860  0.00420  0.62920  Biso   1.000  Cu
  Cu4      1.0000 0.99580  0.63860  0.37080  Biso   1.000  Cu
  Cu5      1.0000 0.13860  0.49580  0.87080  Biso   1.000  Cu
  Cu6      1.0000 0.49580  0.86140  0.12920  Biso   1.000  Cu
  Cu7      1.0000 0.86140  0.50420  0.87080  Biso   1.000  Cu
  Cu8      1.0000 0.50420  0.13860  0.12920  Biso   1.000  Cu
  Cu9      1.0000 0.41740  0.07320  0.37900  Biso   1.000  Cu
  Cu10     1.0000 0.92680  0.41740  0.62100  Biso   1.000  Cu
  Cu11     1.0000 0.58260  0.92680  0.37900  Biso   1.000  Cu
  Cu12     1.0000 0.07320  0.58260  0.62100  Biso   1.000  Cu
  Cu13     1.0000 0.08260  0.57320  0.12100  Biso   1.000  Cu
  Cu14     1.0000 0.57320  0.91740  0.87900  Biso   1.000  Cu
  Cu15     1.0000 0.91740  0.42680  0.12100  Biso   1.000  Cu
  Cu16     1.0000 0.42680  0.08260  0.87900  Biso   1.000  Cu
  Cu17     1.0000 0.42880  0.23910  0.64340  Biso   1.000  Cu
  Cu18     1.0000 0.76090  0.42880  0.35660  Biso   1.000  Cu
  Cu19     1.0000 0.57120  0.76090  0.64340  Biso   1.000  Cu
  Cu20     1.0000 0.23910  0.57120  0.35660  Biso   1.000  Cu
  Cu21     1.0000 0.07120  0.73910  0.85660  Biso   1.000  Cu
  Cu22     1.0000 0.73910  0.92880  0.14340  Biso   1.000  Cu
  Cu23     1.0000 0.92880  0.26090  0.85660  Biso   1.000  Cu
  Cu24     1.0000 0.26090  0.07120  0.14340  Biso   1.000  Cu
  O1       1.0000 0.22600  0.02800  0.62700  Biso   1.000  O
  O2       1.0000 0.97200  0.22600  0.37300  Biso   1.000  O
  O3       1.0000 0.77400  0.97200  0.62700  Biso   1.000  O
  O4       1.0000 0.02800  0.77400  0.37300  Biso   1.000  O
  O5       1.0000 0.27400  0.52800  0.87300  Biso   1.000  O
  O6       1.0000 0.52800  0.72600  0.12700  Biso   1.000  O
  O7       1.0000 0.72600  0.47200  0.87300  Biso   1.000  O
  O8       1.0000 0.47200  0.27400  0.12700  Biso   1.000  O
  N1       1.0000 0.39890  0.06210  0.55970  Biso   1.000  N
  N2       1.0000 0.93790  0.39890  0.44030  Biso   1.000  N
  N3       1.0000 0.60110  0.93790  0.55970  Biso   1.000  N
  N4       1.0000 0.06210  0.60110  0.44030  Biso   1.000  N
  N5       1.0000 0.10110  0.56210  0.94030  Biso   1.000  N
  N6       1.0000 0.56210  0.89890  0.05970  Biso   1.000  N
  N7       1.0000 0.89890  0.43790  0.94030  Biso   1.000  N
  N8       1.0000 0.43790  0.10110  0.05970  Biso   1.000  N
  N9       1.0000 0.40680  0.14430  0.54670  Biso   1.000  N
  N10      1.0000 0.85570  0.40680  0.45330  Biso   1.000  N
  N11      1.0000 0.59320  0.85570  0.54670  Biso   1.000  N
  N12      1.0000 0.14430  0.59320  0.45330  Biso   1.000  N
  N13      1.0000 0.09320  0.64430  0.95330  Biso   1.000  N
  N14      1.0000 0.64430  0.90680  0.04670  Biso   1.000  N
  N15      1.0000 0.90680  0.35570  0.95330  Biso   1.000  N
  N16      1.0000 0.35570  0.09320  0.04670  Biso   1.000  N
  C1       1.0000 0.41800  0.13830  0.48920  Biso   1.000  C
  C2       1.0000 0.86170  0.41800  0.51080  Biso   1.000  C
  C3       1.0000 0.58200  0.86170  0.48920  Biso   1.000  C
  C4       1.0000 0.13830  0.58200  0.51080  Biso   1.000  C
  C5       1.0000 0.08200  0.63830  0.01080  Biso   1.000  C
  C6       1.0000 0.63830  0.91800  0.98920  Biso   1.000  C
  C7       1.0000 0.91800  0.36170  0.01080  Biso   1.000  C
  C8       1.0000 0.36170  0.08200  0.98920  Biso   1.000  C
  N17      1.0000 0.40110  0.07390  0.46410  Biso   1.000  N
  N18      1.0000 0.92610  0.40110  0.53590  Biso   1.000  N
  N19      1.0000 0.59890  0.92610  0.46410  Biso   1.000  N
  N20      1.0000 0.07390  0.59890  0.53590  Biso   1.000  N
  N21      1.0000 0.09890  0.57390  0.03590  Biso   1.000  N
  N22      1.0000 0.57390  0.90110  0.96410  Biso   1.000  N
  N23      1.0000 0.90110  0.42610  0.03590  Biso   1.000  N
  N24      1.0000 0.42610  0.09890  0.96410  Biso   1.000  N
  C9       1.0000 0.39700  0.02000  0.51000  Biso   1.000  C
  C10      1.0000 0.98000  0.39700  0.49000  Biso   1.000  C
  C11      1.0000 0.60300  0.98000  0.51000  Biso   1.000  C
  C12      1.0000 0.02000  0.60300  0.49000  Biso   1.000  C
  C13      1.0000 0.10300  0.52000  0.99000  Biso   1.000  C
  C14      1.0000 0.52000  0.89700  0.01000  Biso   1.000  C
  C15      1.0000 0.89700  0.48000  0.99000  Biso   1.000  C
  C16      1.0000 0.48000  0.10300  0.01000  Biso   1.000  C
  C17      1.0000 0.37200  0.92800  0.51300  Biso   1.000  C
  C18      1.0000 0.07200  0.37200  0.48700  Biso   1.000  C
  C19      1.0000 0.62800  0.07200  0.51300  Biso   1.000  C
  C20      1.0000 0.92800  0.62800  0.48700  Biso   1.000  C
  C21      1.0000 0.12800  0.42800  0.98700  Biso   1.000  C
  C22      1.0000 0.42800  0.87200  0.01300  Biso   1.000  C
  C23      1.0000 0.87200  0.57200  0.98700  Biso   1.000  C
  C24      1.0000 0.57200  0.12800  0.01300  Biso   1.000  C
  O9       1.0000 0.36060  0.90360  0.56790  Biso   1.000  O
  O10      1.0000 0.09640  0.36060  0.43210  Biso   1.000  O
  O11      1.0000 0.63940  0.09640  0.56790  Biso   1.000  O
  O12      1.0000 0.90360  0.63940  0.43210  Biso   1.000  O
  O13      1.0000 0.13940  0.40360  0.93210  Biso   1.000  O
  O14      1.0000 0.40360  0.86060  0.06790  Biso   1.000  O
  O15      1.0000 0.86060  0.59640  0.93210  Biso   1.000  O
  O16      1.0000 0.59640  0.13940  0.06790  Biso   1.000  O
  O17      1.0000 0.37770  0.88160  0.47520  Biso   1.000  O
  O18      1.0000 0.11840  0.37770  0.52480  Biso   1.000  O
  O19      1.0000 0.62230  0.11840  0.47520  Biso   1.000  O
  O20      1.0000 0.88160  0.62230  0.52480  Biso   1.000  O
  O21      1.0000 0.12230  0.38160  0.02480  Biso   1.000  O
  O22      1.0000 0.38160  0.87770  0.97520  Biso   1.000  O
  O23      1.0000 0.87770  0.61840  0.02480  Biso   1.000  O
  O24      1.0000 0.61840  0.12230  0.97520  Biso   1.000  O
  C25      1.0000 0.42500  0.22400  0.45300  Biso   1.000  C
  C26      1.0000 0.77600  0.42500  0.54700  Biso   1.000  C
  C27      1.0000 0.57500  0.77600  0.45300  Biso   1.000  C
  C28      1.0000 0.22400  0.57500  0.54700  Biso   1.000  C
  C29      1.0000 0.07500  0.72400  0.04700  Biso   1.000  C
  C30      1.0000 0.72400  0.92500  0.95300  Biso   1.000  C
  C31      1.0000 0.92500  0.27600  0.04700  Biso   1.000  C
  C32      1.0000 0.27600  0.07500  0.95300  Biso   1.000  C
  O25      1.0000 0.42780  0.19650  0.39320  Biso   1.000  O
  O26      1.0000 0.80350  0.42780  0.60680  Biso   1.000  O
  O27      1.0000 0.57220  0.80350  0.39320  Biso   1.000  O
  O28      1.0000 0.19650  0.57220  0.60680  Biso   1.000  O
  O29      1.0000 0.07220  0.69650  0.10680  Biso   1.000  O
  O30      1.0000 0.69650  0.92780  0.89320  Biso   1.000  O
  O31      1.0000 0.92780  0.30350  0.10680  Biso   1.000  O
  O32      1.0000 0.30350  0.07220  0.89320  Biso   1.000  O
  O33      1.0000 0.43830  0.29160  0.47040  Biso   1.000  O
  O34      1.0000 0.70840  0.43830  0.52960  Biso   1.000  O
  O35      1.0000 0.56170  0.70840  0.47040  Biso   1.000  O
  O36      1.0000 0.29160  0.56170  0.52960  Biso   1.000  O
  O37      1.0000 0.06170  0.79160  0.02960  Biso   1.000  O
  O38      1.0000 0.79160  0.93830  0.97040  Biso   1.000  O
  O39      1.0000 0.93830  0.20840  0.02960  Biso   1.000  O
  O40      1.0000 0.20840  0.06170  0.97040  Biso   1.000  O
  O41      1.0000 0.57150  0.05210  0.37790  Biso   1.000  O
  O42      1.0000 0.94790  0.57150  0.62210  Biso   1.000  O
  O43      1.0000 0.42850  0.94790  0.37790  Biso   1.000  O
  O44      1.0000 0.05210  0.42850  0.62210  Biso   1.000  O
  O45      1.0000 0.92850  0.55210  0.12210  Biso   1.000  O
  O46      1.0000 0.55210  0.07150  0.87790  Biso   1.000  O
  O47      1.0000 0.07150  0.44790  0.12210  Biso   1.000  O
  O48      1.0000 0.44790  0.92850  0.87790  Biso   1.000  O
  N25      1.0000 0.39640  0.06740  0.69230  Biso   1.000  N
  N26      1.0000 0.93260  0.39640  0.30770  Biso   1.000  N
  N27      1.0000 0.60360  0.93260  0.69230  Biso   1.000  N
  N28      1.0000 0.06740  0.60360  0.30770  Biso   1.000  N
  N29      1.0000 0.10360  0.56740  0.80770  Biso   1.000  N
  N30      1.0000 0.56740  0.89640  0.19230  Biso   1.000  N
  N31      1.0000 0.89640  0.43260  0.80770  Biso   1.000  N
  N32      1.0000 0.43260  0.10360  0.19230  Biso   1.000  N
  N33      1.0000 0.42090  0.14500  0.70230  Biso   1.000  N
  N34      1.0000 0.85500  0.42090  0.29770  Biso   1.000  N
  N35      1.0000 0.57910  0.85500  0.70230  Biso   1.000  N
  N36      1.0000 0.14500  0.57910  0.29770  Biso   1.000  N
  N37      1.0000 0.07910  0.64500  0.79770  Biso   1.000  N
  N38      1.0000 0.64500  0.92090  0.20230  Biso   1.000  N
  N39      1.0000 0.92090  0.35500  0.79770  Biso   1.000  N
  N40      1.0000 0.35500  0.07910  0.20230  Biso   1.000  N
  C33      1.0000 0.43100  0.15900  0.76300  Biso   1.000  C
  C34      1.0000 0.84100  0.43100  0.23700  Biso   1.000  C
  C35      1.0000 0.56900  0.84100  0.76300  Biso   1.000  C
  C36      1.0000 0.15900  0.56900  0.23700  Biso   1.000  C
  C37      1.0000 0.06900  0.65900  0.73700  Biso   1.000  C
  C38      1.0000 0.65900  0.93100  0.26300  Biso   1.000  C
  C39      1.0000 0.93100  0.34100  0.73700  Biso   1.000  C
  C40      1.0000 0.34100  0.06900  0.26300  Biso   1.000  C
  N41      1.0000 0.41860  0.07250  0.79010  Biso   1.000  N
  N42      1.0000 0.92750  0.41860  0.20990  Biso   1.000  N
  N43      1.0000 0.58140  0.92750  0.79010  Biso   1.000  N
  N44      1.0000 0.07250  0.58140  0.20990  Biso   1.000  N
  N45      1.0000 0.08140  0.57250  0.70990  Biso   1.000  N
  N46      1.0000 0.57250  0.91860  0.29010  Biso   1.000  N
  N47      1.0000 0.91860  0.42750  0.70990  Biso   1.000  N
  N48      1.0000 0.42750  0.08140  0.29010  Biso   1.000  N
  C41      1.0000 0.39400  0.02600  0.74300  Biso   1.000  C
  C42      1.0000 0.97400  0.39400  0.25700  Biso   1.000  C
  C43      1.0000 0.60600  0.97400  0.74300  Biso   1.000  C
  C44      1.0000 0.02600  0.60600  0.25700  Biso   1.000  C
  C45      1.0000 0.10600  0.52600  0.75700  Biso   1.000  C
  C46      1.0000 0.52600  0.89400  0.24300  Biso   1.000  C
  C47      1.0000 0.89400  0.47400  0.75700  Biso   1.000  C
  C48      1.0000 0.47400  0.10600  0.24300  Biso   1.000  C
  C49      1.0000 0.37600  0.94000  0.74500  Biso   1.000  C
  C50      1.0000 0.06000  0.37600  0.25500  Biso   1.000  C
  C51      1.0000 0.62400  0.06000  0.74500  Biso   1.000  C
  C52      1.0000 0.94000  0.62400  0.25500  Biso   1.000  C
  C53      1.0000 0.12400  0.44000  0.75500  Biso   1.000  C
  C54      1.0000 0.44000  0.87600  0.24500  Biso   1.000  C
  C55      1.0000 0.87600  0.56000  0.75500  Biso   1.000  C
  C56      1.0000 0.56000  0.12400  0.24500  Biso   1.000  C
  O49      1.0000 0.34710  0.91450  0.69020  Biso   1.000  O
  O50      1.0000 0.08550  0.34710  0.30980  Biso   1.000  O
  O51      1.0000 0.65290  0.08550  0.69020  Biso   1.000  O
  O52      1.0000 0.91450  0.65290  0.30980  Biso   1.000  O
  O53      1.0000 0.15290  0.41450  0.80980  Biso   1.000  O
  O54      1.0000 0.41450  0.84710  0.19020  Biso   1.000  O
  O55      1.0000 0.84710  0.58550  0.80980  Biso   1.000  O
  O56      1.0000 0.58550  0.15290  0.19020  Biso   1.000  O
  O57      1.0000 0.36410  0.88940  0.78800  Biso   1.000  O
  O58      1.0000 0.11060  0.36410  0.21200  Biso   1.000  O
  O59      1.0000 0.63590  0.11060  0.78800  Biso   1.000  O
  O60      1.0000 0.88940  0.63590  0.21200  Biso   1.000  O
  O61      1.0000 0.13590  0.38940  0.71200  Biso   1.000  O
  O62      1.0000 0.38940  0.86410  0.28800  Biso   1.000  O
  O63      1.0000 0.86410  0.61060  0.71200  Biso   1.000  O
  O64      1.0000 0.61060  0.13590  0.28800  Biso   1.000  O
  C57      1.0000 0.45800  0.22600  0.80100  Biso   1.000  C
  C58      1.0000 0.77400  0.45800  0.19900  Biso   1.000  C
  C59      1.0000 0.54200  0.77400  0.80100  Biso   1.000  C
  C60      1.0000 0.22600  0.54200  0.19900  Biso   1.000  C
  C61      1.0000 0.04200  0.72600  0.69900  Biso   1.000  C
  C62      1.0000 0.72600  0.95800  0.30100  Biso   1.000  C
  C63      1.0000 0.95800  0.27400  0.69900  Biso   1.000  C
  C64      1.0000 0.27400  0.04200  0.30100  Biso   1.000  C
  O65      1.0000 0.45100  0.22770  0.84920  Biso   1.000  O
  O66      1.0000 0.77230  0.45100  0.15080  Biso   1.000  O
  O67      1.0000 0.54900  0.77230  0.84920  Biso   1.000  O
  O68      1.0000 0.22770  0.54900  0.15080  Biso   1.000  O
  O69      1.0000 0.04900  0.72770  0.65080  Biso   1.000  O
  O70      1.0000 0.72770  0.95100  0.34920  Biso   1.000  O
  O71      1.0000 0.95100  0.27230  0.65080  Biso   1.000  O
  O72      1.0000 0.27230  0.04900  0.34920  Biso   1.000  O
  O73      1.0000 0.46800  0.28900  0.76300  Biso   1.000  O
  O74      1.0000 0.71100  0.46800  0.23700  Biso   1.000  O
  O75      1.0000 0.53200  0.71100  0.76300  Biso   1.000  O
  O76      1.0000 0.28900  0.53200  0.23700  Biso   1.000  O
  O77      1.0000 0.03200  0.78900  0.73700  Biso   1.000  O
  O78      1.0000 0.78900  0.96800  0.26300  Biso   1.000  O
  O79      1.0000 0.96800  0.21100  0.73700  Biso   1.000  O
  O80      1.0000 0.21100  0.03200  0.26300  Biso   1.000  O
  N49      1.0000 0.30700  0.27300  0.65300  Biso   1.000  N
  N50      1.0000 0.72700  0.30700  0.34700  Biso   1.000  N
  N51      1.0000 0.69300  0.72700  0.65300  Biso   1.000  N
  N52      1.0000 0.27300  0.69300  0.34700  Biso   1.000  N
  N53      1.0000 0.19300  0.77300  0.84700  Biso   1.000  N
  N54      1.0000 0.77300  0.80700  0.15300  Biso   1.000  N
  N55      1.0000 0.80700  0.22700  0.84700  Biso   1.000  N
  N56      1.0000 0.22700  0.19300  0.15300  Biso   1.000  N
  C65      1.0000 0.58100  0.30500  0.59400  Biso   1.000  C
  C66      1.0000 0.69500  0.58100  0.40600  Biso   1.000  C
  C67      1.0000 0.41900  0.69500  0.59400  Biso   1.000  C
  C68      1.0000 0.30500  0.41900  0.40600  Biso   1.000  C
  C69      1.0000 0.91900  0.80500  0.90600  Biso   1.000  C
  C70      1.0000 0.80500  0.08100  0.09400  Biso   1.000  C
  C71      1.0000 0.08100  0.19500  0.90600  Biso   1.000  C
  C72      1.0000 0.19500  0.91900  0.09400  Biso   1.000  C
  C73      1.0000 0.52800  0.37000  0.59600  Biso   1.000  C
  C74      1.0000 0.63000  0.52800  0.40400  Biso   1.000  C
  C75      1.0000 0.47200  0.63000  0.59600  Biso   1.000  C
  C76      1.0000 0.37000  0.47200  0.40400  Biso   1.000  C
  C77      1.0000 0.97200  0.87000  0.90400  Biso   1.000  C
  C78      1.0000 0.87000  0.02800  0.09600  Biso   1.000  C
  C79      1.0000 0.02800  0.13000  0.90400  Biso   1.000  C
  C80      1.0000 0.13000  0.97200  0.09600  Biso   1.000  C
  N57      1.0000 0.44010  0.34030  0.59170  Biso   1.000  N
  N58      1.0000 0.65970  0.44010  0.40830  Biso   1.000  N
  N59      1.0000 0.55990  0.65970  0.59170  Biso   1.000  N
  N60      1.0000 0.34030  0.55990  0.40830  Biso   1.000  N
  N61      1.0000 0.05990  0.84030  0.90830  Biso   1.000  N
  N62      1.0000 0.84030  0.94010  0.09170  Biso   1.000  N
  N63      1.0000 0.94010  0.15970  0.90830  Biso   1.000  N
  N64      1.0000 0.15970  0.05990  0.09170  Biso   1.000  N
  C81      1.0000 0.37700  0.39700  0.60800  Biso   1.000  C
  C82      1.0000 0.60300  0.37700  0.39200  Biso   1.000  C
  C83      1.0000 0.62300  0.60300  0.60800  Biso   1.000  C
  C84      1.0000 0.39700  0.62300  0.39200  Biso   1.000  C
  C85      1.0000 0.12300  0.89700  0.89200  Biso   1.000  C
  C86      1.0000 0.89700  0.87700  0.10800  Biso   1.000  C
  C87      1.0000 0.87700  0.10300  0.89200  Biso   1.000  C
  C88      1.0000 0.10300  0.12300  0.10800  Biso   1.000  C
  C89      1.0000 0.30200  0.34400  0.61700  Biso   1.000  C
  C90      1.0000 0.65600  0.30200  0.38300  Biso   1.000  C
  C91      1.0000 0.69800  0.65600  0.61700  Biso   1.000  C
  C92      1.0000 0.34400  0.69800  0.38300  Biso   1.000  C
  C93      1.0000 0.19800  0.84400  0.88300  Biso   1.000  C
  C94      1.0000 0.84400  0.80200  0.11700  Biso   1.000  C
  C95      1.0000 0.80200  0.15600  0.88300  Biso   1.000  C
  C96      1.0000 0.15600  0.19800  0.11700  Biso   1.000  C
  N65      1.0000 0.55160  0.23890  0.64130  Biso   1.000  N
  N66      1.0000 0.76110  0.55160  0.35870  Biso   1.000  N
  N67      1.0000 0.44840  0.76110  0.64130  Biso   1.000  N
  N68      1.0000 0.23890  0.44840  0.35870  Biso   1.000  N
  N69      1.0000 0.94840  0.73890  0.85870  Biso   1.000  N
  N70      1.0000 0.73890  0.05160  0.14130  Biso   1.000  N
  N71      1.0000 0.05160  0.26110  0.85870  Biso   1.000  N
  N72      1.0000 0.26110  0.94840  0.14130  Biso   1.000  N
  O81      1.0000 0.20900  0.20800  0.44900  Biso   1.000  O
  O82      1.0000 0.79200  0.20900  0.55100  Biso   1.000  O
  O83      1.0000 0.79100  0.79200  0.44900  Biso   1.000  O
  O84      1.0000 0.20800  0.79100  0.55100  Biso   1.000  O
  O85      1.0000 0.29100  0.70800  0.05100  Biso   1.000  O
  O86      1.0000 0.70800  0.70900  0.94900  Biso   1.000  O
  O87      1.0000 0.70900  0.29200  0.05100  Biso   1.000  O
  O88      1.0000 0.29200  0.29100  0.94900  Biso   1.000  O
  O89      1.0000 0.25100  0.24900  0.28700  Biso   1.000  O
  O90      1.0000 0.75100  0.25100  0.71300  Biso   1.000  O
  O91      1.0000 0.74900  0.75100  0.28700  Biso   1.000  O
  O92      1.0000 0.24900  0.74900  0.71300  Biso   1.000  O
  O93      1.0000 0.24900  0.74900  0.21300  Biso   1.000  O
  O94      1.0000 0.74900  0.75100  0.78700  Biso   1.000  O
  O95      1.0000 0.75100  0.25100  0.21300  Biso   1.000  O
  O96      1.0000 0.25100  0.24900  0.78700  Biso   1.000  O
  O97      1.0000 0.43200  0.30900  0.29900  Biso   1.000  O
  O98      1.0000 0.69100  0.43200  0.70100  Biso   1.000  O
  O99      1.0000 0.56800  0.69100  0.29900  Biso   1.000  O
  O100     1.0000 0.30900  0.56800  0.70100  Biso   1.000  O
  O101     1.0000 0.06800  0.80900  0.20100  Biso   1.000  O
  O102     1.0000 0.80900  0.93200  0.79900  Biso   1.000  O
  O103     1.0000 0.93200  0.19100  0.20100  Biso   1.000  O
  O104     1.0000 0.19100  0.06800  0.79900  Biso   1.000  O
  O105     1.0000 0.04900  0.13500  0.27400  Biso   1.000  O
  O106     1.0000 0.86500  0.04900  0.72600  Biso   1.000  O
  O107     1.0000 0.95100  0.86500  0.27400  Biso   1.000  O
  O108     1.0000 0.13500  0.95100  0.72600  Biso   1.000  O
  O109     1.0000 0.45100  0.63500  0.22600  Biso   1.000  O
  O110     1.0000 0.63500  0.54900  0.77400  Biso   1.000  O
  O111     1.0000 0.54900  0.36500  0.22600  Biso   1.000  O
  O112     1.0000 0.36500  0.45100  0.77400  Biso   1.000  O
  O113     1.0000 0.34800  0.33100  0.20700  Biso   1.000  O
  O114     1.0000 0.66900  0.34800  0.79300  Biso   1.000  O
  O115     1.0000 0.65200  0.66900  0.20700  Biso   1.000  O
  O116     1.0000 0.33100  0.65200  0.79300  Biso   1.000  O
  O117     1.0000 0.15200  0.83100  0.29300  Biso   1.000  O
  O118     1.0000 0.83100  0.84800  0.70700  Biso   1.000  O
  O119     1.0000 0.84800  0.16900  0.29300  Biso   1.000  O
  O120     1.0000 0.16900  0.15200  0.70700  Biso   1.000  O
  H1       1.0000 0.62200  0.30500  0.62400  Biso   1.000  H
  H2       1.0000 0.69500  0.62200  0.37600  Biso   1.000  H
  H3       1.0000 0.37800  0.69500  0.62400  Biso   1.000  H
  H4       1.0000 0.30500  0.37800  0.37600  Biso   1.000  H
  H5       1.0000 0.87800  0.80500  0.87600  Biso   1.000  H
  H6       1.0000 0.80500  0.12200  0.12400  Biso   1.000  H
  H7       1.0000 0.12200  0.19500  0.87600  Biso   1.000  H
  H8       1.0000 0.19500  0.87800  0.12400  Biso   1.000  H
  H9       1.0000 0.59600  0.28000  0.55800  Biso   1.000  H
  H10      1.0000 0.72000  0.59600  0.44200  Biso   1.000  H
  H11      1.0000 0.40400  0.72000  0.55800  Biso   1.000  H
  H12      1.0000 0.28000  0.40400  0.44200  Biso   1.000  H
  H13      1.0000 0.90400  0.78000  0.94200  Biso   1.000  H
  H14      1.0000 0.78000  0.09600  0.05800  Biso   1.000  H
  H15      1.0000 0.09600  0.22000  0.94200  Biso   1.000  H
  H16      1.0000 0.22000  0.90400  0.05800  Biso   1.000  H
  H17      1.0000 0.53300  0.40200  0.63100  Biso   1.000  H
  H18      1.0000 0.59800  0.53300  0.36900  Biso   1.000  H
  H19      1.0000 0.46700  0.59800  0.63100  Biso   1.000  H
  H20      1.0000 0.40200  0.46700  0.36900  Biso   1.000  H
  H21      1.0000 0.96700  0.90200  0.86900  Biso   1.000  H
  H22      1.0000 0.90200  0.03300  0.13100  Biso   1.000  H
  H23      1.0000 0.03300  0.09800  0.86900  Biso   1.000  H
  H24      1.0000 0.09800  0.96700  0.13100  Biso   1.000  H
  H25      1.0000 0.53900  0.40400  0.56200  Biso   1.000  H
  H26      1.0000 0.59600  0.53900  0.43800  Biso   1.000  H
  H27      1.0000 0.46100  0.59600  0.56200  Biso   1.000  H
  H28      1.0000 0.40400  0.46100  0.43800  Biso   1.000  H
  H29      1.0000 0.96100  0.90400  0.93800  Biso   1.000  H
  H30      1.0000 0.90400  0.03900  0.06200  Biso   1.000  H
  H31      1.0000 0.03900  0.09600  0.93800  Biso   1.000  H
  H32      1.0000 0.09600  0.96100  0.06200  Biso   1.000  H
  H33      1.0000 0.39000  0.42300  0.64500  Biso   1.000  H
  H34      1.0000 0.57700  0.39000  0.35500  Biso   1.000  H
  H35      1.0000 0.61000  0.57700  0.64500  Biso   1.000  H
  H36      1.0000 0.42300  0.61000  0.35500  Biso   1.000  H
  H37      1.0000 0.11000  0.92300  0.85500  Biso   1.000  H
  H38      1.0000 0.92300  0.89000  0.14500  Biso   1.000  H
  H39      1.0000 0.89000  0.07700  0.85500  Biso   1.000  H
  H40      1.0000 0.07700  0.11000  0.14500  Biso   1.000  H
  H41      1.0000 0.36900  0.43900  0.57900  Biso   1.000  H
  H42      1.0000 0.56100  0.36900  0.42100  Biso   1.000  H
  H43      1.0000 0.63100  0.56100  0.57900  Biso   1.000  H
  H44      1.0000 0.43900  0.63100  0.42100  Biso   1.000  H
  H45      1.0000 0.13100  0.93900  0.92100  Biso   1.000  H
  H46      1.0000 0.93900  0.86900  0.07900  Biso   1.000  H
  H47      1.0000 0.86900  0.06100  0.92100  Biso   1.000  H
  H48      1.0000 0.06100  0.13100  0.07900  Biso   1.000  H
  H49      1.0000 0.26800  0.35200  0.65100  Biso   1.000  H
  H50      1.0000 0.64800  0.26800  0.34900  Biso   1.000  H
  H51      1.0000 0.73200  0.64800  0.65100  Biso   1.000  H
  H52      1.0000 0.35200  0.73200  0.34900  Biso   1.000  H
  H53      1.0000 0.23200  0.85200  0.84900  Biso   1.000  H
  H54      1.0000 0.85200  0.76800  0.15100  Biso   1.000  H
  H55      1.0000 0.76800  0.14800  0.84900  Biso   1.000  H
  H56      1.0000 0.14800  0.23200  0.15100  Biso   1.000  H
  H57      1.0000 0.27400  0.32800  0.58200  Biso   1.000  H
  H58      1.0000 0.67200  0.27400  0.41800  Biso   1.000  H
  H59      1.0000 0.72600  0.67200  0.58200  Biso   1.000  H
  H60      1.0000 0.32800  0.72600  0.41800  Biso   1.000  H
  H61      1.0000 0.22600  0.82800  0.91800  Biso   1.000  H
  H62      1.0000 0.82800  0.77400  0.08200  Biso   1.000  H
  H63      1.0000 0.77400  0.17200  0.91800  Biso   1.000  H
  H64      1.0000 0.17200  0.22600  0.08200  Biso   1.000  H
