data_image0
_cell_length_a       6.53
_cell_length_b       10.7663
_cell_length_c       12.0952
_cell_angle_alpha    107.814
_cell_angle_beta     93.019
_cell_angle_gamma    92.062

_symmetry_space_group_name_H-M    "P 1"
_symmetry_int_tables_number       1

loop_
  _symmetry_equiv_pos_as_xyz
  'x, y, z'

loop_
  _atom_site_label
  _atom_site_occupancy
  _atom_site_fract_x
  _atom_site_fract_y
  _atom_site_fract_z
  _atom_site_thermal_displace_type
  _atom_site_B_iso_or_equiv
  _atom_site_type_symbol
  C1       1.0000 0.53330  0.82098  0.26388  Biso   1.000  C
  C2       1.0000 0.46670  0.17902  0.73612  Biso   1.000  C
  H1       1.0000 0.39742  0.84129  0.25520  Biso   1.000  H
  H2       1.0000 0.60258  0.15871  0.74480  Biso   1.000  H
  C3       1.0000 0.61490  0.72906  0.17281  Biso   1.000  C
  C4       1.0000 0.38510  0.27094  0.82719  Biso   1.000  C
  H3       1.0000 0.53456  0.68886  0.10447  Biso   1.000  H
  H4       1.0000 0.46544  0.31114  0.89553  Biso   1.000  H
  C5       1.0000 0.81740  0.69701  0.18385  Biso   1.000  C
  C6       1.0000 0.18260  0.30299  0.81615  Biso   1.000  C
  C7       1.0000 0.93010  0.76193  0.28724  Biso   1.000  C
  C8       1.0000 0.06990  0.23807  0.71276  Biso   1.000  C
  H5       1.0000 0.06692  0.74444  0.29770  Biso   1.000  H
  H6       1.0000 0.93308  0.25556  0.70230  Biso   1.000  H
  C9       1.0000 0.83800  0.85279  0.37473  Biso   1.000  C
  C10      1.0000 0.16200  0.14721  0.62527  Biso   1.000  C
  H7       1.0000 0.91567  0.89516  0.44358  Biso   1.000  H
  H8       1.0000 0.08433  0.10484  0.55642  Biso   1.000  H
  C11      1.0000 0.91010  0.59593  0.08877  Biso   1.000  C
  C12      1.0000 0.08990  0.40407  0.91123  Biso   1.000  C
  C13      1.0000 0.94450  0.36558  0.97795  Biso   1.000  C
  C14      1.0000 0.05550  0.63442  0.02205  Biso   1.000  C
  C15      1.0000 0.85240  0.46349  0.06795  Biso   1.000  C
  C16      1.0000 0.14760  0.53651  0.93205  Biso   1.000  C
  C17      1.0000 0.70650  0.42069  0.13491  Biso   1.000  C
  C18      1.0000 0.29350  0.57931  0.86509  Biso   1.000  C
  H9       1.0000 0.64554  0.48241  0.19367  Biso   1.000  H
  H10      1.0000 0.35446  0.51759  0.80633  Biso   1.000  H
  C19      1.0000 0.65550  0.29209  0.11435  Biso   1.000  C
  C20      1.0000 0.34450  0.70791  0.88565  Biso   1.000  C
  H11      1.0000 0.55914  0.26694  0.15843  Biso   1.000  H
  H12      1.0000 0.44086  0.73306  0.84157  Biso   1.000  H
  C21      1.0000 0.74730  0.19573  0.02657  Biso   1.000  C
  C22      1.0000 0.25270  0.80427  0.97343  Biso   1.000  C
  H13      1.0000 0.71170  0.10779  0.01375  Biso   1.000  H
  H14      1.0000 0.28830  0.89221  0.98625  Biso   1.000  H
  C23      1.0000 0.88760  0.23110  0.96074  Biso   1.000  C
  C24      1.0000 0.11240  0.76890  0.03926  Biso   1.000  C
  H15      1.0000 0.94734  0.16673  0.90363  Biso   1.000  H
  H16      1.0000 0.05266  0.83327  0.09637  Biso   1.000  H
  C25      1.0000 0.28720  0.14797  0.34628  Biso   1.000  C
  C26      1.0000 0.71280  0.85203  0.65372  Biso   1.000  C
  C27      1.0000 0.43780  0.25066  0.38883  Biso   1.000  C
  C28      1.0000 0.56220  0.74934  0.61117  Biso   1.000  C
  H17      1.0000 0.42082  0.32626  0.36819  Biso   1.000  H
  H18      1.0000 0.57918  0.67374  0.63181  Biso   1.000  H
  C29      1.0000 0.60930  0.24671  0.45931  Biso   1.000  C
  C30      1.0000 0.39070  0.75329  0.54069  Biso   1.000  C
  C31      1.0000 0.75550  0.36923  0.49946  Biso   1.000  C
  C32      1.0000 0.24450  0.63077  0.50054  Biso   1.000  C
  C33      1.0000 0.12640  0.16174  0.25344  Biso   1.000  C
  C34      1.0000 0.87360  0.83826  0.74656  Biso   1.000  C
  Cu1      1.0000 0.50000  0.00000  0.50000  Biso   1.000  Cu
  F1       1.0000 0.94303  0.11141  0.26397  Biso   1.000  F
  F2       1.0000 0.05697  0.88859  0.73603  Biso   1.000  F
  F3       1.0000 0.18390  0.09612  0.14780  Biso   1.000  F
  F4       1.0000 0.81610  0.90388  0.85220  Biso   1.000  F
  F5       1.0000 0.10520  0.28430  0.25412  Biso   1.000  F
  F6       1.0000 0.89480  0.71570  0.74588  Biso   1.000  F
  F7       1.0000 0.73050  0.43339  0.61140  Biso   1.000  F
  F8       1.0000 0.26950  0.56661  0.38860  Biso   1.000  F
  F9       1.0000 0.72370  0.45326  0.44012  Biso   1.000  F
  F10      1.0000 0.27630  0.54674  0.55988  Biso   1.000  F
  F11      1.0000 0.95117  0.33910  0.49267  Biso   1.000  F
  F12      1.0000 0.04883  0.66090  0.50733  Biso   1.000  F
  N1       1.0000 0.64240  0.88226  0.36452  Biso   1.000  N
  N2       1.0000 0.35760  0.11774  0.63548  Biso   1.000  N
  O1       1.0000 0.66827  0.15776  0.49948  Biso   1.000  O
  O2       1.0000 0.33173  0.84224  0.50052  Biso   1.000  O
  O3       1.0000 0.27007  0.04401  0.36953  Biso   1.000  O
  O4       1.0000 0.72993  0.95599  0.63047  Biso   1.000  O
