data_image0
_cell_length_a       5.0957
_cell_length_b       23.0889
_cell_length_c       13.231
_cell_angle_alpha    90
_cell_angle_beta     94.99
_cell_angle_gamma    90

_symmetry_space_group_name_H-M    "P 1"
_symmetry_int_tables_number       1

loop_
  _symmetry_equiv_pos_as_xyz
  'x, y, z'

loop_
  _atom_site_label
  _atom_site_occupancy
  _atom_site_fract_x
  _atom_site_fract_y
  _atom_site_fract_z
  _atom_site_thermal_displace_type
  _atom_site_B_iso_or_equiv
  _atom_site_type_symbol
  O1       1.0000 0.23380  0.50767  0.12318  Biso   1.000  O
  O2       1.0000 0.76620  0.00767  0.37682  Biso   1.000  O
  O3       1.0000 0.76620  0.49233  0.87682  Biso   1.000  O
  O4       1.0000 0.23380  0.99233  0.62318  Biso   1.000  O
  C1       1.0000 0.80920  0.59220  0.12187  Biso   1.000  C
  C2       1.0000 0.19080  0.09220  0.37813  Biso   1.000  C
  C3       1.0000 0.19080  0.40780  0.87813  Biso   1.000  C
  C4       1.0000 0.80920  0.90780  0.62187  Biso   1.000  C
  H1       1.0000 0.69400  0.62270  0.13070  Biso   1.000  H
  H2       1.0000 0.30600  0.12270  0.36930  Biso   1.000  H
  H3       1.0000 0.30600  0.37730  0.86930  Biso   1.000  H
  H4       1.0000 0.69400  0.87730  0.63070  Biso   1.000  H
  N1       1.0000 0.82700  0.57479  0.03058  Biso   1.000  N
  N2       1.0000 0.17300  0.07479  0.46942  Biso   1.000  N
  N3       1.0000 0.17300  0.42521  0.96942  Biso   1.000  N
  N4       1.0000 0.82700  0.92521  0.53058  Biso   1.000  N
  C5       1.0000 0.69700  0.61186  0.94955  Biso   1.000  C
  C6       1.0000 0.30300  0.11186  0.55045  Biso   1.000  C
  C7       1.0000 0.30300  0.38814  0.05045  Biso   1.000  C
  C8       1.0000 0.69700  0.88814  0.44955  Biso   1.000  C
  H5       1.0000 0.76860  0.60270  0.88590  Biso   1.000  H
  H6       1.0000 0.23140  0.10270  0.61410  Biso   1.000  H
  H7       1.0000 0.23140  0.39730  0.11410  Biso   1.000  H
  H8       1.0000 0.76860  0.89730  0.38590  Biso   1.000  H
  H9       1.0000 0.73830  0.65210  0.96520  Biso   1.000  H
  H10      1.0000 0.26170  0.15210  0.53480  Biso   1.000  H
  H11      1.0000 0.26170  0.34790  0.03480  Biso   1.000  H
  H12      1.0000 0.73830  0.84790  0.46520  Biso   1.000  H
  O5       1.0000 0.31490  0.55007  0.89762  Biso   1.000  O
  O6       1.0000 0.68510  0.05007  0.60238  Biso   1.000  O
  O7       1.0000 0.68510  0.44993  0.10238  Biso   1.000  O
  O8       1.0000 0.31490  0.94993  0.39762  Biso   1.000  O
  H13      1.0000 0.44310  0.53080  0.88480  Biso   1.000  H
  H14      1.0000 0.55690  0.03080  0.61520  Biso   1.000  H
  H15      1.0000 0.55690  0.46920  0.11520  Biso   1.000  H
  H16      1.0000 0.44310  0.96920  0.38480  Biso   1.000  H
  C9       1.0000 0.40020  0.60478  0.93635  Biso   1.000  C
  C10      1.0000 0.59980  0.10478  0.56365  Biso   1.000  C
  C11      1.0000 0.59980  0.39522  0.06365  Biso   1.000  C
  C12      1.0000 0.40020  0.89522  0.43635  Biso   1.000  C
  H17      1.0000 0.33060  0.61060  0.00150  Biso   1.000  H
  H18      1.0000 0.66940  0.11060  0.49850  Biso   1.000  H
  H19      1.0000 0.66940  0.38940  0.99850  Biso   1.000  H
  H20      1.0000 0.33060  0.88940  0.50150  Biso   1.000  H
  H21      1.0000 0.32700  0.63470  0.89080  Biso   1.000  H
  H22      1.0000 0.67300  0.13470  0.60920  Biso   1.000  H
  H23      1.0000 0.67300  0.36530  0.10920  Biso   1.000  H
  H24      1.0000 0.32700  0.86530  0.39080  Biso   1.000  H
  Cu1      1.0000 0.00000  0.50000  0.00000  Biso   1.000  Cu
  Cu2      1.0000 0.00000  0.00000  0.50000  Biso   1.000  Cu
  S1       1.0000 0.99471  0.63360  0.68812  Biso   1.000  S
  S2       1.0000 0.00529  0.13360  0.81188  Biso   1.000  S
  S3       1.0000 0.00529  0.36640  0.31188  Biso   1.000  S
  S4       1.0000 0.99471  0.86640  0.18812  Biso   1.000  S
  S5       1.0000 0.62695  0.73723  0.78004  Biso   1.000  S
  S6       1.0000 0.37305  0.23723  0.71996  Biso   1.000  S
  S7       1.0000 0.37305  0.26277  0.21996  Biso   1.000  S
  S8       1.0000 0.62695  0.76277  0.28004  Biso   1.000  S
  S9       1.0000 0.73168  0.65815  0.48589  Biso   1.000  S
  S10      1.0000 0.26832  0.15815  0.01411  Biso   1.000  S
  S11      1.0000 0.26832  0.34185  0.51411  Biso   1.000  S
  S12      1.0000 0.73168  0.84185  0.98589  Biso   1.000  S
  S13      1.0000 0.37272  0.75410  0.57306  Biso   1.000  S
  S14      1.0000 0.62728  0.25410  0.92694  Biso   1.000  S
  S15      1.0000 0.62728  0.24590  0.42694  Biso   1.000  S
  S16      1.0000 0.37272  0.74590  0.07306  Biso   1.000  S
  C13      1.0000 0.16300  0.52955  0.20801  Biso   1.000  C
  C14      1.0000 0.83700  0.02955  0.29199  Biso   1.000  C
  C15      1.0000 0.83700  0.47045  0.79199  Biso   1.000  C
  C16      1.0000 0.16300  0.97045  0.70801  Biso   1.000  C
  C17      1.0000 0.89470  0.59253  0.30571  Biso   1.000  C
  C18      1.0000 0.10530  0.09253  0.19429  Biso   1.000  C
  C19      1.0000 0.10530  0.40747  0.69429  Biso   1.000  C
  C20      1.0000 0.89470  0.90747  0.80571  Biso   1.000  C
  H25      1.0000 0.75630  0.61870  0.30700  Biso   1.000  H
  H26      1.0000 0.24370  0.11870  0.19300  Biso   1.000  H
  H27      1.0000 0.24370  0.38130  0.69300  Biso   1.000  H
  H28      1.0000 0.75630  0.88130  0.80700  Biso   1.000  H
  C21      1.0000 0.95090  0.56901  0.21194  Biso   1.000  C
  C22      1.0000 0.04910  0.06901  0.28806  Biso   1.000  C
  C23      1.0000 0.04910  0.43099  0.78806  Biso   1.000  C
  C24      1.0000 0.95090  0.93099  0.71194  Biso   1.000  C
  C25      1.0000 0.75840  0.67452  0.61551  Biso   1.000  C
  C26      1.0000 0.24160  0.17452  0.88449  Biso   1.000  C
  C27      1.0000 0.24160  0.32548  0.38449  Biso   1.000  C
  C28      1.0000 0.75840  0.82548  0.11551  Biso   1.000  C
  C29      1.0000 0.09110  0.59465  0.58509  Biso   1.000  C
  C30      1.0000 0.90890  0.09465  0.91491  Biso   1.000  C
  C31      1.0000 0.90890  0.40535  0.41491  Biso   1.000  C
  C32      1.0000 0.09110  0.90535  0.08509  Biso   1.000  C
  H29      1.0000 0.22190  0.56660  0.59480  Biso   1.000  H
  H30      1.0000 0.77810  0.06660  0.90520  Biso   1.000  H
  H31      1.0000 0.77810  0.43340  0.40520  Biso   1.000  H
  H32      1.0000 0.22190  0.93340  0.09480  Biso   1.000  H
  C33      1.0000 0.60760  0.71580  0.65213  Biso   1.000  C
  C34      1.0000 0.39240  0.21580  0.84787  Biso   1.000  C
  C35      1.0000 0.39240  0.28420  0.34787  Biso   1.000  C
  C36      1.0000 0.60760  0.78420  0.15213  Biso   1.000  C
  C37      1.0000 0.03670  0.57837  0.39592  Biso   1.000  C
  C38      1.0000 0.96330  0.07837  0.10408  Biso   1.000  C
  C39      1.0000 0.96330  0.42163  0.60408  Biso   1.000  C
  C40      1.0000 0.03670  0.92163  0.89592  Biso   1.000  C
  C41      1.0000 0.30780  0.51567  0.30031  Biso   1.000  C
  C42      1.0000 0.69220  0.01567  0.19969  Biso   1.000  C
  C43      1.0000 0.69220  0.48433  0.69969  Biso   1.000  C
  C44      1.0000 0.30780  0.98433  0.80031  Biso   1.000  C
  H33      1.0000 0.44830  0.49000  0.30010  Biso   1.000  H
  H34      1.0000 0.55170  0.99000  0.19990  Biso   1.000  H
  H35      1.0000 0.55170  0.51000  0.69990  Biso   1.000  H
  H36      1.0000 0.44830  0.01000  0.80010  Biso   1.000  H
  C45      1.0000 0.34760  0.78065  0.76523  Biso   1.000  C
  C46      1.0000 0.65240  0.28065  0.73477  Biso   1.000  C
  C47      1.0000 0.65240  0.21935  0.23477  Biso   1.000  C
  C48      1.0000 0.34760  0.71935  0.26523  Biso   1.000  C
  H37      1.0000 0.28030  0.79810  0.82090  Biso   1.000  H
  H38      1.0000 0.71970  0.29810  0.67910  Biso   1.000  H
  H39      1.0000 0.71970  0.20190  0.17910  Biso   1.000  H
  H40      1.0000 0.28030  0.70190  0.32090  Biso   1.000  H
  C49      1.0000 0.24650  0.53915  0.39083  Biso   1.000  C
  C50      1.0000 0.75350  0.03915  0.10917  Biso   1.000  C
  C51      1.0000 0.75350  0.46085  0.60917  Biso   1.000  C
  C52      1.0000 0.24650  0.96085  0.89083  Biso   1.000  C
  H41      1.0000 0.34640  0.52880  0.45030  Biso   1.000  H
  H42      1.0000 0.65360  0.02880  0.04970  Biso   1.000  H
  H43      1.0000 0.65360  0.47120  0.54970  Biso   1.000  H
  H44      1.0000 0.34640  0.97120  0.95030  Biso   1.000  H
  C53      1.0000 0.23380  0.78815  0.67272  Biso   1.000  C
  C54      1.0000 0.76620  0.28815  0.82728  Biso   1.000  C
  C55      1.0000 0.76620  0.21185  0.32728  Biso   1.000  C
  C56      1.0000 0.23380  0.71185  0.17272  Biso   1.000  C
  H45      1.0000 0.08390  0.81100  0.66120  Biso   1.000  H
  H46      1.0000 0.91610  0.31100  0.83880  Biso   1.000  H
  H47      1.0000 0.91610  0.18900  0.33880  Biso   1.000  H
  H48      1.0000 0.08390  0.68900  0.16120  Biso   1.000  H
  C57      1.0000 0.97810  0.60485  0.49252  Biso   1.000  C
  C58      1.0000 0.02190  0.10485  0.00748  Biso   1.000  C
  C59      1.0000 0.02190  0.39515  0.50748  Biso   1.000  C
  C60      1.0000 0.97810  0.89515  0.99252  Biso   1.000  C
