data_image0
_cell_length_a       8.0318
_cell_length_b       12.6586
_cell_length_c       24.387
_cell_angle_alpha    90
_cell_angle_beta     90
_cell_angle_gamma    90

_symmetry_space_group_name_H-M    "P 1"
_symmetry_int_tables_number       1

loop_
  _symmetry_equiv_pos_as_xyz
  'x, y, z'

loop_
  _atom_site_label
  _atom_site_occupancy
  _atom_site_fract_x
  _atom_site_fract_y
  _atom_site_fract_z
  _atom_site_thermal_displace_type
  _atom_site_B_iso_or_equiv
  _atom_site_type_symbol
  Cu1      1.0000 0.36276  0.27232  0.28453  Biso   1.000  Cu
  Cu2      1.0000 0.63724  0.72768  0.78453  Biso   1.000  Cu
  Cu3      1.0000 0.86276  0.72768  0.28453  Biso   1.000  Cu
  Cu4      1.0000 0.13724  0.27232  0.78453  Biso   1.000  Cu
  O1       1.0000 0.54260  0.34610  0.32261  Biso   1.000  O
  O2       1.0000 0.45740  0.65390  0.82261  Biso   1.000  O
  O3       1.0000 0.04260  0.65390  0.32261  Biso   1.000  O
  O4       1.0000 0.95740  0.34610  0.82261  Biso   1.000  O
  O5       1.0000 0.68560  0.25940  0.25805  Biso   1.000  O
  O6       1.0000 0.31440  0.74060  0.75805  Biso   1.000  O
  O7       1.0000 0.18560  0.74060  0.25805  Biso   1.000  O
  O8       1.0000 0.81440  0.25940  0.75805  Biso   1.000  O
  N1       1.0000 0.32710  0.36800  0.22000  Biso   1.000  N
  N2       1.0000 0.67290  0.63200  0.72000  Biso   1.000  N
  N3       1.0000 0.82710  0.63200  0.22000  Biso   1.000  N
  N4       1.0000 0.17290  0.36800  0.72000  Biso   1.000  N
  N5       1.0000 0.26640  0.17350  0.23330  Biso   1.000  N
  N6       1.0000 0.73360  0.82650  0.73330  Biso   1.000  N
  N7       1.0000 0.76640  0.82650  0.23330  Biso   1.000  N
  N8       1.0000 0.23360  0.17350  0.73330  Biso   1.000  N
  N9       1.0000 0.37360  0.13730  0.32890  Biso   1.000  N
  N10      1.0000 0.62640  0.86270  0.82890  Biso   1.000  N
  N11      1.0000 0.87360  0.86270  0.32890  Biso   1.000  N
  N12      1.0000 0.12640  0.13730  0.82890  Biso   1.000  N
  N13      1.0000 0.13790  0.32860  0.32980  Biso   1.000  N
  N14      1.0000 0.86210  0.67140  0.82980  Biso   1.000  N
  N15      1.0000 0.63790  0.67140  0.32980  Biso   1.000  N
  N16      1.0000 0.36210  0.32860  0.82980  Biso   1.000  N
  C1       1.0000 0.25550  0.32210  0.17510  Biso   1.000  C
  C2       1.0000 0.74450  0.67790  0.67510  Biso   1.000  C
  C3       1.0000 0.75550  0.67790  0.17510  Biso   1.000  C
  C4       1.0000 0.24450  0.32210  0.67510  Biso   1.000  C
  C5       1.0000 0.22250  0.37810  0.12810  Biso   1.000  C
  C6       1.0000 0.77750  0.62190  0.62810  Biso   1.000  C
  C7       1.0000 0.72250  0.62190  0.12810  Biso   1.000  C
  C8       1.0000 0.27750  0.37810  0.62810  Biso   1.000  C
  H1       1.0000 0.17180  0.34510  0.09840  Biso   1.000  H
  H2       1.0000 0.82820  0.65490  0.59840  Biso   1.000  H
  H3       1.0000 0.67180  0.65490  0.09840  Biso   1.000  H
  H4       1.0000 0.32820  0.34510  0.59840  Biso   1.000  H
  C9       1.0000 0.26450  0.48280  0.12510  Biso   1.000  C
  C10      1.0000 0.73550  0.51720  0.62510  Biso   1.000  C
  C11      1.0000 0.76450  0.51720  0.12510  Biso   1.000  C
  C12      1.0000 0.23550  0.48280  0.62510  Biso   1.000  C
  H5       1.0000 0.24900  0.52080  0.09290  Biso   1.000  H
  H6       1.0000 0.75100  0.47920  0.59290  Biso   1.000  H
  H7       1.0000 0.74900  0.47920  0.09290  Biso   1.000  H
  H8       1.0000 0.25100  0.52080  0.59290  Biso   1.000  H
  C13      1.0000 0.32990  0.53010  0.17080  Biso   1.000  C
  C14      1.0000 0.67010  0.46990  0.67080  Biso   1.000  C
  C15      1.0000 0.82990  0.46990  0.17080  Biso   1.000  C
  C16      1.0000 0.17010  0.53010  0.67080  Biso   1.000  C
  H9       1.0000 0.35140  0.60230  0.17090  Biso   1.000  H
  H10      1.0000 0.64860  0.39770  0.67090  Biso   1.000  H
  H11      1.0000 0.85140  0.39770  0.17090  Biso   1.000  H
  H12      1.0000 0.14860  0.60230  0.67090  Biso   1.000  H
  C17      1.0000 0.36320  0.47020  0.21620  Biso   1.000  C
  C18      1.0000 0.63680  0.52980  0.71620  Biso   1.000  C
  C19      1.0000 0.86320  0.52980  0.21620  Biso   1.000  C
  C20      1.0000 0.13680  0.47020  0.71620  Biso   1.000  C
  H13      1.0000 0.41400  0.50270  0.24600  Biso   1.000  H
  H14      1.0000 0.58600  0.49730  0.74600  Biso   1.000  H
  H15      1.0000 0.91400  0.49730  0.24600  Biso   1.000  H
  H16      1.0000 0.08600  0.50270  0.74600  Biso   1.000  H
  C21      1.0000 0.21650  0.20740  0.18290  Biso   1.000  C
  C22      1.0000 0.78350  0.79260  0.68290  Biso   1.000  C
  C23      1.0000 0.71650  0.79260  0.18290  Biso   1.000  C
  C24      1.0000 0.28350  0.20740  0.68290  Biso   1.000  C
  C25      1.0000 0.14430  0.14020  0.14610  Biso   1.000  C
  C26      1.0000 0.85570  0.85980  0.64610  Biso   1.000  C
  C27      1.0000 0.64430  0.85980  0.14610  Biso   1.000  C
  C28      1.0000 0.35570  0.14020  0.64610  Biso   1.000  C
  H17      1.0000 0.10710  0.16530  0.11250  Biso   1.000  H
  H18      1.0000 0.89290  0.83470  0.61250  Biso   1.000  H
  H19      1.0000 0.60710  0.83470  0.11250  Biso   1.000  H
  H20      1.0000 0.39290  0.16530  0.61250  Biso   1.000  H
  C29      1.0000 0.12700  0.03420  0.15940  Biso   1.000  C
  C30      1.0000 0.87300  0.96580  0.65940  Biso   1.000  C
  C31      1.0000 0.62700  0.96580  0.15940  Biso   1.000  C
  C32      1.0000 0.37300  0.03420  0.65940  Biso   1.000  C
  C33      1.0000 0.17960  0.00060  0.21090  Biso   1.000  C
  C34      1.0000 0.82040  0.99940  0.71090  Biso   1.000  C
  C35      1.0000 0.67960  0.99940  0.21090  Biso   1.000  C
  C36      1.0000 0.32040  0.00060  0.71090  Biso   1.000  C
  H21      1.0000 0.16800  0.93010  0.22090  Biso   1.000  H
  H22      1.0000 0.83200  0.06990  0.72090  Biso   1.000  H
  H23      1.0000 0.66800  0.06990  0.22090  Biso   1.000  H
  H24      1.0000 0.33200  0.93010  0.72090  Biso   1.000  H
  C37      1.0000 0.24880  0.07170  0.24700  Biso   1.000  C
  C38      1.0000 0.75120  0.92830  0.74700  Biso   1.000  C
  C39      1.0000 0.74880  0.92830  0.24700  Biso   1.000  C
  C40      1.0000 0.25120  0.07170  0.74700  Biso   1.000  C
  C41      1.0000 0.31230  0.05130  0.30300  Biso   1.000  C
  C42      1.0000 0.68770  0.94870  0.80300  Biso   1.000  C
  C43      1.0000 0.81230  0.94870  0.30300  Biso   1.000  C
  C44      1.0000 0.18770  0.05130  0.80300  Biso   1.000  C
  C45      1.0000 0.31020  0.95290  0.32700  Biso   1.000  C
  C46      1.0000 0.68980  0.04710  0.82700  Biso   1.000  C
  C47      1.0000 0.81020  0.04710  0.32700  Biso   1.000  C
  C48      1.0000 0.18980  0.95290  0.82700  Biso   1.000  C
  H25      1.0000 0.27130  0.89420  0.30800  Biso   1.000  H
  H26      1.0000 0.72870  0.10580  0.80800  Biso   1.000  H
  H27      1.0000 0.77130  0.10580  0.30800  Biso   1.000  H
  H28      1.0000 0.22870  0.89420  0.80800  Biso   1.000  H
  C49      1.0000 0.36830  0.94380  0.38110  Biso   1.000  C
  C50      1.0000 0.63170  0.05620  0.88110  Biso   1.000  C
  C51      1.0000 0.86830  0.05620  0.38110  Biso   1.000  C
  C52      1.0000 0.13170  0.94380  0.88110  Biso   1.000  C
  H29      1.0000 0.36820  0.87860  0.39870  Biso   1.000  H
  H30      1.0000 0.63180  0.12140  0.89870  Biso   1.000  H
  H31      1.0000 0.86820  0.12140  0.39870  Biso   1.000  H
  H32      1.0000 0.13180  0.87860  0.89870  Biso   1.000  H
  C53      1.0000 0.42470  0.03130  0.40720  Biso   1.000  C
  C54      1.0000 0.57530  0.96870  0.90720  Biso   1.000  C
  C55      1.0000 0.92470  0.96870  0.40720  Biso   1.000  C
  C56      1.0000 0.07530  0.03130  0.90720  Biso   1.000  C
  H33      1.0000 0.46140  0.02690  0.44330  Biso   1.000  H
  H34      1.0000 0.53860  0.97310  0.94330  Biso   1.000  H
  H35      1.0000 0.96140  0.97310  0.44330  Biso   1.000  H
  H36      1.0000 0.03860  0.02690  0.94330  Biso   1.000  H
  C57      1.0000 0.42730  0.12740  0.38000  Biso   1.000  C
  C58      1.0000 0.57270  0.87260  0.88000  Biso   1.000  C
  C59      1.0000 0.92730  0.87260  0.38000  Biso   1.000  C
  C60      1.0000 0.07270  0.12740  0.88000  Biso   1.000  C
  H37      1.0000 0.46800  0.18660  0.39810  Biso   1.000  H
  H38      1.0000 0.53200  0.81340  0.89810  Biso   1.000  H
  H39      1.0000 0.96800  0.81340  0.39810  Biso   1.000  H
  H40      1.0000 0.03200  0.18660  0.89810  Biso   1.000  H
  C61      1.0000 0.05270  0.95950  0.11910  Biso   1.000  C
  C62      1.0000 0.94730  0.04050  0.61910  Biso   1.000  C
  C63      1.0000 0.55270  0.04050  0.11910  Biso   1.000  C
  C64      1.0000 0.44730  0.95950  0.61910  Biso   1.000  C
  C65      1.0000 0.95230  0.99590  0.07650  Biso   1.000  C
  C66      1.0000 0.04770  0.00410  0.57650  Biso   1.000  C
  C67      1.0000 0.45230  0.00410  0.07650  Biso   1.000  C
  C68      1.0000 0.54770  0.99590  0.57650  Biso   1.000  C
  H41      1.0000 0.92690  0.06750  0.07410  Biso   1.000  H
  H42      1.0000 0.07310  0.93250  0.57410  Biso   1.000  H
  H43      1.0000 0.42690  0.93250  0.07410  Biso   1.000  H
  H44      1.0000 0.57310  0.06750  0.57410  Biso   1.000  H
  C69      1.0000 0.89070  0.92770  0.03810  Biso   1.000  C
  C70      1.0000 0.10930  0.07230  0.53810  Biso   1.000  C
  C71      1.0000 0.39070  0.07230  0.03810  Biso   1.000  C
  C72      1.0000 0.60930  0.92770  0.53810  Biso   1.000  C
  H45      1.0000 0.82320  0.95280  0.01000  Biso   1.000  H
  H46      1.0000 0.17680  0.04720  0.51000  Biso   1.000  H
  H47      1.0000 0.32320  0.04720  0.01000  Biso   1.000  H
  H48      1.0000 0.67680  0.95280  0.51000  Biso   1.000  H
  C73      1.0000 0.92910  0.81960  0.04100  Biso   1.000  C
  C74      1.0000 0.07090  0.18040  0.54100  Biso   1.000  C
  C75      1.0000 0.42910  0.18040  0.04100  Biso   1.000  C
  C76      1.0000 0.57090  0.81960  0.54100  Biso   1.000  C
  H49      1.0000 0.88410  0.77200  0.01610  Biso   1.000  H
  H50      1.0000 0.11590  0.22800  0.51610  Biso   1.000  H
  H51      1.0000 0.38410  0.22800  0.01610  Biso   1.000  H
  H52      1.0000 0.61590  0.77200  0.51610  Biso   1.000  H
  C77      1.0000 0.03220  0.78690  0.08070  Biso   1.000  C
  C78      1.0000 0.96780  0.21310  0.58070  Biso   1.000  C
  C79      1.0000 0.53220  0.21310  0.08070  Biso   1.000  C
  C80      1.0000 0.46780  0.78690  0.58070  Biso   1.000  C
  H53      1.0000 0.06370  0.71630  0.08150  Biso   1.000  H
  H54      1.0000 0.93630  0.28370  0.58150  Biso   1.000  H
  H55      1.0000 0.56370  0.28370  0.08150  Biso   1.000  H
  H56      1.0000 0.43630  0.71630  0.58150  Biso   1.000  H
  C81      1.0000 0.09180  0.85250  0.11940  Biso   1.000  C
  C82      1.0000 0.90820  0.14750  0.61940  Biso   1.000  C
  C83      1.0000 0.59180  0.14750  0.11940  Biso   1.000  C
  C84      1.0000 0.40820  0.85250  0.61940  Biso   1.000  C
  H57      1.0000 0.16040  0.82580  0.14680  Biso   1.000  H
  H58      1.0000 0.83960  0.17420  0.64680  Biso   1.000  H
  H59      1.0000 0.66040  0.17420  0.14680  Biso   1.000  H
  H60      1.0000 0.33960  0.82580  0.64680  Biso   1.000  H
  C85      1.0000 0.83900  0.33890  0.32950  Biso   1.000  C
  C86      1.0000 0.16100  0.66110  0.82950  Biso   1.000  C
  C87      1.0000 0.33900  0.66110  0.32950  Biso   1.000  C
  C88      1.0000 0.66100  0.33890  0.82950  Biso   1.000  C
  C89      1.0000 0.99100  0.31300  0.30610  Biso   1.000  C
  C90      1.0000 0.00900  0.68700  0.80610  Biso   1.000  C
  C91      1.0000 0.49100  0.68700  0.30610  Biso   1.000  C
  C92      1.0000 0.50900  0.31300  0.80610  Biso   1.000  C
  H61      1.0000 0.99000  0.28250  0.27140  Biso   1.000  H
  H62      1.0000 0.01000  0.71750  0.77140  Biso   1.000  H
  H63      1.0000 0.49000  0.71750  0.27140  Biso   1.000  H
  H64      1.0000 0.51000  0.28250  0.77140  Biso   1.000  H
  C93      1.0000 0.14110  0.37180  0.37960  Biso   1.000  C
  C94      1.0000 0.85890  0.62820  0.87960  Biso   1.000  C
  C95      1.0000 0.64110  0.62820  0.37960  Biso   1.000  C
  C96      1.0000 0.35890  0.37180  0.87960  Biso   1.000  C
  H65      1.0000 0.24280  0.38250  0.39700  Biso   1.000  H
  H66      1.0000 0.75720  0.61750  0.89700  Biso   1.000  H
  H67      1.0000 0.74280  0.61750  0.39700  Biso   1.000  H
  H68      1.0000 0.25720  0.38250  0.89700  Biso   1.000  H
  C97      1.0000 0.99570  0.40090  0.40580  Biso   1.000  C
  C98      1.0000 0.00430  0.59910  0.90580  Biso   1.000  C
  C99      1.0000 0.49570  0.59910  0.40580  Biso   1.000  C
  C100     1.0000 0.50430  0.40090  0.90580  Biso   1.000  C
  H69      1.0000 0.00070  0.43270  0.44010  Biso   1.000  H
  H70      1.0000 0.99930  0.56730  0.94010  Biso   1.000  H
  H71      1.0000 0.50070  0.56730  0.44010  Biso   1.000  H
  H72      1.0000 0.49930  0.43270  0.94010  Biso   1.000  H
  C101     1.0000 0.84370  0.38330  0.38150  Biso   1.000  C
  C102     1.0000 0.15630  0.61670  0.88150  Biso   1.000  C
  C103     1.0000 0.34370  0.61670  0.38150  Biso   1.000  C
  C104     1.0000 0.65630  0.38330  0.88150  Biso   1.000  C
  H73      1.0000 0.74560  0.40090  0.39960  Biso   1.000  H
  H74      1.0000 0.25440  0.59910  0.89960  Biso   1.000  H
  H75      1.0000 0.24560  0.59910  0.39960  Biso   1.000  H
  H76      1.0000 0.75440  0.40090  0.89960  Biso   1.000  H
  C105     1.0000 0.67670  0.31290  0.30050  Biso   1.000  C
  C106     1.0000 0.32330  0.68710  0.80050  Biso   1.000  C
  C107     1.0000 0.17670  0.68710  0.30050  Biso   1.000  C
  C108     1.0000 0.82330  0.31290  0.80050  Biso   1.000  C
  Cl1      1.0000 0.58400  0.30127  0.50517  Biso   1.000  Cl
  Cl2      1.0000 0.41600  0.69873  0.00517  Biso   1.000  Cl
  Cl3      1.0000 0.08400  0.69873  0.50517  Biso   1.000  Cl
  Cl4      1.0000 0.91600  0.30127  0.00517  Biso   1.000  Cl
  O9       1.0000 0.66840  0.22260  0.47550  Biso   1.000  O
  O10      1.0000 0.33160  0.77740  0.97550  Biso   1.000  O
  O11      1.0000 0.16840  0.77740  0.47550  Biso   1.000  O
  O12      1.0000 0.83160  0.22260  0.97550  Biso   1.000  O
  O13      1.0000 0.56350  0.26300  0.55950  Biso   1.000  O
  O14      1.0000 0.43650  0.73700  0.05950  Biso   1.000  O
  O15      1.0000 0.06350  0.73700  0.55950  Biso   1.000  O
  O16      1.0000 0.93650  0.26300  0.05950  Biso   1.000  O
  O17      1.0000 0.71470  0.38660  0.50540  Biso   1.000  O
  O18      1.0000 0.28530  0.61340  0.00540  Biso   1.000  O
  O19      1.0000 0.21470  0.61340  0.50540  Biso   1.000  O
  O20      1.0000 0.78530  0.38660  0.00540  Biso   1.000  O
  O21      1.0000 0.45050  0.34720  0.47840  Biso   1.000  O
  O22      1.0000 0.54950  0.65280  0.97840  Biso   1.000  O
  O23      1.0000 0.95050  0.65280  0.47840  Biso   1.000  O
  O24      1.0000 0.04950  0.34720  0.97840  Biso   1.000  O
  O25      1.0000 0.60360  0.29650  0.56470  Biso   1.000  O
  O26      1.0000 0.39640  0.70350  0.06470  Biso   1.000  O
  O27      1.0000 0.10360  0.70350  0.56470  Biso   1.000  O
  O28      1.0000 0.89640  0.29650  0.06470  Biso   1.000  O
  O29      1.0000 0.63060  0.40770  0.49680  Biso   1.000  O
  O30      1.0000 0.36940  0.59230  0.99680  Biso   1.000  O
  O31      1.0000 0.13060  0.59230  0.49680  Biso   1.000  O
  O32      1.0000 0.86940  0.40770  0.99680  Biso   1.000  O
  O33      1.0000 0.41470  0.28830  0.49300  Biso   1.000  O
  O34      1.0000 0.58530  0.71170  0.99300  Biso   1.000  O
  O35      1.0000 0.91470  0.71170  0.49300  Biso   1.000  O
  O36      1.0000 0.08530  0.28830  0.99300  Biso   1.000  O
