data_image0
_cell_length_a       13.1172
_cell_length_b       14.4753
_cell_length_c       12.7126
_cell_angle_alpha    90
_cell_angle_beta     105.262
_cell_angle_gamma    90

_symmetry_space_group_name_H-M    "P 1"
_symmetry_int_tables_number       1

loop_
  _symmetry_equiv_pos_as_xyz
  'x, y, z'

loop_
  _atom_site_label
  _atom_site_occupancy
  _atom_site_fract_x
  _atom_site_fract_y
  _atom_site_fract_z
  _atom_site_thermal_displace_type
  _atom_site_B_iso_or_equiv
  _atom_site_type_symbol
  Cu1      1.0000 0.14282  0.54791  0.19965  Biso   1.000  Cu
  Cu2      1.0000 0.85718  0.04791  0.30035  Biso   1.000  Cu
  Cu3      1.0000 0.85718  0.45209  0.80035  Biso   1.000  Cu
  Cu4      1.0000 0.14282  0.95209  0.69965  Biso   1.000  Cu
  O1       1.0000 0.10060  0.41290  0.91590  Biso   1.000  O
  O2       1.0000 0.89940  0.91290  0.58410  Biso   1.000  O
  O3       1.0000 0.89940  0.58710  0.08410  Biso   1.000  O
  O4       1.0000 0.10060  0.08710  0.41590  Biso   1.000  O
  O5       1.0000 0.13100  0.40930  0.46930  Biso   1.000  O
  O6       1.0000 0.86900  0.90930  0.03070  Biso   1.000  O
  O7       1.0000 0.86900  0.59070  0.53070  Biso   1.000  O
  O8       1.0000 0.13100  0.09070  0.96930  Biso   1.000  O
  O9       1.0000 0.13620  0.52520  0.35500  Biso   1.000  O
  O10      1.0000 0.86380  0.02520  0.14500  Biso   1.000  O
  O11      1.0000 0.86380  0.47480  0.64500  Biso   1.000  O
  O12      1.0000 0.13620  0.97480  0.85500  Biso   1.000  O
  O13      1.0000 0.12760  0.52770  0.03740  Biso   1.000  O
  O14      1.0000 0.87240  0.02770  0.46260  Biso   1.000  O
  O15      1.0000 0.87240  0.47230  0.96260  Biso   1.000  O
  O16      1.0000 0.12760  0.97230  0.53740  Biso   1.000  O
  N1       1.0000 0.67560  0.03730  0.26070  Biso   1.000  N
  N2       1.0000 0.32440  0.53730  0.23930  Biso   1.000  N
  N3       1.0000 0.32440  0.96270  0.73930  Biso   1.000  N
  N4       1.0000 0.67560  0.46270  0.76070  Biso   1.000  N
  N5       1.0000 0.14390  0.68330  0.20300  Biso   1.000  N
  N6       1.0000 0.85610  0.18330  0.29700  Biso   1.000  N
  N7       1.0000 0.85610  0.31670  0.79700  Biso   1.000  N
  N8       1.0000 0.14390  0.81670  0.70300  Biso   1.000  N
  N9       1.0000 0.11810  0.41800  0.19260  Biso   1.000  N
  N10      1.0000 0.88190  0.91800  0.30740  Biso   1.000  N
  N11      1.0000 0.88190  0.58200  0.80740  Biso   1.000  N
  N12      1.0000 0.11810  0.08200  0.69260  Biso   1.000  N
  C1       1.0000 0.45970  0.00000  0.20450  Biso   1.000  C
  C2       1.0000 0.54030  0.50000  0.29550  Biso   1.000  C
  C3       1.0000 0.54030  0.00000  0.79550  Biso   1.000  C
  C4       1.0000 0.45970  0.50000  0.70450  Biso   1.000  C
  C5       1.0000 0.27680  0.00860  0.23970  Biso   1.000  C
  C6       1.0000 0.72320  0.50860  0.26030  Biso   1.000  C
  C7       1.0000 0.72320  0.99140  0.76030  Biso   1.000  C
  C8       1.0000 0.27680  0.49140  0.73970  Biso   1.000  C
  H1       1.0000 0.27800  0.07550  0.24120  Biso   1.000  H
  H2       1.0000 0.72200  0.57550  0.25880  Biso   1.000  H
  H3       1.0000 0.72200  0.92450  0.75880  Biso   1.000  H
  H4       1.0000 0.27800  0.42450  0.74120  Biso   1.000  H
  H5       1.0000 0.30990  0.98730  0.31310  Biso   1.000  H
  H6       1.0000 0.69010  0.48730  0.18690  Biso   1.000  H
  H7       1.0000 0.69010  0.01270  0.68690  Biso   1.000  H
  H8       1.0000 0.30990  0.51270  0.81310  Biso   1.000  H
  C9       1.0000 0.33720  0.97990  0.17390  Biso   1.000  C
  C10      1.0000 0.66280  0.47990  0.32610  Biso   1.000  C
  C11      1.0000 0.66280  0.02010  0.82610  Biso   1.000  C
  C12      1.0000 0.33720  0.52010  0.67390  Biso   1.000  C
  H9       1.0000 0.30710  0.00670  0.10250  Biso   1.000  H
  H10      1.0000 0.69290  0.50670  0.39750  Biso   1.000  H
  H11      1.0000 0.69290  0.99330  0.89750  Biso   1.000  H
  H12      1.0000 0.30710  0.49330  0.60250  Biso   1.000  H
  H13      1.0000 0.32840  0.91350  0.16580  Biso   1.000  H
  H14      1.0000 0.67160  0.41350  0.33420  Biso   1.000  H
  H15      1.0000 0.67160  0.08650  0.83420  Biso   1.000  H
  H16      1.0000 0.32840  0.58650  0.66580  Biso   1.000  H
  C13      1.0000 0.51520  0.98220  0.13790  Biso   1.000  C
  C14      1.0000 0.48480  0.48220  0.36210  Biso   1.000  C
  C15      1.0000 0.48480  0.01780  0.86210  Biso   1.000  C
  C16      1.0000 0.51520  0.51780  0.63790  Biso   1.000  C
  H17      1.0000 0.48370  0.95930  0.06860  Biso   1.000  H
  H18      1.0000 0.51630  0.45930  0.43140  Biso   1.000  H
  H19      1.0000 0.51630  0.04070  0.93140  Biso   1.000  H
  H20      1.0000 0.48370  0.54070  0.56860  Biso   1.000  H
  C17      1.0000 0.62440  0.05790  0.33220  Biso   1.000  C
  C18      1.0000 0.37560  0.55790  0.16780  Biso   1.000  C
  C19      1.0000 0.37560  0.94210  0.66780  Biso   1.000  C
  C20      1.0000 0.62440  0.44210  0.83220  Biso   1.000  C
  H21      1.0000 0.65890  0.08580  0.39790  Biso   1.000  H
  H22      1.0000 0.34110  0.58580  0.10210  Biso   1.000  H
  H23      1.0000 0.34110  0.91420  0.60210  Biso   1.000  H
  H24      1.0000 0.65890  0.41420  0.89790  Biso   1.000  H
  C21      1.0000 0.62040  0.99730  0.17020  Biso   1.000  C
  C22      1.0000 0.37960  0.49730  0.32980  Biso   1.000  C
  C23      1.0000 0.37960  0.00270  0.82980  Biso   1.000  C
  C24      1.0000 0.62040  0.50270  0.67020  Biso   1.000  C
  H25      1.0000 0.65880  0.97690  0.12280  Biso   1.000  H
  H26      1.0000 0.34120  0.47690  0.37720  Biso   1.000  H
  H27      1.0000 0.34120  0.02310  0.87720  Biso   1.000  H
  H28      1.0000 0.65880  0.52310  0.62280  Biso   1.000  H
  C25      1.0000 0.50780  0.03570  0.30690  Biso   1.000  C
  C26      1.0000 0.49220  0.53570  0.19310  Biso   1.000  C
  C27      1.0000 0.49220  0.96430  0.69310  Biso   1.000  C
  C28      1.0000 0.50780  0.46430  0.80690  Biso   1.000  C
  H29      1.0000 0.46960  0.04570  0.35810  Biso   1.000  H
  H30      1.0000 0.53040  0.54570  0.14190  Biso   1.000  H
  H31      1.0000 0.53040  0.95430  0.64190  Biso   1.000  H
  H32      1.0000 0.46960  0.45430  0.85810  Biso   1.000  H
  C29      1.0000 0.11000  0.44240  0.00590  Biso   1.000  C
  C30      1.0000 0.89000  0.94240  0.49410  Biso   1.000  C
  C31      1.0000 0.89000  0.55760  0.99410  Biso   1.000  C
  C32      1.0000 0.11000  0.05760  0.50590  Biso   1.000  C
  C33      1.0000 0.09790  0.23270  0.18670  Biso   1.000  C
  C34      1.0000 0.90210  0.73270  0.31330  Biso   1.000  C
  C35      1.0000 0.90210  0.76730  0.81330  Biso   1.000  C
  C36      1.0000 0.09790  0.26730  0.68670  Biso   1.000  C
  H33      1.0000 0.09040  0.16880  0.18470  Biso   1.000  H
  H34      1.0000 0.90960  0.66880  0.31530  Biso   1.000  H
  H35      1.0000 0.90960  0.83120  0.81530  Biso   1.000  H
  H36      1.0000 0.09040  0.33120  0.68470  Biso   1.000  H
  C37      1.0000 0.15950  0.97690  0.20920  Biso   1.000  C
  C38      1.0000 0.84050  0.47690  0.29080  Biso   1.000  C
  C39      1.0000 0.84050  0.02310  0.79080  Biso   1.000  C
  C40      1.0000 0.15950  0.52310  0.70920  Biso   1.000  C
  H37      1.0000 0.12500  0.00080  0.26230  Biso   1.000  H
  H38      1.0000 0.87500  0.50080  0.23770  Biso   1.000  H
  H39      1.0000 0.87500  0.99920  0.73770  Biso   1.000  H
  H40      1.0000 0.12500  0.49920  0.76230  Biso   1.000  H
  H41      1.0000 0.12320  0.00160  0.13830  Biso   1.000  H
  H42      1.0000 0.87680  0.50160  0.36170  Biso   1.000  H
  H43      1.0000 0.87680  0.99840  0.86170  Biso   1.000  H
  H44      1.0000 0.12320  0.49840  0.63830  Biso   1.000  H
  C41      1.0000 0.13380  0.82640  0.11080  Biso   1.000  C
  C42      1.0000 0.86620  0.32640  0.38920  Biso   1.000  C
  C43      1.0000 0.86620  0.17360  0.88920  Biso   1.000  C
  C44      1.0000 0.13380  0.67360  0.61080  Biso   1.000  C
  H45      1.0000 0.12290  0.85770  0.04490  Biso   1.000  H
  H46      1.0000 0.87710  0.35770  0.45510  Biso   1.000  H
  H47      1.0000 0.87710  0.14230  0.95510  Biso   1.000  H
  H48      1.0000 0.12290  0.64230  0.54490  Biso   1.000  H
  C45      1.0000 0.10820  0.27940  0.28400  Biso   1.000  C
  C46      1.0000 0.89180  0.77940  0.21600  Biso   1.000  C
  C47      1.0000 0.89180  0.72060  0.71600  Biso   1.000  C
  C48      1.0000 0.10820  0.22060  0.78400  Biso   1.000  C
  H49      1.0000 0.10860  0.24770  0.34770  Biso   1.000  H
  H50      1.0000 0.89140  0.74770  0.15230  Biso   1.000  H
  H51      1.0000 0.89140  0.75230  0.65230  Biso   1.000  H
  H52      1.0000 0.10860  0.25230  0.84770  Biso   1.000  H
  C49      1.0000 0.09860  0.27980  0.09310  Biso   1.000  C
  C50      1.0000 0.90140  0.77980  0.40690  Biso   1.000  C
  C51      1.0000 0.90140  0.72020  0.90690  Biso   1.000  C
  C52      1.0000 0.09860  0.22020  0.59310  Biso   1.000  C
  H53      1.0000 0.09260  0.24860  0.02780  Biso   1.000  H
  H54      1.0000 0.90740  0.74860  0.47220  Biso   1.000  H
  H55      1.0000 0.90740  0.75140  0.97220  Biso   1.000  H
  H56      1.0000 0.09260  0.25140  0.52780  Biso   1.000  H
  C53      1.0000 0.10840  0.37520  0.09850  Biso   1.000  C
  C54      1.0000 0.89160  0.87520  0.40150  Biso   1.000  C
  C55      1.0000 0.89160  0.62480  0.90150  Biso   1.000  C
  C56      1.0000 0.10840  0.12480  0.59850  Biso   1.000  C
  C57      1.0000 0.16610  0.82470  0.30160  Biso   1.000  C
  C58      1.0000 0.83390  0.32470  0.19840  Biso   1.000  C
  C59      1.0000 0.83390  0.17530  0.69840  Biso   1.000  C
  C60      1.0000 0.16610  0.67530  0.80160  Biso   1.000  C
  H57      1.0000 0.17810  0.85470  0.36840  Biso   1.000  H
  H58      1.0000 0.82190  0.35470  0.13160  Biso   1.000  H
  H59      1.0000 0.82190  0.14530  0.63160  Biso   1.000  H
  H60      1.0000 0.17810  0.64530  0.86840  Biso   1.000  H
  C61      1.0000 0.15230  0.87560  0.20660  Biso   1.000  C
  C62      1.0000 0.84770  0.37560  0.29340  Biso   1.000  C
  C63      1.0000 0.84770  0.12440  0.79340  Biso   1.000  C
  C64      1.0000 0.15230  0.62440  0.70660  Biso   1.000  C
  C65      1.0000 0.11790  0.37460  0.28390  Biso   1.000  C
  C66      1.0000 0.88210  0.87460  0.21610  Biso   1.000  C
  C67      1.0000 0.88210  0.62540  0.71610  Biso   1.000  C
  C68      1.0000 0.11790  0.12540  0.78390  Biso   1.000  C
  C69      1.0000 0.12970  0.43970  0.38010  Biso   1.000  C
  C70      1.0000 0.87030  0.93970  0.11990  Biso   1.000  C
  C71      1.0000 0.87030  0.56030  0.61990  Biso   1.000  C
  C72      1.0000 0.12970  0.06030  0.88010  Biso   1.000  C
  C73      1.0000 0.16190  0.72930  0.29700  Biso   1.000  C
  C74      1.0000 0.83810  0.22930  0.20300  Biso   1.000  C
  C75      1.0000 0.83810  0.27070  0.70300  Biso   1.000  C
  C76      1.0000 0.16190  0.77070  0.79700  Biso   1.000  C
  H61      1.0000 0.17190  0.69620  0.36160  Biso   1.000  H
  H62      1.0000 0.82810  0.19620  0.13840  Biso   1.000  H
  H63      1.0000 0.82810  0.30380  0.63840  Biso   1.000  H
  H64      1.0000 0.17190  0.80380  0.86160  Biso   1.000  H
  C77      1.0000 0.13140  0.73280  0.11140  Biso   1.000  C
  C78      1.0000 0.86860  0.23280  0.38860  Biso   1.000  C
  C79      1.0000 0.86860  0.26720  0.88860  Biso   1.000  C
  C80      1.0000 0.13140  0.76720  0.61140  Biso   1.000  C
  H65      1.0000 0.12040  0.70160  0.04540  Biso   1.000  H
  H66      1.0000 0.87960  0.20160  0.45460  Biso   1.000  H
  H67      1.0000 0.87960  0.29840  0.95460  Biso   1.000  H
  H68      1.0000 0.12040  0.79840  0.54540  Biso   1.000  H
  O17      1.0000 0.57310  0.24570  0.98620  Biso   1.000  O
  O18      1.0000 0.42690  0.74570  0.51380  Biso   1.000  O
  O19      1.0000 0.42690  0.75430  0.01380  Biso   1.000  O
  O20      1.0000 0.57310  0.25430  0.48620  Biso   1.000  O
  N13      1.0000 0.44570  0.26190  0.06860  Biso   1.000  N
  N14      1.0000 0.55430  0.76190  0.43140  Biso   1.000  N
  N15      1.0000 0.55430  0.73810  0.93140  Biso   1.000  N
  N16      1.0000 0.44570  0.23810  0.56860  Biso   1.000  N
  C81      1.0000 0.37000  0.26020  0.97640  Biso   1.000  C
  C82      1.0000 0.63000  0.76020  0.52360  Biso   1.000  C
  C83      1.0000 0.63000  0.73980  0.02360  Biso   1.000  C
  C84      1.0000 0.37000  0.23980  0.47640  Biso   1.000  C
  H69      1.0000 0.40050  0.25380  0.91610  Biso   1.000  H
  H70      1.0000 0.59950  0.75380  0.58390  Biso   1.000  H
  H71      1.0000 0.59950  0.74620  0.08390  Biso   1.000  H
  H72      1.0000 0.40050  0.24620  0.41610  Biso   1.000  H
  H73      1.0000 0.33020  0.31670  0.96900  Biso   1.000  H
  H74      1.0000 0.66980  0.81670  0.53100  Biso   1.000  H
  H75      1.0000 0.66980  0.68330  0.03100  Biso   1.000  H
  H76      1.0000 0.33020  0.18330  0.46900  Biso   1.000  H
  H77      1.0000 0.32370  0.20890  0.97730  Biso   1.000  H
  H78      1.0000 0.67630  0.70890  0.52270  Biso   1.000  H
  H79      1.0000 0.67630  0.79110  0.02270  Biso   1.000  H
  H80      1.0000 0.32370  0.29110  0.47730  Biso   1.000  H
  C85      1.0000 0.54820  0.25110  0.07500  Biso   1.000  C
  C86      1.0000 0.45180  0.75110  0.42500  Biso   1.000  C
  C87      1.0000 0.45180  0.74890  0.92500  Biso   1.000  C
  C88      1.0000 0.54820  0.24890  0.57500  Biso   1.000  C
  C89      1.0000 0.41300  0.26530  0.17100  Biso   1.000  C
  C90      1.0000 0.58700  0.76530  0.32900  Biso   1.000  C
  C91      1.0000 0.58700  0.73470  0.82900  Biso   1.000  C
  C92      1.0000 0.41300  0.23470  0.67100  Biso   1.000  C
  H81      1.0000 0.47410  0.26070  0.23180  Biso   1.000  H
  H82      1.0000 0.52590  0.76070  0.26820  Biso   1.000  H
  H83      1.0000 0.52590  0.73930  0.76820  Biso   1.000  H
  H84      1.0000 0.47410  0.23930  0.73180  Biso   1.000  H
  H85      1.0000 0.36600  0.21480  0.17260  Biso   1.000  H
  H86      1.0000 0.63400  0.71480  0.32740  Biso   1.000  H
  H87      1.0000 0.63400  0.78520  0.82740  Biso   1.000  H
  H88      1.0000 0.36600  0.28520  0.67260  Biso   1.000  H
  H89      1.0000 0.37730  0.32260  0.17470  Biso   1.000  H
  H90      1.0000 0.62270  0.82260  0.32530  Biso   1.000  H
  H91      1.0000 0.62270  0.67740  0.82530  Biso   1.000  H
  H92      1.0000 0.37730  0.17740  0.67470  Biso   1.000  H
