data_image0
_cell_length_a       8.2254
_cell_length_b       11.6133
_cell_length_c       14.3603
_cell_angle_alpha    76.278
_cell_angle_beta     86.541
_cell_angle_gamma    76.787

_symmetry_space_group_name_H-M    "P 1"
_symmetry_int_tables_number       1

loop_
  _symmetry_equiv_pos_as_xyz
  'x, y, z'

loop_
  _atom_site_label
  _atom_site_occupancy
  _atom_site_fract_x
  _atom_site_fract_y
  _atom_site_fract_z
  _atom_site_thermal_displace_type
  _atom_site_B_iso_or_equiv
  _atom_site_type_symbol
  Cu1      1.0000 0.74108  0.93843  0.74020  Biso   1.000  Cu
  Cu2      1.0000 0.25892  0.06157  0.25980  Biso   1.000  Cu
  N1       1.0000 0.75860  0.77616  0.70808  Biso   1.000  N
  N2       1.0000 0.24140  0.22384  0.29192  Biso   1.000  N
  C1       1.0000 0.72700  0.67650  0.77012  Biso   1.000  C
  C2       1.0000 0.27300  0.32350  0.22988  Biso   1.000  C
  H1       1.0000 0.70040  0.67960  0.83350  Biso   1.000  H
  H2       1.0000 0.29960  0.32040  0.16650  Biso   1.000  H
  C3       1.0000 0.73310  0.57050  0.74180  Biso   1.000  C
  C4       1.0000 0.26690  0.42950  0.25820  Biso   1.000  C
  H3       1.0000 0.71170  0.50300  0.78630  Biso   1.000  H
  H4       1.0000 0.28830  0.49700  0.21370  Biso   1.000  H
  C5       1.0000 0.77060  0.56290  0.64823  Biso   1.000  C
  C6       1.0000 0.22940  0.43710  0.35177  Biso   1.000  C
  H5       1.0000 0.77420  0.49140  0.62890  Biso   1.000  H
  H6       1.0000 0.22580  0.50860  0.37110  Biso   1.000  H
  C7       1.0000 0.80290  0.66560  0.58336  Biso   1.000  C
  C8       1.0000 0.19710  0.33440  0.41664  Biso   1.000  C
  C9       1.0000 0.79640  0.76910  0.61746  Biso   1.000  C
  C10      1.0000 0.20360  0.23090  0.38254  Biso   1.000  C
  H7       1.0000 0.81970  0.83730  0.57480  Biso   1.000  H
  H8       1.0000 0.18030  0.16270  0.42520  Biso   1.000  H
  N3       1.0000 0.84070  0.67408  0.48670  Biso   1.000  N
  N4       1.0000 0.15930  0.32592  0.51330  Biso   1.000  N
  H9       1.0000 0.88340  0.73400  0.45750  Biso   1.000  H
  H10      1.0000 0.11660  0.26600  0.54250  Biso   1.000  H
  C11      1.0000 0.81620  0.59540  0.43321  Biso   1.000  C
  C12      1.0000 0.18380  0.40460  0.56679  Biso   1.000  C
  O1       1.0000 0.77040  0.50070  0.46755  Biso   1.000  O
  O2       1.0000 0.22960  0.49930  0.53245  Biso   1.000  O
  N5       1.0000 0.84000  0.63580  0.33823  Biso   1.000  N
  N6       1.0000 0.16000  0.36420  0.66177  Biso   1.000  N
  H11      1.0000 0.86870  0.70400  0.31680  Biso   1.000  H
  H12      1.0000 0.13130  0.29600  0.68320  Biso   1.000  H
  C13      1.0000 0.81670  0.56310  0.27269  Biso   1.000  C
  C14      1.0000 0.18330  0.43690  0.72731  Biso   1.000  C
  H13      1.0000 0.87520  0.47960  0.29720  Biso   1.000  H
  H14      1.0000 0.12480  0.52040  0.70280  Biso   1.000  H
  H15      1.0000 0.86570  0.59270  0.21100  Biso   1.000  H
  H16      1.0000 0.13430  0.40730  0.78900  Biso   1.000  H
  C15      1.0000 0.63350  0.56630  0.25885  Biso   1.000  C
  C16      1.0000 0.36650  0.43370  0.74115  Biso   1.000  C
  H17      1.0000 0.62690  0.50630  0.22330  Biso   1.000  H
  H18      1.0000 0.37310  0.49370  0.77670  Biso   1.000  H
  H19      1.0000 0.58290  0.54310  0.32130  Biso   1.000  H
  H20      1.0000 0.41710  0.45690  0.67870  Biso   1.000  H
  N7       1.0000 0.53720  0.68317  0.20903  Biso   1.000  N
  N8       1.0000 0.46280  0.31683  0.79097  Biso   1.000  N
  H21      1.0000 0.47350  0.72950  0.24140  Biso   1.000  H
  H22      1.0000 0.52650  0.27050  0.75860  Biso   1.000  H
  C17      1.0000 0.54550  0.72090  0.11258  Biso   1.000  C
  C18      1.0000 0.45450  0.27910  0.88742  Biso   1.000  C
  O3       1.0000 0.64330  0.66413  0.06252  Biso   1.000  O
  O4       1.0000 0.35670  0.33587  0.93748  Biso   1.000  O
  N9       1.0000 0.43110  0.82732  0.07590  Biso   1.000  N
  N10      1.0000 0.56890  0.17268  0.92410  Biso   1.000  N
  H23      1.0000 0.36210  0.85740  0.11590  Biso   1.000  H
  H24      1.0000 0.63790  0.14260  0.88410  Biso   1.000  H
  C19      1.0000 0.41720  0.89027  0.98042  Biso   1.000  C
  C20      1.0000 0.58280  0.10973  0.01958  Biso   1.000  C
  C21      1.0000 0.54750  0.87660  0.91447  Biso   1.000  C
  C22      1.0000 0.45250  0.12340  0.08553  Biso   1.000  C
  H25      1.0000 0.64770  0.82260  0.93500  Biso   1.000  H
  H26      1.0000 0.35230  0.17740  0.06500  Biso   1.000  H
  N11      1.0000 0.53410  0.93807  0.82283  Biso   1.000  N
  N12      1.0000 0.46590  0.06193  0.17717  Biso   1.000  N
  C23      1.0000 0.39020  0.01650  0.79259  Biso   1.000  C
  C24      1.0000 0.60980  0.98350  0.20741  Biso   1.000  C
  H27      1.0000 0.37940  0.05740  0.72840  Biso   1.000  H
  H28      1.0000 0.62060  0.94260  0.27160  Biso   1.000  H
  C25      1.0000 0.25730  0.03780  0.85487  Biso   1.000  C
  C26      1.0000 0.74270  0.96220  0.14513  Biso   1.000  C
  H29      1.0000 0.15970  0.09430  0.83300  Biso   1.000  H
  H30      1.0000 0.84030  0.90570  0.16700  Biso   1.000  H
  C27      1.0000 0.27040  0.97510  0.94910  Biso   1.000  C
  C28      1.0000 0.72960  0.02490  0.05090  Biso   1.000  C
  H31      1.0000 0.18210  0.98900  0.99160  Biso   1.000  H
  H32      1.0000 0.81790  0.01100  0.00840  Biso   1.000  H
  O5       1.0000 0.94210  0.96237  0.66423  Biso   1.000  O
  O6       1.0000 0.05790  0.03763  0.33577  Biso   1.000  O
  C29      1.0000 0.98160  0.06310  0.66242  Biso   1.000  C
  C30      1.0000 0.01840  0.93690  0.33758  Biso   1.000  C
  O7       1.0000 0.09850  0.09973  0.61720  Biso   1.000  O
  O8       1.0000 0.90150  0.90027  0.38280  Biso   1.000  O
  C31      1.0000 0.86820  0.14130  0.72583  Biso   1.000  C
  C32      1.0000 0.13180  0.85870  0.27417  Biso   1.000  C
  O9       1.0000 0.74322  0.09826  0.76453  Biso   1.000  O
  O10      1.0000 0.25678  0.90174  0.23547  Biso   1.000  O
  O11      1.0000 0.90080  0.23511  0.73648  Biso   1.000  O
  O12      1.0000 0.09920  0.76489  0.26352  Biso   1.000  O
  O13      1.0000 0.57750  0.03807  0.59774  Biso   1.000  O
  O14      1.0000 0.42250  0.96193  0.40226  Biso   1.000  O
  C33      1.0000 0.63620  0.07980  0.51938  Biso   1.000  C
  C34      1.0000 0.36380  0.92020  0.48062  Biso   1.000  C
  H33      1.0000 0.67580  0.02660  0.47970  Biso   1.000  H
  H34      1.0000 0.32420  0.97340  0.52030  Biso   1.000  H
  N13      1.0000 0.64750  0.19463  0.48705  Biso   1.000  N
  N14      1.0000 0.35250  0.80537  0.51295  Biso   1.000  N
  C35      1.0000 0.71940  0.23580  0.39390  Biso   1.000  C
  C36      1.0000 0.28060  0.76420  0.60610  Biso   1.000  C
  H35      1.0000 0.76530  0.16730  0.36660  Biso   1.000  H
  H36      1.0000 0.23470  0.83270  0.63340  Biso   1.000  H
  H37      1.0000 0.80630  0.27600  0.40080  Biso   1.000  H
  H38      1.0000 0.19370  0.72400  0.59920  Biso   1.000  H
  H39      1.0000 0.63440  0.29140  0.35250  Biso   1.000  H
  H40      1.0000 0.36560  0.70860  0.64750  Biso   1.000  H
  C37      1.0000 0.58720  0.28410  0.54296  Biso   1.000  C
  C38      1.0000 0.41280  0.71590  0.45704  Biso   1.000  C
  H41      1.0000 0.52310  0.25080  0.59650  Biso   1.000  H
  H42      1.0000 0.47690  0.74920  0.40350  Biso   1.000  H
  H43      1.0000 0.51800  0.35490  0.50370  Biso   1.000  H
  H44      1.0000 0.48200  0.64510  0.49630  Biso   1.000  H
  H45      1.0000 0.68030  0.30630  0.56590  Biso   1.000  H
  H46      1.0000 0.31970  0.69370  0.43410  Biso   1.000  H
  O15      1.0000 0.91700  0.84422  0.87974  Biso   1.000  O
  O16      1.0000 0.08300  0.15578  0.12026  Biso   1.000  O
  C39      1.0000 0.05930  0.78460  0.87229  Biso   1.000  C
  C40      1.0000 0.94070  0.21540  0.12771  Biso   1.000  C
  H47      1.0000 0.11160  0.80050  0.81290  Biso   1.000  H
  H48      1.0000 0.88840  0.19950  0.18710  Biso   1.000  H
  N15      1.0000 0.14430  0.70020  0.94090  Biso   1.000  N
  N16      1.0000 0.85570  0.29980  0.05910  Biso   1.000  N
  C41      1.0000 0.07080  0.66940  0.03560  Biso   1.000  C
  C42      1.0000 0.92920  0.33060  0.96440  Biso   1.000  C
  H49      1.0000 0.95460  0.70910  0.03380  Biso   1.000  H
  H50      1.0000 0.04540  0.29090  0.96620  Biso   1.000  H
  H51      1.0000 0.12730  0.69580  0.08050  Biso   1.000  H
  H52      1.0000 0.87270  0.30420  0.91950  Biso   1.000  H
  H53      1.0000 0.08180  0.58300  0.05510  Biso   1.000  H
  H54      1.0000 0.91820  0.41700  0.94490  Biso   1.000  H
  C43      1.0000 0.31400  0.63580  0.92760  Biso   1.000  C
  C44      1.0000 0.68600  0.36420  0.07240  Biso   1.000  C
  H55      1.0000 0.35080  0.66580  0.86350  Biso   1.000  H
  H56      1.0000 0.64920  0.33420  0.13650  Biso   1.000  H
  H57      1.0000 0.31760  0.55050  0.93780  Biso   1.000  H
  H58      1.0000 0.68240  0.44950  0.06220  Biso   1.000  H
  H59      1.0000 0.38590  0.64850  0.97260  Biso   1.000  H
  H60      1.0000 0.61410  0.35150  0.02740  Biso   1.000  H
