data_image0
_cell_length_a       9.644
_cell_length_b       10.2113
_cell_length_c       10.4677
_cell_angle_alpha    102.075
_cell_angle_beta     116.625
_cell_angle_gamma    106.28

_symmetry_space_group_name_H-M    "P 1"
_symmetry_int_tables_number       1

loop_
  _symmetry_equiv_pos_as_xyz
  'x, y, z'

loop_
  _atom_site_label
  _atom_site_occupancy
  _atom_site_fract_x
  _atom_site_fract_y
  _atom_site_fract_z
  _atom_site_thermal_displace_type
  _atom_site_B_iso_or_equiv
  _atom_site_type_symbol
  Cu1      1.0000 0.50000  0.00000  0.00000  Biso   1.000  Cu
  N1       1.0000 0.46700  0.13390  0.88350  Biso   1.000  N
  N2       1.0000 0.53300  0.86610  0.11650  Biso   1.000  N
  C1       1.0000 0.51590  0.13590  0.78310  Biso   1.000  C
  C2       1.0000 0.48410  0.86410  0.21690  Biso   1.000  C
  H1       1.0000 0.56900  0.07590  0.76890  Biso   1.000  H
  H2       1.0000 0.43100  0.92410  0.23110  Biso   1.000  H
  C3       1.0000 0.48990  0.22440  0.69950  Biso   1.000  C
  C4       1.0000 0.51010  0.77560  0.30050  Biso   1.000  C
  H3       1.0000 0.52510  0.22360  0.63000  Biso   1.000  H
  H4       1.0000 0.47490  0.77640  0.37000  Biso   1.000  H
  C5       1.0000 0.41160  0.31380  0.71930  Biso   1.000  C
  C6       1.0000 0.58840  0.68620  0.28070  Biso   1.000  C
  H5       1.0000 0.39380  0.37400  0.66390  Biso   1.000  H
  H6       1.0000 0.60620  0.62600  0.33610  Biso   1.000  H
  C7       1.0000 0.35930  0.31270  0.82390  Biso   1.000  C
  C8       1.0000 0.64070  0.68730  0.17610  Biso   1.000  C
  C9       1.0000 0.38830  0.22060  0.90250  Biso   1.000  C
  C10      1.0000 0.61170  0.77940  0.09750  Biso   1.000  C
  H7       1.0000 0.35240  0.21790  0.97130  Biso   1.000  H
  H8       1.0000 0.64760  0.78210  0.02870  Biso   1.000  H
  N3       1.0000 0.28060  0.40540  0.84230  Biso   1.000  N
  N4       1.0000 0.71940  0.59460  0.15770  Biso   1.000  N
  H9       1.0000 0.27130  0.45990  0.78920  Biso   1.000  H
  H10      1.0000 0.72870  0.54010  0.21080  Biso   1.000  H
  C11      1.0000 0.21620  0.41900  0.93620  Biso   1.000  C
  C12      1.0000 0.78380  0.58100  0.06380  Biso   1.000  C
  O1       1.0000 0.21460  0.34300  0.01280  Biso   1.000  O
  O2       1.0000 0.78540  0.65700  0.98720  Biso   1.000  O
  N5       1.0000 0.15590  0.52320  0.93740  Biso   1.000  N
  N6       1.0000 0.84410  0.47680  0.06260  Biso   1.000  N
  H11      1.0000 0.15560  0.57140  0.87900  Biso   1.000  H
  H12      1.0000 0.84440  0.42860  0.12100  Biso   1.000  H
  C13      1.0000 0.09140  0.55510  0.03620  Biso   1.000  C
  C14      1.0000 0.90860  0.44490  0.96380  Biso   1.000  C
  H13      1.0000 0.09690  0.65410  0.05470  Biso   1.000  H
  H14      1.0000 0.90310  0.34590  0.94530  Biso   1.000  H
  H15      1.0000 0.16390  0.55250  0.13560  Biso   1.000  H
  H16      1.0000 0.83610  0.44750  0.86440  Biso   1.000  H
  O3       1.0000 0.46250  0.85370  0.81800  Biso   1.000  O
  O4       1.0000 0.53750  0.14630  0.18200  Biso   1.000  O
  C15      1.0000 0.34690  0.72090  0.73270  Biso   1.000  C
  C16      1.0000 0.65310  0.27910  0.26730  Biso   1.000  C
  O5       1.0000 0.21810  0.66110  0.73600  Biso   1.000  O
  O6       1.0000 0.78190  0.33890  0.26400  Biso   1.000  O
  C17      1.0000 0.37610  0.63020  0.62180  Biso   1.000  C
  C18      1.0000 0.62390  0.36980  0.37820  Biso   1.000  C
  C19      1.0000 0.23440  0.50940  0.48470  Biso   1.000  C
  C20      1.0000 0.76560  0.49060  0.51530  Biso   1.000  C
  H17      1.0000 0.12330  0.49200  0.45840  Biso   1.000  H
  H18      1.0000 0.87670  0.50800  0.54160  Biso   1.000  H
  C21      1.0000 0.26090  0.41860  0.39110  Biso   1.000  C
  C22      1.0000 0.73910  0.58140  0.60890  Biso   1.000  C
  H19      1.0000 0.16700  0.34150  0.29960  Biso   1.000  H
  H20      1.0000 0.83300  0.65850  0.70040  Biso   1.000  H
  C23      1.0000 0.42930  0.43970  0.43110  Biso   1.000  C
  C24      1.0000 0.57070  0.56030  0.56890  Biso   1.000  C
  C25      1.0000 0.53920  0.65570  0.66050  Biso   1.000  C
  C26      1.0000 0.46080  0.34430  0.33950  Biso   1.000  C
  H21      1.0000 0.63140  0.73730  0.74880  Biso   1.000  H
  H22      1.0000 0.36860  0.26270  0.25120  Biso   1.000  H
  O7       1.0000 0.80500  0.10650  0.09750  Biso   1.000  O
  O8       1.0000 0.19500  0.89350  0.90250  Biso   1.000  O
