data_image0
_cell_length_a       8.8618
_cell_length_b       9.47
_cell_length_c       12.5265
_cell_angle_alpha    102.496
_cell_angle_beta     93.441
_cell_angle_gamma    94.785

_symmetry_space_group_name_H-M    "P 1"
_symmetry_int_tables_number       1

loop_
  _symmetry_equiv_pos_as_xyz
  'x, y, z'

loop_
  _atom_site_label
  _atom_site_occupancy
  _atom_site_fract_x
  _atom_site_fract_y
  _atom_site_fract_z
  _atom_site_thermal_displace_type
  _atom_site_B_iso_or_equiv
  _atom_site_type_symbol
  Cu1      1.0000 0.65761  0.62470  0.87030  Biso   1.000  Cu
  Cu2      1.0000 0.34239  0.37530  0.12970  Biso   1.000  Cu
  N1       1.0000 0.73250  0.54750  0.72660  Biso   1.000  N
  N2       1.0000 0.26750  0.45250  0.27340  Biso   1.000  N
  C1       1.0000 0.82060  0.43890  0.71220  Biso   1.000  C
  C2       1.0000 0.17940  0.56110  0.28780  Biso   1.000  C
  H1       1.0000 0.85590  0.40560  0.77270  Biso   1.000  H
  H2       1.0000 0.14410  0.59440  0.22730  Biso   1.000  H
  C3       1.0000 0.86070  0.37470  0.60960  Biso   1.000  C
  C4       1.0000 0.13930  0.62530  0.39040  Biso   1.000  C
  H3       1.0000 0.92050  0.29740  0.60130  Biso   1.000  H
  H4       1.0000 0.07950  0.70260  0.39870  Biso   1.000  H
  C5       1.0000 0.81210  0.42510  0.51970  Biso   1.000  C
  C6       1.0000 0.18790  0.57490  0.48030  Biso   1.000  C
  H5       1.0000 0.83820  0.38210  0.45010  Biso   1.000  H
  H6       1.0000 0.16180  0.61790  0.54990  Biso   1.000  H
  C7       1.0000 0.72450  0.53990  0.53400  Biso   1.000  C
  C8       1.0000 0.27550  0.46010  0.46600  Biso   1.000  C
  C9       1.0000 0.68710  0.59840  0.63920  Biso   1.000  C
  C10      1.0000 0.31290  0.40160  0.36080  Biso   1.000  C
  H7       1.0000 0.62800  0.67620  0.64970  Biso   1.000  H
  H8       1.0000 0.37200  0.32380  0.35030  Biso   1.000  H
  N3       1.0000 0.67030  0.58980  0.44350  Biso   1.000  N
  N4       1.0000 0.32970  0.41020  0.55650  Biso   1.000  N
  H9       1.0000 0.67100  0.53240  0.38020  Biso   1.000  H
  H10      1.0000 0.32900  0.46760  0.61980  Biso   1.000  H
  C11      1.0000 0.61520  0.72320  0.44580  Biso   1.000  C
  C12      1.0000 0.38480  0.27680  0.55420  Biso   1.000  C
  O1       1.0000 0.61840  0.81780  0.53090  Biso   1.000  O
  O2       1.0000 0.38160  0.18220  0.46910  Biso   1.000  O
  N5       1.0000 0.55870  0.73990  0.34850  Biso   1.000  N
  N6       1.0000 0.44130  0.26010  0.65150  Biso   1.000  N
  H11      1.0000 0.56330  0.67150  0.29140  Biso   1.000  H
  H12      1.0000 0.43670  0.32850  0.70860  Biso   1.000  H
  C13      1.0000 0.49010  0.86920  0.33610  Biso   1.000  C
  C14      1.0000 0.50990  0.13080  0.66390  Biso   1.000  C
  H13      1.0000 0.43550  0.90260  0.40020  Biso   1.000  H
  H14      1.0000 0.56450  0.09740  0.59980  Biso   1.000  H
  H15      1.0000 0.41650  0.84390  0.27290  Biso   1.000  H
  H16      1.0000 0.58350  0.15610  0.72710  Biso   1.000  H
  C15      1.0000 0.60100  0.99340  0.32210  Biso   1.000  C
  C16      1.0000 0.39900  0.00660  0.67790  Biso   1.000  C
  H17      1.0000 0.54570  0.07160  0.30620  Biso   1.000  H
  H18      1.0000 0.45430  0.92840  0.69380  Biso   1.000  H
  H19      1.0000 0.66530  0.03070  0.38940  Biso   1.000  H
  H20      1.0000 0.33470  0.96930  0.61060  Biso   1.000  H
  N7       1.0000 0.69470  0.94170  0.23220  Biso   1.000  N
  N8       1.0000 0.30530  0.05830  0.76780  Biso   1.000  N
  H21      1.0000 0.67050  0.85750  0.18960  Biso   1.000  H
  H22      1.0000 0.32950  0.14250  0.81040  Biso   1.000  H
  C17      1.0000 0.81900  0.02460  0.21510  Biso   1.000  C
  C18      1.0000 0.18100  0.97540  0.78490  Biso   1.000  C
  O3       1.0000 0.84230  0.15600  0.25340  Biso   1.000  O
  O4       1.0000 0.15770  0.84400  0.74660  Biso   1.000  O
  N9       1.0000 0.91520  0.94720  0.14870  Biso   1.000  N
  N10      1.0000 0.08480  0.05280  0.85130  Biso   1.000  N
  H23      1.0000 0.88000  0.86070  0.11480  Biso   1.000  H
  H24      1.0000 0.12000  0.13930  0.88520  Biso   1.000  H
  C19      1.0000 0.06260  0.99140  0.12940  Biso   1.000  C
  C20      1.0000 0.93740  0.00860  0.87060  Biso   1.000  C
  C21      1.0000 0.15600  0.88360  0.09150  Biso   1.000  C
  C22      1.0000 0.84400  0.11640  0.90850  Biso   1.000  C
  H25      1.0000 0.11950  0.78600  0.07890  Biso   1.000  H
  H26      1.0000 0.88050  0.21400  0.92110  Biso   1.000  H
  C23      1.0000 0.30260  0.92310  0.07310  Biso   1.000  C
  C24      1.0000 0.69740  0.07690  0.92690  Biso   1.000  C
  H27      1.0000 0.36700  0.85240  0.04830  Biso   1.000  H
  H28      1.0000 0.63300  0.14760  0.95170  Biso   1.000  H
  C25      1.0000 0.35410  0.06870  0.09140  Biso   1.000  C
  C26      1.0000 0.64590  0.93130  0.90860  Biso   1.000  C
  H29      1.0000 0.45450  0.09490  0.08060  Biso   1.000  H
  H30      1.0000 0.54550  0.90510  0.91940  Biso   1.000  H
  N11      1.0000 0.26390  0.17270  0.12420  Biso   1.000  N
  N12      1.0000 0.73610  0.82730  0.87580  Biso   1.000  N
  C27      1.0000 0.12050  0.13390  0.14270  Biso   1.000  C
  C28      1.0000 0.87950  0.86610  0.85730  Biso   1.000  C
  H31      1.0000 0.05750  0.20650  0.16540  Biso   1.000  H
  H32      1.0000 0.94250  0.79350  0.83460  Biso   1.000  H
  O5       1.0000 0.55280  0.43020  0.86930  Biso   1.000  O
  O6       1.0000 0.44720  0.56980  0.13070  Biso   1.000  O
  C29      1.0000 0.49610  0.42810  0.95820  Biso   1.000  C
  C30      1.0000 0.50390  0.57190  0.04180  Biso   1.000  C
  O7       1.0000 0.87580  0.60060  0.98510  Biso   1.000  O
  O8       1.0000 0.12420  0.39940  0.01490  Biso   1.000  O
  N13      1.0000 0.84190  0.55700  0.06910  Biso   1.000  N
  N14      1.0000 0.15810  0.44300  0.93090  Biso   1.000  N
  O9       1.0000 0.77780  0.43120  0.05940  Biso   1.000  O
  O10      1.0000 0.22220  0.56880  0.94060  Biso   1.000  O
  O11      1.0000 0.86570  0.63760  0.16200  Biso   1.000  O
  O12      1.0000 0.13430  0.36240  0.83800  Biso   1.000  O
  O13      1.0000 0.43100  0.31810  0.98510  Biso   1.000  O
  O14      1.0000 0.56900  0.68190  0.01490  Biso   1.000  O
  O15      1.0000 0.63580  0.35900  0.23420  Biso   1.000  O
  O16      1.0000 0.36420  0.64100  0.76580  Biso   1.000  O
