data_image0
_cell_length_a       9.5396
_cell_length_b       9.7085
_cell_length_c       12.6295
_cell_angle_alpha    74.927
_cell_angle_beta     76.612
_cell_angle_gamma    87.388

_symmetry_space_group_name_H-M    "P 1"
_symmetry_int_tables_number       1

loop_
  _symmetry_equiv_pos_as_xyz
  'x, y, z'

loop_
  _atom_site_label
  _atom_site_occupancy
  _atom_site_fract_x
  _atom_site_fract_y
  _atom_site_fract_z
  _atom_site_thermal_displace_type
  _atom_site_B_iso_or_equiv
  _atom_site_type_symbol
  Cu1      1.0000 0.66463  0.59578  0.60279  Biso   1.000  Cu
  Cu2      1.0000 0.33537  0.40422  0.39721  Biso   1.000  Cu
  N1       1.0000 0.72200  0.50560  0.74667  Biso   1.000  N
  N2       1.0000 0.27800  0.49440  0.25333  Biso   1.000  N
  C1       1.0000 0.80580  0.39160  0.75610  Biso   1.000  C
  C2       1.0000 0.19420  0.60840  0.24390  Biso   1.000  C
  H1       1.0000 0.83930  0.35450  0.69410  Biso   1.000  H
  H2       1.0000 0.16070  0.64550  0.30590  Biso   1.000  H
  C3       1.0000 0.84340  0.32850  0.85550  Biso   1.000  C
  C4       1.0000 0.15660  0.67150  0.14450  Biso   1.000  C
  H3       1.0000 0.90020  0.24760  0.86140  Biso   1.000  H
  H4       1.0000 0.09980  0.75240  0.13860  Biso   1.000  H
  C5       1.0000 0.79740  0.38440  0.94650  Biso   1.000  C
  C6       1.0000 0.20260  0.61560  0.05350  Biso   1.000  C
  H5       1.0000 0.82340  0.34200  0.01400  Biso   1.000  H
  H6       1.0000 0.17660  0.65800  0.98600  Biso   1.000  H
  C7       1.0000 0.71220  0.50420  0.93740  Biso   1.000  C
  C8       1.0000 0.28780  0.49580  0.06260  Biso   1.000  C
  C9       1.0000 0.67500  0.56030  0.83510  Biso   1.000  C
  C10      1.0000 0.32500  0.43970  0.16490  Biso   1.000  C
  H7       1.0000 0.61520  0.63900  0.82770  Biso   1.000  H
  H8       1.0000 0.38480  0.36100  0.17230  Biso   1.000  H
  N3       1.0000 0.66500  0.56060  0.02986  Biso   1.000  N
  N4       1.0000 0.33500  0.43940  0.97014  Biso   1.000  N
  H9       1.0000 0.67030  0.50670  0.09460  Biso   1.000  H
  H10      1.0000 0.32970  0.49330  0.90540  Biso   1.000  H
  C11      1.0000 0.60990  0.69670  0.02710  Biso   1.000  C
  C12      1.0000 0.39010  0.30330  0.97290  Biso   1.000  C
  O1       1.0000 0.59770  0.78170  0.94075  Biso   1.000  O
  O2       1.0000 0.40230  0.21830  0.05925  Biso   1.000  O
  N5       1.0000 0.57210  0.72300  0.12939  Biso   1.000  N
  N6       1.0000 0.42790  0.27700  0.87061  Biso   1.000  N
  H11      1.0000 0.58230  0.65660  0.18720  Biso   1.000  H
  H12      1.0000 0.41770  0.34340  0.81280  Biso   1.000  H
  C13      1.0000 0.51510  0.85830  0.14600  Biso   1.000  C
  C14      1.0000 0.48490  0.14170  0.85400  Biso   1.000  C
  H13      1.0000 0.44100  0.84100  0.21530  Biso   1.000  H
  H14      1.0000 0.55900  0.15900  0.78470  Biso   1.000  H
  H15      1.0000 0.47020  0.90420  0.08460  Biso   1.000  H
  H16      1.0000 0.52980  0.09580  0.91540  Biso   1.000  H
  C15      1.0000 0.62910  0.95880  0.15210  Biso   1.000  C
  C16      1.0000 0.37090  0.04120  0.84790  Biso   1.000  C
  H17      1.0000 0.70020  0.98120  0.08110  Biso   1.000  H
  H18      1.0000 0.29980  0.01880  0.91890  Biso   1.000  H
  H19      1.0000 0.58420  0.04710  0.16330  Biso   1.000  H
  H20      1.0000 0.41580  0.95290  0.83670  Biso   1.000  H
  C17      1.0000 0.70310  0.89490  0.24590  Biso   1.000  C
  C18      1.0000 0.29690  0.10510  0.75410  Biso   1.000  C
  H21      1.0000 0.63090  0.85730  0.31450  Biso   1.000  H
  H22      1.0000 0.36910  0.14270  0.68550  Biso   1.000  H
  H23      1.0000 0.76140  0.81590  0.22800  Biso   1.000  H
  H24      1.0000 0.23860  0.18410  0.77200  Biso   1.000  H
  N7       1.0000 0.79450  0.99770  0.26520  Biso   1.000  N
  N8       1.0000 0.20550  0.00230  0.73480  Biso   1.000  N
  H25      1.0000 0.77240  0.08640  0.24950  Biso   1.000  H
  H26      1.0000 0.22760  0.91360  0.75050  Biso   1.000  H
  C19      1.0000 0.91120  0.95940  0.30640  Biso   1.000  C
  C20      1.0000 0.08880  0.04060  0.69360  Biso   1.000  C
  O3       1.0000 0.95753  0.83782  0.32313  Biso   1.000  O
  O4       1.0000 0.04247  0.16218  0.67687  Biso   1.000  O
  N9       1.0000 0.97560  0.06870  0.32890  Biso   1.000  N
  N10      1.0000 0.02440  0.93130  0.67110  Biso   1.000  N
  H27      1.0000 0.93090  0.14840  0.32160  Biso   1.000  H
  H28      1.0000 0.06910  0.85160  0.67840  Biso   1.000  H
  C21      1.0000 0.10540  0.06500  0.36240  Biso   1.000  C
  C22      1.0000 0.89460  0.93500  0.63760  Biso   1.000  C
  C23      1.0000 0.18910  0.94610  0.38800  Biso   1.000  C
  C24      1.0000 0.81090  0.05390  0.61200  Biso   1.000  C
  H29      1.0000 0.15990  0.85690  0.38580  Biso   1.000  H
  H30      1.0000 0.84010  0.14310  0.61420  Biso   1.000  H
  C25      1.0000 0.31730  0.96340  0.41700  Biso   1.000  C
  C26      1.0000 0.68270  0.03660  0.58300  Biso   1.000  C
  H31      1.0000 0.37480  0.88480  0.43520  Biso   1.000  H
  H32      1.0000 0.62520  0.11520  0.56480  Biso   1.000  H
  C27      1.0000 0.36000  0.09410  0.41910  Biso   1.000  C
  C28      1.0000 0.64000  0.90590  0.58090  Biso   1.000  C
  H33      1.0000 0.44770  0.10360  0.43700  Biso   1.000  H
  H34      1.0000 0.55230  0.89640  0.56300  Biso   1.000  H
  N11      1.0000 0.27900  0.20980  0.39612  Biso   1.000  N
  N12      1.0000 0.72100  0.79020  0.60388  Biso   1.000  N
  C29      1.0000 0.15430  0.19360  0.36950  Biso   1.000  C
  C30      1.0000 0.84570  0.80640  0.63050  Biso   1.000  C
  H35      1.0000 0.09710  0.27330  0.35480  Biso   1.000  H
  H36      1.0000 0.90290  0.72670  0.64520  Biso   1.000  H
  O5       1.0000 0.59893  0.40774  0.59517  Biso   1.000  O
  O6       1.0000 0.40107  0.59226  0.40483  Biso   1.000  O
  O7       1.0000 0.46487  0.32610  0.50057  Biso   1.000  O
  O8       1.0000 0.53513  0.67390  0.49943  Biso   1.000  O
  C31      1.0000 0.51860  0.42340  0.52750  Biso   1.000  C
  C32      1.0000 0.48140  0.57660  0.47250  Biso   1.000  C
  O9       1.0000 0.85820  0.58080  0.47250  Biso   1.000  O
  O10      1.0000 0.14180  0.41920  0.52750  Biso   1.000  O
  N13      1.0000 0.24170  0.61270  0.70680  Biso   1.000  N
  N14      1.0000 0.75830  0.38730  0.29320  Biso   1.000  N
  O11      1.0000 0.29380  0.49440  0.71100  Biso   1.000  O
  O12      1.0000 0.70620  0.50560  0.28900  Biso   1.000  O
  O13      1.0000 0.26940  0.68300  0.76650  Biso   1.000  O
  O14      1.0000 0.73060  0.31700  0.23350  Biso   1.000  O
  O15      1.0000 0.16190  0.65830  0.64120  Biso   1.000  O
  O16      1.0000 0.83810  0.34170  0.35880  Biso   1.000  O
  H37      1.0000 0.88200  0.65100  0.42900  Biso   1.000  H
  H38      1.0000 0.11800  0.34900  0.57100  Biso   1.000  H
  H39      1.0000 0.85300  0.52100  0.44700  Biso   1.000  H
  H40      1.0000 0.14700  0.47900  0.55300  Biso   1.000  H
