data_image0
_cell_length_a       8.3131
_cell_length_b       8.4982
_cell_length_c       8.8252
_cell_angle_alpha    69.901
_cell_angle_beta     86.713
_cell_angle_gamma    82.023

_symmetry_space_group_name_H-M    "P 1"
_symmetry_int_tables_number       1

loop_
  _symmetry_equiv_pos_as_xyz
  'x, y, z'

loop_
  _atom_site_label
  _atom_site_occupancy
  _atom_site_fract_x
  _atom_site_fract_y
  _atom_site_fract_z
  _atom_site_thermal_displace_type
  _atom_site_B_iso_or_equiv
  _atom_site_type_symbol
  Cu1      1.0000 0.50000  0.00000  0.00000  Biso   1.000  Cu
  N1       1.0000 0.42960  0.25180  0.92300  Biso   1.000  N
  N2       1.0000 0.57040  0.74820  0.07700  Biso   1.000  N
  C1       1.0000 0.48630  0.35420  0.78510  Biso   1.000  C
  C2       1.0000 0.51370  0.64580  0.21490  Biso   1.000  C
  H1       1.0000 0.55950  0.30870  0.72280  Biso   1.000  H
  H2       1.0000 0.44050  0.69130  0.27720  Biso   1.000  H
  C3       1.0000 0.43910  0.52490  0.73360  Biso   1.000  C
  C4       1.0000 0.56090  0.47510  0.26640  Biso   1.000  C
  H3       1.0000 0.47950  0.59370  0.63660  Biso   1.000  H
  H4       1.0000 0.52050  0.40630  0.36340  Biso   1.000  H
  C5       1.0000 0.33200  0.59540  0.82450  Biso   1.000  C
  C6       1.0000 0.66800  0.40460  0.17550  Biso   1.000  C
  H5       1.0000 0.29950  0.71130  0.78990  Biso   1.000  H
  H6       1.0000 0.70050  0.28870  0.21010  Biso   1.000  H
  C7       1.0000 0.27350  0.49020  0.96890  Biso   1.000  C
  C8       1.0000 0.72650  0.50980  0.03110  Biso   1.000  C
  C9       1.0000 0.32580  0.31780  0.01340  Biso   1.000  C
  C10      1.0000 0.67420  0.68220  0.98660  Biso   1.000  C
  H7       1.0000 0.28720  0.24570  0.10960  Biso   1.000  H
  H8       1.0000 0.71280  0.75430  0.89040  Biso   1.000  H
  N3       1.0000 0.17020  0.56400  0.06240  Biso   1.000  N
  N4       1.0000 0.82980  0.43600  0.93760  Biso   1.000  N
  H9       1.0000 0.14970  0.67240  0.02580  Biso   1.000  H
  H10      1.0000 0.85030  0.32760  0.97420  Biso   1.000  H
  C11      1.0000 0.09770  0.48300  0.20620  Biso   1.000  C
  C12      1.0000 0.90230  0.51700  0.79380  Biso   1.000  C
  O1       1.0000 0.10920  0.32940  0.26740  Biso   1.000  O
  O2       1.0000 0.89080  0.67060  0.73260  Biso   1.000  O
  N5       1.0000 0.01140  0.58680  0.27650  Biso   1.000  N
  N6       1.0000 0.98860  0.41320  0.72350  Biso   1.000  N
  H11      1.0000 0.99970  0.69410  0.22660  Biso   1.000  H
  H12      1.0000 0.00030  0.30590  0.77340  Biso   1.000  H
  C13      1.0000 0.93890  0.52040  0.43360  Biso   1.000  C
  C14      1.0000 0.06110  0.47960  0.56640  Biso   1.000  C
  H13      1.0000 0.89320  0.41870  0.44170  Biso   1.000  H
  H14      1.0000 0.10680  0.58130  0.55830  Biso   1.000  H
  H15      1.0000 0.85100  0.60240  0.44730  Biso   1.000  H
  H16      1.0000 0.14900  0.39760  0.55270  Biso   1.000  H
  O3       1.0000 0.49460  0.99920  0.22210  Biso   1.000  O
  O4       1.0000 0.50540  0.00080  0.77790  Biso   1.000  O
  C15      1.0000 0.61650  0.96960  0.31040  Biso   1.000  C
  C16      1.0000 0.38350  0.03040  0.68960  Biso   1.000  C
  O5       1.0000 0.75890  0.93540  0.26790  Biso   1.000  O
  O6       1.0000 0.24110  0.06460  0.73210  Biso   1.000  O
  C17      1.0000 0.58670  0.97560  0.47940  Biso   1.000  C
  C18      1.0000 0.41330  0.02440  0.52060  Biso   1.000  C
  H17      1.0000 0.62430  0.86520  0.55580  Biso   1.000  H
  H18      1.0000 0.37570  0.13480  0.44420  Biso   1.000  H
  H19      1.0000 0.65220  0.05530  0.49370  Biso   1.000  H
  H20      1.0000 0.34780  0.94470  0.50630  Biso   1.000  H
  O7       1.0000 0.19870  0.91370  0.05490  Biso   1.000  O
  O8       1.0000 0.80130  0.08630  0.94510  Biso   1.000  O
  O9       1.0000 0.06640  0.98880  0.31630  Biso   1.000  O
  O10      1.0000 0.93360  0.01120  0.68370  Biso   1.000  O
