data_image0
_cell_length_a       18.4348
_cell_length_b       7.949
_cell_length_c       15.9297
_cell_angle_alpha    90
_cell_angle_beta     90
_cell_angle_gamma    90

_symmetry_space_group_name_H-M    "P 1"
_symmetry_int_tables_number       1

loop_
  _symmetry_equiv_pos_as_xyz
  'x, y, z'

loop_
  _atom_site_label
  _atom_site_occupancy
  _atom_site_fract_x
  _atom_site_fract_y
  _atom_site_fract_z
  _atom_site_thermal_displace_type
  _atom_site_B_iso_or_equiv
  _atom_site_type_symbol
  Cu1      1.0000 0.15701  0.14819  0.75119  Biso   1.000  Cu
  Cu2      1.0000 0.84299  0.85181  0.25119  Biso   1.000  Cu
  Cu3      1.0000 0.65701  0.85181  0.75119  Biso   1.000  Cu
  Cu4      1.0000 0.34299  0.14819  0.25119  Biso   1.000  Cu
  N1       1.0000 0.17263  0.19460  0.87509  Biso   1.000  N
  N2       1.0000 0.82737  0.80540  0.37509  Biso   1.000  N
  N3       1.0000 0.67263  0.80540  0.87509  Biso   1.000  N
  N4       1.0000 0.32737  0.19460  0.37509  Biso   1.000  N
  C1       1.0000 0.13029  0.12380  0.93400  Biso   1.000  C
  C2       1.0000 0.86971  0.87620  0.43400  Biso   1.000  C
  C3       1.0000 0.63029  0.87620  0.93400  Biso   1.000  C
  C4       1.0000 0.36971  0.12380  0.43400  Biso   1.000  C
  H1       1.0000 0.09240  0.05400  0.91770  Biso   1.000  H
  H2       1.0000 0.90760  0.94600  0.41770  Biso   1.000  H
  H3       1.0000 0.59240  0.94600  0.91770  Biso   1.000  H
  H4       1.0000 0.40760  0.05400  0.41770  Biso   1.000  H
  C5       1.0000 0.14223  0.15320  0.01854  Biso   1.000  C
  C6       1.0000 0.85777  0.84680  0.51854  Biso   1.000  C
  C7       1.0000 0.64223  0.84680  0.01854  Biso   1.000  C
  C8       1.0000 0.35777  0.15320  0.51854  Biso   1.000  C
  H5       1.0000 0.11220  0.10380  0.05840  Biso   1.000  H
  H6       1.0000 0.88780  0.89620  0.55840  Biso   1.000  H
  H7       1.0000 0.61220  0.89620  0.05840  Biso   1.000  H
  H8       1.0000 0.38780  0.10380  0.55840  Biso   1.000  H
  C9       1.0000 0.19854  0.25530  0.04375  Biso   1.000  C
  C10      1.0000 0.80146  0.74470  0.54375  Biso   1.000  C
  C11      1.0000 0.69854  0.74470  0.04375  Biso   1.000  C
  C12      1.0000 0.30146  0.25530  0.54375  Biso   1.000  C
  H9       1.0000 0.20590  0.27830  0.10040  Biso   1.000  H
  H10      1.0000 0.79410  0.72170  0.60040  Biso   1.000  H
  H11      1.0000 0.70590  0.72170  0.10040  Biso   1.000  H
  H12      1.0000 0.29410  0.27830  0.60040  Biso   1.000  H
  C13      1.0000 0.24469  0.32410  0.98257  Biso   1.000  C
  C14      1.0000 0.75531  0.67590  0.48257  Biso   1.000  C
  C15      1.0000 0.74469  0.67590  0.98257  Biso   1.000  C
  C16      1.0000 0.25531  0.32410  0.48257  Biso   1.000  C
  C17      1.0000 0.22798  0.29380  0.89884  Biso   1.000  C
  C18      1.0000 0.77202  0.70620  0.39884  Biso   1.000  C
  C19      1.0000 0.72798  0.70620  0.89884  Biso   1.000  C
  C20      1.0000 0.27202  0.29380  0.39884  Biso   1.000  C
  H13      1.0000 0.25630  0.34420  0.85760  Biso   1.000  H
  H14      1.0000 0.74370  0.65580  0.35760  Biso   1.000  H
  H15      1.0000 0.75630  0.65580  0.85760  Biso   1.000  H
  H16      1.0000 0.24370  0.34420  0.35760  Biso   1.000  H
  N5       1.0000 0.30456  0.41660  0.00936  Biso   1.000  N
  N6       1.0000 0.69544  0.58340  0.50936  Biso   1.000  N
  N7       1.0000 0.80456  0.58340  0.00936  Biso   1.000  N
  N8       1.0000 0.19544  0.41660  0.50936  Biso   1.000  N
  H17      1.0000 0.30850  0.43510  0.06240  Biso   1.000  H
  H18      1.0000 0.69150  0.56490  0.56240  Biso   1.000  H
  H19      1.0000 0.80850  0.56490  0.06240  Biso   1.000  H
  H20      1.0000 0.19150  0.43510  0.56240  Biso   1.000  H
  C21      1.0000 0.35825  0.48140  0.95789  Biso   1.000  C
  C22      1.0000 0.64175  0.51860  0.45789  Biso   1.000  C
  C23      1.0000 0.85825  0.51860  0.95789  Biso   1.000  C
  C24      1.0000 0.14175  0.48140  0.45789  Biso   1.000  C
  O1       1.0000 0.35101  0.49240  0.88163  Biso   1.000  O
  O2       1.0000 0.64899  0.50760  0.38163  Biso   1.000  O
  O3       1.0000 0.85101  0.50760  0.88163  Biso   1.000  O
  O4       1.0000 0.14899  0.49240  0.38163  Biso   1.000  O
  N9       1.0000 0.41890  0.53180  0.99818  Biso   1.000  N
  N10      1.0000 0.58110  0.46820  0.49818  Biso   1.000  N
  N11      1.0000 0.91890  0.46820  0.99818  Biso   1.000  N
  N12      1.0000 0.08110  0.53180  0.49818  Biso   1.000  N
  H21      1.0000 0.42250  0.51920  0.05160  Biso   1.000  H
  H22      1.0000 0.57750  0.48080  0.55160  Biso   1.000  H
  H23      1.0000 0.92250  0.48080  0.05160  Biso   1.000  H
  H24      1.0000 0.07750  0.51920  0.55160  Biso   1.000  H
  C25      1.0000 0.47830  0.60760  0.95122  Biso   1.000  C
  C26      1.0000 0.52170  0.39240  0.45122  Biso   1.000  C
  C27      1.0000 0.97830  0.39240  0.95122  Biso   1.000  C
  C28      1.0000 0.02170  0.60760  0.45122  Biso   1.000  C
  H25      1.0000 0.50150  0.69160  0.98630  Biso   1.000  H
  H26      1.0000 0.49850  0.30840  0.48630  Biso   1.000  H
  H27      1.0000 0.00150  0.30840  0.98630  Biso   1.000  H
  H28      1.0000 0.99850  0.69160  0.48630  Biso   1.000  H
  H29      1.0000 0.45840  0.66490  0.90260  Biso   1.000  H
  H30      1.0000 0.54160  0.33510  0.40260  Biso   1.000  H
  H31      1.0000 0.95840  0.33510  0.90260  Biso   1.000  H
  H32      1.0000 0.04160  0.66490  0.40260  Biso   1.000  H
  C29      1.0000 0.53579  0.48260  0.92154  Biso   1.000  C
  C30      1.0000 0.46421  0.51740  0.42154  Biso   1.000  C
  C31      1.0000 0.03579  0.51740  0.92154  Biso   1.000  C
  C32      1.0000 0.96421  0.48260  0.42154  Biso   1.000  C
  H33      1.0000 0.51240  0.39380  0.88970  Biso   1.000  H
  H34      1.0000 0.48760  0.60620  0.38970  Biso   1.000  H
  H35      1.0000 0.01240  0.60620  0.88970  Biso   1.000  H
  H36      1.0000 0.98760  0.39380  0.38970  Biso   1.000  H
  H37      1.0000 0.56940  0.53980  0.88440  Biso   1.000  H
  H38      1.0000 0.43060  0.46020  0.38440  Biso   1.000  H
  H39      1.0000 0.06940  0.46020  0.88440  Biso   1.000  H
  H40      1.0000 0.93060  0.53980  0.38440  Biso   1.000  H
  C33      1.0000 0.57783  0.40490  0.99409  Biso   1.000  C
  C34      1.0000 0.42217  0.59510  0.49409  Biso   1.000  C
  C35      1.0000 0.07783  0.59510  0.99409  Biso   1.000  C
  C36      1.0000 0.92217  0.40490  0.49409  Biso   1.000  C
  H41      1.0000 0.59220  0.49220  0.03320  Biso   1.000  H
  H42      1.0000 0.40780  0.50780  0.53320  Biso   1.000  H
  H43      1.0000 0.09220  0.50780  0.03320  Biso   1.000  H
  H44      1.0000 0.90780  0.49220  0.53320  Biso   1.000  H
  H45      1.0000 0.54710  0.32550  0.02370  Biso   1.000  H
  H46      1.0000 0.45290  0.67450  0.52370  Biso   1.000  H
  H47      1.0000 0.04710  0.67450  0.02370  Biso   1.000  H
  H48      1.0000 0.95290  0.32550  0.52370  Biso   1.000  H
  N13      1.0000 0.64202  0.31890  0.96271  Biso   1.000  N
  N14      1.0000 0.35798  0.68110  0.46271  Biso   1.000  N
  N15      1.0000 0.14202  0.68110  0.96271  Biso   1.000  N
  N16      1.0000 0.85798  0.31890  0.46271  Biso   1.000  N
  H49      1.0000 0.64880  0.30970  0.90950  Biso   1.000  H
  H50      1.0000 0.35120  0.69030  0.40950  Biso   1.000  H
  H51      1.0000 0.14880  0.69030  0.90950  Biso   1.000  H
  H52      1.0000 0.85120  0.30970  0.40950  Biso   1.000  H
  C37      1.0000 0.69075  0.25360  0.01633  Biso   1.000  C
  C38      1.0000 0.30925  0.74640  0.51633  Biso   1.000  C
  C39      1.0000 0.19075  0.74640  0.01633  Biso   1.000  C
  C40      1.0000 0.80925  0.25360  0.51633  Biso   1.000  C
  O5       1.0000 0.68168  0.24880  0.09275  Biso   1.000  O
  O6       1.0000 0.31832  0.75120  0.59275  Biso   1.000  O
  O7       1.0000 0.18168  0.75120  0.09275  Biso   1.000  O
  O8       1.0000 0.81832  0.24880  0.59275  Biso   1.000  O
  N17      1.0000 0.75253  0.18980  0.97801  Biso   1.000  N
  N18      1.0000 0.24747  0.81020  0.47801  Biso   1.000  N
  N19      1.0000 0.25253  0.81020  0.97801  Biso   1.000  N
  N20      1.0000 0.74747  0.18980  0.47801  Biso   1.000  N
  H53      1.0000 0.75740  0.20920  0.92520  Biso   1.000  H
  H54      1.0000 0.24260  0.79080  0.42520  Biso   1.000  H
  H55      1.0000 0.25740  0.79080  0.92520  Biso   1.000  H
  H56      1.0000 0.74260  0.20920  0.42520  Biso   1.000  H
  C41      1.0000 0.80767  0.09720  0.01679  Biso   1.000  C
  C42      1.0000 0.19233  0.90280  0.51679  Biso   1.000  C
  C43      1.0000 0.30767  0.90280  0.01679  Biso   1.000  C
  C44      1.0000 0.69233  0.09720  0.51679  Biso   1.000  C
  C45      1.0000 0.80547  0.04580  0.10047  Biso   1.000  C
  C46      1.0000 0.19453  0.95420  0.60047  Biso   1.000  C
  C47      1.0000 0.30547  0.95420  0.10047  Biso   1.000  C
  C48      1.0000 0.69453  0.04580  0.60047  Biso   1.000  C
  H57      1.0000 0.76750  0.08200  0.13440  Biso   1.000  H
  H58      1.0000 0.23250  0.91800  0.63440  Biso   1.000  H
  H59      1.0000 0.26750  0.91800  0.13440  Biso   1.000  H
  H60      1.0000 0.73250  0.08200  0.63440  Biso   1.000  H
  N21      1.0000 0.85682  0.94540  0.13343  Biso   1.000  N
  N22      1.0000 0.14318  0.05460  0.63343  Biso   1.000  N
  N23      1.0000 0.35682  0.05460  0.13343  Biso   1.000  N
  N24      1.0000 0.64318  0.94540  0.63343  Biso   1.000  N
  C49      1.0000 0.91313  0.89740  0.08583  Biso   1.000  C
  C50      1.0000 0.08687  0.10260  0.58583  Biso   1.000  C
  C51      1.0000 0.41313  0.10260  0.08583  Biso   1.000  C
  C52      1.0000 0.58687  0.89740  0.58583  Biso   1.000  C
  H61      1.0000 0.94870  0.82850  0.10900  Biso   1.000  H
  H62      1.0000 0.05130  0.17150  0.60900  Biso   1.000  H
  H63      1.0000 0.44870  0.17150  0.10900  Biso   1.000  H
  H64      1.0000 0.55130  0.82850  0.60900  Biso   1.000  H
  C53      1.0000 0.91963  0.94760  0.00343  Biso   1.000  C
  C54      1.0000 0.08037  0.05240  0.50343  Biso   1.000  C
  C55      1.0000 0.41963  0.05240  0.00343  Biso   1.000  C
  C56      1.0000 0.58037  0.94760  0.50343  Biso   1.000  C
  H65      1.0000 0.95940  0.91330  0.97180  Biso   1.000  H
  H66      1.0000 0.04060  0.08670  0.47180  Biso   1.000  H
  H67      1.0000 0.45940  0.08670  0.97180  Biso   1.000  H
  H68      1.0000 0.54060  0.91330  0.47180  Biso   1.000  H
  C57      1.0000 0.86680  0.04940  0.96758  Biso   1.000  C
  C58      1.0000 0.13320  0.95060  0.46758  Biso   1.000  C
  C59      1.0000 0.36680  0.95060  0.96758  Biso   1.000  C
  C60      1.0000 0.63320  0.04940  0.46758  Biso   1.000  C
  H69      1.0000 0.87080  0.08490  0.91210  Biso   1.000  H
  H70      1.0000 0.12920  0.91510  0.41210  Biso   1.000  H
  H71      1.0000 0.37080  0.91510  0.91210  Biso   1.000  H
  H72      1.0000 0.62920  0.08490  0.41210  Biso   1.000  H
  O9       1.0000 0.26080  0.16340  0.73283  Biso   1.000  O
  O10      1.0000 0.73920  0.83660  0.23283  Biso   1.000  O
  O11      1.0000 0.76080  0.83660  0.73283  Biso   1.000  O
  O12      1.0000 0.23920  0.16340  0.23283  Biso   1.000  O
  C61      1.0000 0.30487  0.05370  0.76137  Biso   1.000  C
  C62      1.0000 0.69513  0.94630  0.26137  Biso   1.000  C
  C63      1.0000 0.80487  0.94630  0.76137  Biso   1.000  C
  C64      1.0000 0.19513  0.05370  0.26137  Biso   1.000  C
  O13      1.0000 0.28679  0.91658  0.79219  Biso   1.000  O
  O14      1.0000 0.71321  0.08342  0.29219  Biso   1.000  O
  O15      1.0000 0.78679  0.08342  0.79219  Biso   1.000  O
  O16      1.0000 0.21321  0.91658  0.29219  Biso   1.000  O
  C65      1.0000 0.38483  0.10220  0.75816  Biso   1.000  C
  C66      1.0000 0.61517  0.89780  0.25816  Biso   1.000  C
  C67      1.0000 0.88483  0.89780  0.75816  Biso   1.000  C
  C68      1.0000 0.11517  0.10220  0.25816  Biso   1.000  C
  H73      1.0000 0.39240  0.18100  0.71250  Biso   1.000  H
  H74      1.0000 0.60760  0.81900  0.21250  Biso   1.000  H
  H75      1.0000 0.89240  0.81900  0.71250  Biso   1.000  H
  H76      1.0000 0.10760  0.18100  0.21250  Biso   1.000  H
  H77      1.0000 0.39780  0.15860  0.81000  Biso   1.000  H
  H78      1.0000 0.60220  0.84140  0.31000  Biso   1.000  H
  H79      1.0000 0.89780  0.84140  0.81000  Biso   1.000  H
  H80      1.0000 0.10220  0.15860  0.31000  Biso   1.000  H
  C69      1.0000 0.43416  0.95160  0.74589  Biso   1.000  C
  C70      1.0000 0.56584  0.04840  0.24589  Biso   1.000  C
  C71      1.0000 0.93416  0.04840  0.74589  Biso   1.000  C
  C72      1.0000 0.06584  0.95160  0.24589  Biso   1.000  C
  H81      1.0000 0.41880  0.86320  0.78390  Biso   1.000  H
  H82      1.0000 0.58120  0.13680  0.28390  Biso   1.000  H
  H83      1.0000 0.91880  0.13680  0.78390  Biso   1.000  H
  H84      1.0000 0.08120  0.86320  0.28390  Biso   1.000  H
  H85      1.0000 0.42780  0.91010  0.68910  Biso   1.000  H
  H86      1.0000 0.57220  0.08990  0.18910  Biso   1.000  H
  H87      1.0000 0.92780  0.08990  0.68910  Biso   1.000  H
  H88      1.0000 0.07220  0.91010  0.18910  Biso   1.000  H
  C73      1.0000 0.51447  0.98510  0.76026  Biso   1.000  C
  C74      1.0000 0.48553  0.01490  0.26026  Biso   1.000  C
  C75      1.0000 0.01447  0.01490  0.76026  Biso   1.000  C
  C76      1.0000 0.98553  0.98510  0.26026  Biso   1.000  C
  O17      1.0000 0.53814  0.13132  0.76300  Biso   1.000  O
  O18      1.0000 0.46186  0.86868  0.26300  Biso   1.000  O
  O19      1.0000 0.03814  0.86868  0.76300  Biso   1.000  O
  O20      1.0000 0.96186  0.13132  0.26300  Biso   1.000  O
  O21      1.0000 0.55280  0.85200  0.76722  Biso   1.000  O
  O22      1.0000 0.44720  0.14800  0.26722  Biso   1.000  O
  O23      1.0000 0.05280  0.14800  0.76722  Biso   1.000  O
  O24      1.0000 0.94720  0.85200  0.26722  Biso   1.000  O
  O25      1.0000 0.14814  0.41710  0.69487  Biso   1.000  O
  O26      1.0000 0.85186  0.58290  0.19487  Biso   1.000  O
  O27      1.0000 0.64814  0.58290  0.69487  Biso   1.000  O
  O28      1.0000 0.35186  0.41710  0.19487  Biso   1.000  O
  O29      1.0000 0.01733  0.56950  0.67034  Biso   1.000  O
  O30      1.0000 0.98267  0.43050  0.17034  Biso   1.000  O
  O31      1.0000 0.51733  0.43050  0.67034  Biso   1.000  O
  O32      1.0000 0.48267  0.56950  0.17034  Biso   1.000  O
  O33      1.0000 0.32901  0.71030  0.28458  Biso   1.000  O
  O34      1.0000 0.67099  0.28970  0.78458  Biso   1.000  O
  O35      1.0000 0.82901  0.28970  0.28458  Biso   1.000  O
  O36      1.0000 0.17099  0.71030  0.78458  Biso   1.000  O
  O37      1.0000 0.62021  0.47380  0.20685  Biso   1.000  O
  O38      1.0000 0.37979  0.52620  0.70685  Biso   1.000  O
  O39      1.0000 0.12021  0.52620  0.20685  Biso   1.000  O
  O40      1.0000 0.87979  0.47380  0.70685  Biso   1.000  O
  H89      1.0000 0.97900  0.52900  0.67900  Biso   1.000  H
  H90      1.0000 0.02100  0.47100  0.17900  Biso   1.000  H
  H91      1.0000 0.47900  0.47100  0.67900  Biso   1.000  H
  H92      1.0000 0.52100  0.52900  0.17900  Biso   1.000  H
  H93      1.0000 0.01510  0.66000  0.69500  Biso   1.000  H
  H94      1.0000 0.98490  0.34000  0.19500  Biso   1.000  H
  H95      1.0000 0.51510  0.34000  0.69500  Biso   1.000  H
  H96      1.0000 0.48490  0.66000  0.19500  Biso   1.000  H
  H97      1.0000 0.10400  0.44000  0.69480  Biso   1.000  H
  H98      1.0000 0.89600  0.56000  0.19480  Biso   1.000  H
  H99      1.0000 0.60400  0.56000  0.69480  Biso   1.000  H
  H100     1.0000 0.39600  0.44000  0.19480  Biso   1.000  H
  H101     1.0000 0.16940  0.51000  0.72300  Biso   1.000  H
  H102     1.0000 0.83060  0.49000  0.22300  Biso   1.000  H
  H103     1.0000 0.66940  0.49000  0.72300  Biso   1.000  H
  H104     1.0000 0.33060  0.51000  0.22300  Biso   1.000  H
  H105     1.0000 0.29530  0.77100  0.27760  Biso   1.000  H
  H106     1.0000 0.70470  0.22900  0.77760  Biso   1.000  H
  H107     1.0000 0.79530  0.22900  0.27760  Biso   1.000  H
  H108     1.0000 0.20470  0.77100  0.77760  Biso   1.000  H
  H109     1.0000 0.36840  0.75100  0.27500  Biso   1.000  H
  H110     1.0000 0.63160  0.24900  0.77500  Biso   1.000  H
  H111     1.0000 0.86840  0.24900  0.27500  Biso   1.000  H
  H112     1.0000 0.13160  0.75100  0.77500  Biso   1.000  H
  H113     1.0000 0.63350  0.47300  0.25400  Biso   1.000  H
  H114     1.0000 0.36650  0.52700  0.75400  Biso   1.000  H
  H115     1.0000 0.13350  0.52700  0.25400  Biso   1.000  H
  H116     1.0000 0.86650  0.47300  0.75400  Biso   1.000  H
  H117     1.0000 0.64330  0.39700  0.17800  Biso   1.000  H
  H118     1.0000 0.35670  0.60300  0.67800  Biso   1.000  H
  H119     1.0000 0.14330  0.60300  0.17800  Biso   1.000  H
  H120     1.0000 0.85670  0.39700  0.67800  Biso   1.000  H
