data_image0
_cell_length_a       9.9763
_cell_length_b       10.171
_cell_length_c       11.3001
_cell_angle_alpha    110.125
_cell_angle_beta     108.317
_cell_angle_gamma    92.168

_symmetry_space_group_name_H-M    "P 1"
_symmetry_int_tables_number       1

loop_
  _symmetry_equiv_pos_as_xyz
  'x, y, z'

loop_
  _atom_site_label
  _atom_site_occupancy
  _atom_site_fract_x
  _atom_site_fract_y
  _atom_site_fract_z
  _atom_site_thermal_displace_type
  _atom_site_B_iso_or_equiv
  _atom_site_type_symbol
  Cu1      1.0000 0.75362  0.86709  0.95458  Biso   1.000  Cu
  Cu2      1.0000 0.24638  0.13291  0.04542  Biso   1.000  Cu
  O1       1.0000 0.83296  0.01059  0.90616  Biso   1.000  O
  O2       1.0000 0.16704  0.98941  0.09384  Biso   1.000  O
  N1       1.0000 0.55380  0.87950  0.85150  Biso   1.000  N
  N2       1.0000 0.44620  0.12050  0.14850  Biso   1.000  N
  O3       1.0000 0.78847  0.68528  0.78640  Biso   1.000  O
  O4       1.0000 0.21153  0.31472  0.21360  Biso   1.000  O
  N3       1.0000 0.64380  0.76490  0.02720  Biso   1.000  N
  N4       1.0000 0.35620  0.23510  0.97280  Biso   1.000  N
  C1       1.0000 0.50100  0.76410  0.98520  Biso   1.000  C
  C2       1.0000 0.49900  0.23590  0.01480  Biso   1.000  C
  C3       1.0000 0.44960  0.82850  0.88480  Biso   1.000  C
  C4       1.0000 0.55040  0.17150  0.11520  Biso   1.000  C
  P1       1.0000 0.93491  0.00740  0.83114  Biso   1.000  P
  P2       1.0000 0.06509  0.99260  0.16886  Biso   1.000  P
  P3       1.0000 0.68310  0.58030  0.65525  Biso   1.000  P
  P4       1.0000 0.31690  0.41970  0.34475  Biso   1.000  P
  O5       1.0000 0.98214  0.85907  0.78716  Biso   1.000  O
  O6       1.0000 0.01786  0.14093  0.21284  Biso   1.000  O
  H1       1.0000 0.91150  0.79830  0.73760  Biso   1.000  H
  H2       1.0000 0.08850  0.20170  0.26240  Biso   1.000  H
  O7       1.0000 0.06676  0.12036  0.90476  Biso   1.000  O
  O8       1.0000 0.93324  0.87964  0.09524  Biso   1.000  O
  O9       1.0000 0.55280  0.51630  0.67281  Biso   1.000  O
  O10      1.0000 0.44720  0.48370  0.32719  Biso   1.000  O
  O11      1.0000 0.64010  0.65130  0.55159  Biso   1.000  O
  O12      1.0000 0.35990  0.34870  0.44841  Biso   1.000  O
  H3       1.0000 0.58300  0.59430  0.48050  Biso   1.000  H
  H4       1.0000 0.41700  0.40570  0.51950  Biso   1.000  H
  C5       1.0000 0.99790  0.13230  0.58650  Biso   1.000  C
  C6       1.0000 0.00210  0.86770  0.41350  Biso   1.000  C
  H5       1.0000 0.99640  0.22250  0.64460  Biso   1.000  H
  H6       1.0000 0.00360  0.77750  0.35540  Biso   1.000  H
  C7       1.0000 0.91960  0.01500  0.58380  Biso   1.000  C
  C8       1.0000 0.08040  0.98500  0.41620  Biso   1.000  C
  C9       1.0000 0.70050  0.70890  0.11890  Biso   1.000  C
  C10      1.0000 0.29950  0.29110  0.88110  Biso   1.000  C
  H7       1.0000 0.79860  0.70840  0.14730  Biso   1.000  H
  H8       1.0000 0.20140  0.29160  0.85270  Biso   1.000  H
  C11      1.0000 0.51690  0.93780  0.75930  Biso   1.000  C
  C12      1.0000 0.48310  0.06220  0.24070  Biso   1.000  C
  H9       1.0000 0.58860  0.97390  0.73710  Biso   1.000  H
  H10      1.0000 0.41140  0.02610  0.26290  Biso   1.000  H
  C13      1.0000 0.83670  0.03080  0.67820  Biso   1.000  C
  C14      1.0000 0.16330  0.96920  0.32180  Biso   1.000  C
  H11      1.0000 0.74940  0.96160  0.63180  Biso   1.000  H
  H12      1.0000 0.25060  0.03840  0.36820  Biso   1.000  H
  H13      1.0000 0.80960  0.12440  0.70080  Biso   1.000  H
  H14      1.0000 0.19040  0.87560  0.29920  Biso   1.000  H
  C15      1.0000 0.30840  0.83930  0.82730  Biso   1.000  C
  C16      1.0000 0.69160  0.16070  0.17270  Biso   1.000  C
  H15      1.0000 0.23830  0.80680  0.85340  Biso   1.000  H
  H16      1.0000 0.76170  0.19320  0.14660  Biso   1.000  H
  C17      1.0000 0.27220  0.89830  0.73130  Biso   1.000  C
  C18      1.0000 0.72780  0.10170  0.26870  Biso   1.000  C
  H17      1.0000 0.17740  0.90530  0.69100  Biso   1.000  H
  H18      1.0000 0.82260  0.09470  0.30900  Biso   1.000  H
  C19      1.0000 0.37800  0.94680  0.69560  Biso   1.000  C
  C20      1.0000 0.62200  0.05320  0.30440  Biso   1.000  C
  H19      1.0000 0.35560  0.98510  0.62940  Biso   1.000  H
  H20      1.0000 0.64440  0.01490  0.37060  Biso   1.000  H
  C21      1.0000 0.77170  0.43530  0.59090  Biso   1.000  C
  C22      1.0000 0.22830  0.56470  0.40910  Biso   1.000  C
  H21      1.0000 0.81060  0.39750  0.66030  Biso   1.000  H
  H22      1.0000 0.18940  0.60250  0.33970  Biso   1.000  H
  H23      1.0000 0.70040  0.36070  0.51540  Biso   1.000  H
  H24      1.0000 0.29960  0.63930  0.48460  Biso   1.000  H
  C23      1.0000 0.92190  0.88300  0.49620  Biso   1.000  C
  C24      1.0000 0.07810  0.11700  0.50380  Biso   1.000  C
  H25      1.0000 0.86920  0.80330  0.49230  Biso   1.000  H
  H26      1.0000 0.13080  0.19670  0.50770  Biso   1.000  H
  C25      1.0000 0.89070  0.47000  0.54540  Biso   1.000  C
  C26      1.0000 0.10930  0.53000  0.45460  Biso   1.000  C
  C27      1.0000 0.85970  0.46880  0.41630  Biso   1.000  C
  C28      1.0000 0.14030  0.53120  0.58370  Biso   1.000  C
  H27      1.0000 0.76510  0.44800  0.35860  Biso   1.000  H
  H28      1.0000 0.23490  0.55200  0.64140  Biso   1.000  H
  C29      1.0000 0.03180  0.50180  0.62770  Biso   1.000  C
  C30      1.0000 0.96820  0.49820  0.37230  Biso   1.000  C
  H29      1.0000 0.05510  0.50370  0.71470  Biso   1.000  H
  H30      1.0000 0.94490  0.49630  0.28530  Biso   1.000  H
  C31      1.0000 0.41390  0.70660  0.03560  Biso   1.000  C
  C32      1.0000 0.58610  0.29340  0.96440  Biso   1.000  C
  H31      1.0000 0.31570  0.70580  0.00520  Biso   1.000  H
  H32      1.0000 0.68430  0.29420  0.99480  Biso   1.000  H
  C33      1.0000 0.47450  0.65080  0.13100  Biso   1.000  C
  C34      1.0000 0.52550  0.34920  0.86900  Biso   1.000  C
  H33      1.0000 0.41780  0.61280  0.16670  Biso   1.000  H
  H34      1.0000 0.58220  0.38720  0.83330  Biso   1.000  H
  C35      1.0000 0.61870  0.65170  0.17290  Biso   1.000  C
  C36      1.0000 0.38130  0.34830  0.82710  Biso   1.000  C
  H35      1.0000 0.66130  0.61400  0.23720  Biso   1.000  H
  H36      1.0000 0.33870  0.38600  0.76280  Biso   1.000  H
  O13      1.0000 0.04800  0.61580  0.96590  Biso   1.000  O
  O14      1.0000 0.95200  0.38420  0.03410  Biso   1.000  O
  H37      1.0000 0.09400  0.63600  0.05900  Biso   1.000  H
  H38      1.0000 0.90600  0.36400  0.94100  Biso   1.000  H
