data_image0
_cell_length_a       11.13
_cell_length_b       12.406
_cell_length_c       13.926
_cell_angle_alpha    71.952
_cell_angle_beta     72.257
_cell_angle_gamma    64.876

_symmetry_space_group_name_H-M    "P 1"
_symmetry_int_tables_number       1

loop_
  _symmetry_equiv_pos_as_xyz
  'x, y, z'

loop_
  _atom_site_label
  _atom_site_occupancy
  _atom_site_fract_x
  _atom_site_fract_y
  _atom_site_fract_z
  _atom_site_thermal_displace_type
  _atom_site_B_iso_or_equiv
  _atom_site_type_symbol
  H1       1.0000 0.27500  0.65300  0.21000  Biso   1.000  H
  H2       1.0000 0.72500  0.34700  0.79000  Biso   1.000  H
  Mo1      1.0000 0.93976  0.85954  0.22973  Biso   1.000  Mo
  Mo2      1.0000 0.06024  0.14046  0.77027  Biso   1.000  Mo
  Mo3      1.0000 0.08210  0.85765  0.99109  Biso   1.000  Mo
  Mo4      1.0000 0.91790  0.14235  0.00891  Biso   1.000  Mo
  Cu1      1.0000 0.06275  0.80391  0.46159  Biso   1.000  Cu
  Cu2      1.0000 0.93725  0.19609  0.53841  Biso   1.000  Cu
  Cu3      1.0000 0.03998  0.21013  0.21860  Biso   1.000  Cu
  Cu4      1.0000 0.96002  0.78987  0.78140  Biso   1.000  Cu
  P1       1.0000 0.21349  0.92283  0.24921  Biso   1.000  P
  P2       1.0000 0.78651  0.07717  0.75079  Biso   1.000  P
  P3       1.0000 0.85349  0.06218  0.37154  Biso   1.000  P
  P4       1.0000 0.14651  0.93782  0.62846  Biso   1.000  P
  O1       1.0000 0.05350  0.76140  0.12693  Biso   1.000  O
  O2       1.0000 0.94650  0.23860  0.87307  Biso   1.000  O
  O3       1.0000 0.92760  0.98090  0.08088  Biso   1.000  O
  O4       1.0000 0.07240  0.01910  0.91912  Biso   1.000  O
  O5       1.0000 0.25430  0.78320  0.96230  Biso   1.000  O
  O6       1.0000 0.74570  0.21680  0.03770  Biso   1.000  O
  O7       1.0000 0.18670  0.05850  0.23700  Biso   1.000  O
  O8       1.0000 0.81330  0.94150  0.76300  Biso   1.000  O
  O9       1.0000 0.91070  0.16260  0.33340  Biso   1.000  O
  O10      1.0000 0.08930  0.83740  0.66660  Biso   1.000  O
  O11      1.0000 0.20120  0.85550  0.36255  Biso   1.000  O
  O12      1.0000 0.79880  0.14450  0.63745  Biso   1.000  O
  O13      1.0000 0.91600  0.95930  0.45426  Biso   1.000  O
  O14      1.0000 0.08400  0.04070  0.54574  Biso   1.000  O
  O15      1.0000 0.99540  0.75780  0.33746  Biso   1.000  O
  O16      1.0000 0.00460  0.24220  0.66254  Biso   1.000  O
  O17      1.0000 0.12760  0.90400  0.19293  Biso   1.000  O
  O18      1.0000 0.87240  0.09600  0.80707  Biso   1.000  O
  O19      1.0000 0.85460  0.01390  0.27996  Biso   1.000  O
  O20      1.0000 0.14540  0.98610  0.72004  Biso   1.000  O
  O21      1.0000 0.01420  0.81120  0.92420  Biso   1.000  O
  O22      1.0000 0.98580  0.18880  0.07580  Biso   1.000  O
  O23      1.0000 0.79260  0.84220  0.23970  Biso   1.000  O
  O24      1.0000 0.20740  0.15780  0.76030  Biso   1.000  O
  N1       1.0000 0.16680  0.29760  0.13100  Biso   1.000  N
  N2       1.0000 0.83320  0.70240  0.86900  Biso   1.000  N
  N3       1.0000 0.90750  0.38470  0.20050  Biso   1.000  N
  N4       1.0000 0.09250  0.61530  0.79950  Biso   1.000  N
  N5       1.0000 0.19280  0.62780  0.48700  Biso   1.000  N
  N6       1.0000 0.80720  0.37220  0.51300  Biso   1.000  N
  N7       1.0000 0.93950  0.72540  0.56900  Biso   1.000  N
  N8       1.0000 0.06050  0.27460  0.43100  Biso   1.000  N
  C1       1.0000 0.32430  0.43590  0.02570  Biso   1.000  C
  C2       1.0000 0.67570  0.56410  0.97430  Biso   1.000  C
  H3       1.0000 0.37780  0.48220  0.99000  Biso   1.000  H
  H4       1.0000 0.62220  0.51780  0.01000  Biso   1.000  H
  C3       1.0000 0.38270  0.31050  0.04820  Biso   1.000  C
  C4       1.0000 0.61730  0.68950  0.95180  Biso   1.000  C
  H5       1.0000 0.47550  0.27110  0.02810  Biso   1.000  H
  H6       1.0000 0.52450  0.72890  0.97190  Biso   1.000  H
  C5       1.0000 0.29960  0.24490  0.10130  Biso   1.000  C
  C6       1.0000 0.70040  0.75510  0.89870  Biso   1.000  C
  H7       1.0000 0.33840  0.16040  0.11670  Biso   1.000  H
  H8       1.0000 0.66160  0.83960  0.88330  Biso   1.000  H
  C7       1.0000 0.18720  0.49200  0.05620  Biso   1.000  C
  C8       1.0000 0.81280  0.50800  0.94380  Biso   1.000  C
  H9       1.0000 0.14670  0.57650  0.04130  Biso   1.000  H
  H10      1.0000 0.85330  0.42350  0.95870  Biso   1.000  H
  C9       1.0000 0.10960  0.42080  0.10970  Biso   1.000  C
  C10      1.0000 0.89040  0.57920  0.89030  Biso   1.000  C
  C11      1.0000 0.96290  0.47000  0.14810  Biso   1.000  C
  C12      1.0000 0.03710  0.53000  0.85190  Biso   1.000  C
  C13      1.0000 0.88320  0.59330  0.13510  Biso   1.000  C
  C14      1.0000 0.11680  0.40670  0.86490  Biso   1.000  C
  H11      1.0000 0.92250  0.65130  0.10050  Biso   1.000  H
  H12      1.0000 0.07750  0.34870  0.89950  Biso   1.000  H
  C15      1.0000 0.74660  0.62880  0.17350  Biso   1.000  C
  C16      1.0000 0.25340  0.37120  0.82650  Biso   1.000  C
  H13      1.0000 0.69240  0.71100  0.16610  Biso   1.000  H
  H14      1.0000 0.30760  0.28900  0.83390  Biso   1.000  H
  C17      1.0000 0.69020  0.54100  0.22340  Biso   1.000  C
  C18      1.0000 0.30980  0.45900  0.77660  Biso   1.000  C
  H15      1.0000 0.59720  0.56300  0.24790  Biso   1.000  H
  H16      1.0000 0.40280  0.43700  0.75210  Biso   1.000  H
  C19      1.0000 0.77440  0.42020  0.23630  Biso   1.000  C
  C20      1.0000 0.22560  0.57980  0.76370  Biso   1.000  C
  H17      1.0000 0.73660  0.36120  0.27130  Biso   1.000  H
  H18      1.0000 0.26340  0.63880  0.72870  Biso   1.000  H
  C21      1.0000 0.32270  0.58560  0.43960  Biso   1.000  C
  C22      1.0000 0.67730  0.41440  0.56040  Biso   1.000  C
  H19      1.0000 0.36180  0.64100  0.39590  Biso   1.000  H
  H20      1.0000 0.63820  0.35900  0.60410  Biso   1.000  H
  C23      1.0000 0.40060  0.46350  0.45310  Biso   1.000  C
  C24      1.0000 0.59940  0.53650  0.54690  Biso   1.000  C
  H21      1.0000 0.49060  0.43720  0.41900  Biso   1.000  H
  H22      1.0000 0.50940  0.56280  0.58100  Biso   1.000  H
  C25      1.0000 0.34400  0.38070  0.51750  Biso   1.000  C
  C26      1.0000 0.65600  0.61930  0.48250  Biso   1.000  C
  H23      1.0000 0.39550  0.29780  0.52810  Biso   1.000  H
  H24      1.0000 0.60450  0.70220  0.47190  Biso   1.000  H
  C27      1.0000 0.20960  0.42260  0.56620  Biso   1.000  C
  C28      1.0000 0.79040  0.57740  0.43380  Biso   1.000  C
  H25      1.0000 0.16890  0.36840  0.61000  Biso   1.000  H
  H26      1.0000 0.83110  0.63160  0.39000  Biso   1.000  H
  C29      1.0000 0.13620  0.54750  0.54850  Biso   1.000  C
  C30      1.0000 0.86380  0.45250  0.45150  Biso   1.000  C
  C31      1.0000 0.99170  0.60240  0.59320  Biso   1.000  C
  C32      1.0000 0.00830  0.39760  0.40680  Biso   1.000  C
  C33      1.0000 0.91070  0.53610  0.65470  Biso   1.000  C
  C34      1.0000 0.08930  0.46390  0.34530  Biso   1.000  C
  H27      1.0000 0.94760  0.45150  0.67140  Biso   1.000  H
  H28      1.0000 0.05240  0.54850  0.32860  Biso   1.000  H
  C35      1.0000 0.77560  0.59740  0.69050  Biso   1.000  C
  C36      1.0000 0.22440  0.40260  0.30950  Biso   1.000  C
  H29      1.0000 0.71980  0.55450  0.73070  Biso   1.000  H
  H30      1.0000 0.28020  0.44550  0.26930  Biso   1.000  H
  C37      1.0000 0.72400  0.72220  0.66610  Biso   1.000  C
  C38      1.0000 0.27600  0.27780  0.33390  Biso   1.000  C
  H31      1.0000 0.63320  0.76520  0.69010  Biso   1.000  H
  H32      1.0000 0.36680  0.23480  0.30990  Biso   1.000  H
  C39      1.0000 0.80950  0.78360  0.60520  Biso   1.000  C
  C40      1.0000 0.19050  0.21640  0.39480  Biso   1.000  C
  H33      1.0000 0.77450  0.86830  0.58910  Biso   1.000  H
  H34      1.0000 0.22550  0.13170  0.41090  Biso   1.000  H
  C41      1.0000 0.39100  0.85770  0.19250  Biso   1.000  C
  C42      1.0000 0.60900  0.14230  0.80750  Biso   1.000  C
  H35      1.0000 0.44320  0.84180  0.24310  Biso   1.000  H
  H36      1.0000 0.55680  0.15820  0.75690  Biso   1.000  H
  H37      1.0000 0.40740  0.77970  0.17930  Biso   1.000  H
  H38      1.0000 0.59260  0.22030  0.82070  Biso   1.000  H
  C43      1.0000 0.44600  0.93250  0.09250  Biso   1.000  C
  C44      1.0000 0.55400  0.06750  0.90750  Biso   1.000  C
  C45      1.0000 0.38940  0.97400  0.00550  Biso   1.000  C
  C46      1.0000 0.61060  0.02600  0.99450  Biso   1.000  C
  H39      1.0000 0.31410  0.95760  0.00840  Biso   1.000  H
  H40      1.0000 0.68590  0.04240  0.99160  Biso   1.000  H
  C47      1.0000 0.55740  0.96060  0.08580  Biso   1.000  C
  C48      1.0000 0.44260  0.03940  0.91420  Biso   1.000  C
  H41      1.0000 0.59660  0.93530  0.14300  Biso   1.000  H
  H42      1.0000 0.40340  0.06470  0.85700  Biso   1.000  H
  C49      1.0000 0.67740  0.13960  0.42420  Biso   1.000  C
  C50      1.0000 0.32260  0.86040  0.57580  Biso   1.000  C
  H43      1.0000 0.67340  0.17210  0.48060  Biso   1.000  H
  H44      1.0000 0.32660  0.82790  0.51940  Biso   1.000  H
  H45      1.0000 0.63960  0.20830  0.37140  Biso   1.000  H
  H46      1.0000 0.36040  0.79170  0.62860  Biso   1.000  H
  C51      1.0000 0.58740  0.06580  0.46340  Biso   1.000  C
  C52      1.0000 0.41260  0.93420  0.53660  Biso   1.000  C
  C53      1.0000 0.52720  0.04400  0.56770  Biso   1.000  C
  C54      1.0000 0.47280  0.95600  0.43230  Biso   1.000  C
  H47      1.0000 0.54490  0.07320  0.61390  Biso   1.000  H
  H48      1.0000 0.45510  0.92680  0.38610  Biso   1.000  H
  C55      1.0000 0.55910  0.02090  0.39670  Biso   1.000  C
  C56      1.0000 0.44090  0.97910  0.60330  Biso   1.000  C
  H49      1.0000 0.59850  0.03440  0.32700  Biso   1.000  H
  H50      1.0000 0.40150  0.96560  0.67300  Biso   1.000  H
  O25      1.0000 0.34370  0.61970  0.15770  Biso   1.000  O
  O26      1.0000 0.65630  0.38030  0.84230  Biso   1.000  O
  O27      1.0000 0.55190  0.34680  0.20220  Biso   1.000  O
  O28      1.0000 0.44810  0.65320  0.79780  Biso   1.000  O
  H51      1.0000 0.37000  0.64900  0.08200  Biso   1.000  H
  H52      1.0000 0.63000  0.35100  0.91800  Biso   1.000  H
