data_image0
_cell_length_a       10.6221
_cell_length_b       10.9369
_cell_length_c       11.4714
_cell_angle_alpha    66.84
_cell_angle_beta     64.883
_cell_angle_gamma    84.088

_symmetry_space_group_name_H-M    "P 1"
_symmetry_int_tables_number       1

loop_
  _symmetry_equiv_pos_as_xyz
  'x, y, z'

loop_
  _atom_site_label
  _atom_site_occupancy
  _atom_site_fract_x
  _atom_site_fract_y
  _atom_site_fract_z
  _atom_site_thermal_displace_type
  _atom_site_B_iso_or_equiv
  _atom_site_type_symbol
  Cu1      1.0000 0.38315  0.77445  0.06355  Biso   1.000  Cu
  Cu2      1.0000 0.61685  0.22555  0.93645  Biso   1.000  Cu
  P1       1.0000 0.50887  0.92818  0.17517  Biso   1.000  P
  P2       1.0000 0.49113  0.07182  0.82483  Biso   1.000  P
  P3       1.0000 0.08659  0.69430  0.36548  Biso   1.000  P
  P4       1.0000 0.91341  0.30570  0.63452  Biso   1.000  P
  O1       1.0000 0.61227  0.04871  0.07810  Biso   1.000  O
  O2       1.0000 0.38773  0.95129  0.92190  Biso   1.000  O
  O3       1.0000 0.20500  0.79323  0.24693  Biso   1.000  O
  O4       1.0000 0.79500  0.20677  0.75307  Biso   1.000  O
  O5       1.0000 0.51542  0.82514  0.11574  Biso   1.000  O
  O6       1.0000 0.48458  0.17486  0.88426  Biso   1.000  O
  O7       1.0000 0.35784  0.97595  0.22776  Biso   1.000  O
  O8       1.0000 0.64216  0.02405  0.77224  Biso   1.000  O
  H1       1.0000 0.30160  0.91960  0.24270  Biso   1.000  H
  H2       1.0000 0.69840  0.08040  0.75730  Biso   1.000  H
  O9       1.0000 0.13246  0.61556  0.48826  Biso   1.000  O
  O10      1.0000 0.86754  0.38444  0.51174  Biso   1.000  O
  H3       1.0000 0.07690  0.55080  0.54550  Biso   1.000  H
  H4       1.0000 0.92310  0.44920  0.45450  Biso   1.000  H
  O11      1.0000 0.03563  0.59626  0.32871  Biso   1.000  O
  O12      1.0000 0.96437  0.40374  0.67129  Biso   1.000  O
  N1       1.0000 0.40290  0.57773  0.15950  Biso   1.000  N
  N2       1.0000 0.59710  0.42227  0.84050  Biso   1.000  N
  N3       1.0000 0.27750  0.69909  0.99400  Biso   1.000  N
  N4       1.0000 0.72250  0.30091  0.00600  Biso   1.000  N
  C1       1.0000 0.46530  0.52050  0.24390  Biso   1.000  C
  C2       1.0000 0.53470  0.47950  0.75610  Biso   1.000  C
  H5       1.0000 0.50620  0.57400  0.26640  Biso   1.000  H
  H6       1.0000 0.49380  0.42600  0.73360  Biso   1.000  H
  C3       1.0000 0.47170  0.38180  0.30060  Biso   1.000  C
  C4       1.0000 0.52830  0.61820  0.69940  Biso   1.000  C
  H7       1.0000 0.51430  0.34450  0.36150  Biso   1.000  H
  H8       1.0000 0.48570  0.65550  0.63850  Biso   1.000  H
  C5       1.0000 0.41510  0.30140  0.26600  Biso   1.000  C
  C6       1.0000 0.58490  0.69860  0.73400  Biso   1.000  C
  H9       1.0000 0.41990  0.20940  0.30230  Biso   1.000  H
  H10      1.0000 0.58010  0.79060  0.69770  Biso   1.000  H
  C7       1.0000 0.34920  0.35940  0.17480  Biso   1.000  C
  C8       1.0000 0.65080  0.64060  0.82520  Biso   1.000  C
  C9       1.0000 0.29060  0.28650  0.12720  Biso   1.000  C
  C10      1.0000 0.70940  0.71350  0.87280  Biso   1.000  C
  H11      1.0000 0.29520  0.19450  0.15690  Biso   1.000  H
  H12      1.0000 0.70480  0.80550  0.84310  Biso   1.000  H
  C11      1.0000 0.22850  0.34930  0.03970  Biso   1.000  C
  C12      1.0000 0.77150  0.65070  0.96030  Biso   1.000  C
  H13      1.0000 0.19130  0.29960  0.01040  Biso   1.000  H
  H14      1.0000 0.80870  0.70040  0.98960  Biso   1.000  H
  C13      1.0000 0.21910  0.49090  0.99170  Biso   1.000  C
  C14      1.0000 0.78090  0.50910  0.00830  Biso   1.000  C
  C15      1.0000 0.15880  0.56400  0.89850  Biso   1.000  C
  C16      1.0000 0.84120  0.43600  0.10150  Biso   1.000  C
  H15      1.0000 0.12080  0.52070  0.86410  Biso   1.000  H
  H16      1.0000 0.87920  0.47930  0.13590  Biso   1.000  H
  C17      1.0000 0.15670  0.69930  0.85960  Biso   1.000  C
  C18      1.0000 0.84330  0.30070  0.14040  Biso   1.000  C
  H17      1.0000 0.11550  0.74830  0.79980  Biso   1.000  H
  H18      1.0000 0.88450  0.25170  0.20020  Biso   1.000  H
  C19      1.0000 0.21660  0.76410  0.90960  Biso   1.000  C
  C20      1.0000 0.78340  0.23590  0.09040  Biso   1.000  C
  H19      1.0000 0.21350  0.85600  0.88270  Biso   1.000  H
  H20      1.0000 0.78650  0.14400  0.11730  Biso   1.000  H
  C21      1.0000 0.27720  0.56430  0.03590  Biso   1.000  C
  C22      1.0000 0.72280  0.43570  0.96410  Biso   1.000  C
  C23      1.0000 0.34420  0.49830  0.12680  Biso   1.000  C
  C24      1.0000 0.65580  0.50170  0.87320  Biso   1.000  C
  C25      1.0000 0.54250  0.84560  0.32900  Biso   1.000  C
  C26      1.0000 0.45750  0.15440  0.67100  Biso   1.000  C
  H21      1.0000 0.48260  0.76360  0.38740  Biso   1.000  H
  H22      1.0000 0.51740  0.23640  0.61260  Biso   1.000  H
  H23      1.0000 0.63820  0.82130  0.29990  Biso   1.000  H
  H24      1.0000 0.36180  0.17870  0.70010  Biso   1.000  H
  C27      1.0000 0.52040  0.92600  0.41690  Biso   1.000  C
  C28      1.0000 0.47960  0.07400  0.58310  Biso   1.000  C
  C29      1.0000 0.63260  0.98560  0.41260  Biso   1.000  C
  C30      1.0000 0.36740  0.01440  0.58740  Biso   1.000  C
  H25      1.0000 0.72280  0.97610  0.35430  Biso   1.000  H
  H26      1.0000 0.27720  0.02390  0.64570  Biso   1.000  H
  C31      1.0000 0.61320  0.05920  0.49370  Biso   1.000  C
  C32      1.0000 0.38680  0.94080  0.50630  Biso   1.000  C
  H27      1.0000 0.69010  0.09880  0.48790  Biso   1.000  H
  H28      1.0000 0.30990  0.90120  0.51210  Biso   1.000  H
  C33      1.0000 0.94160  0.78580  0.43320  Biso   1.000  C
  C34      1.0000 0.05840  0.21420  0.56680  Biso   1.000  C
  H29      1.0000 0.90190  0.82420  0.36550  Biso   1.000  H
  H30      1.0000 0.09810  0.17580  0.63450  Biso   1.000  H
  H31      1.0000 0.87060  0.72300  0.51760  Biso   1.000  H
  H32      1.0000 0.12940  0.27700  0.48240  Biso   1.000  H
  C35      1.0000 0.97390  0.89650  0.46670  Biso   1.000  C
  C36      1.0000 0.02610  0.10350  0.53330  Biso   1.000  C
  C37      1.0000 0.99450  0.02850  0.37390  Biso   1.000  C
  C38      1.0000 0.00550  0.97150  0.62610  Biso   1.000  C
  H33      1.0000 0.99190  0.04910  0.28820  Biso   1.000  H
  H34      1.0000 0.00810  0.95090  0.71180  Biso   1.000  H
  C39      1.0000 0.01880  0.13060  0.40710  Biso   1.000  C
  C40      1.0000 0.98120  0.86940  0.59290  Biso   1.000  C
  H35      1.0000 0.03040  0.21850  0.34390  Biso   1.000  H
  H36      1.0000 0.96960  0.78150  0.65610  Biso   1.000  H
  O13      1.0000 0.35460  0.50760  0.57540  Biso   1.000  O
  O14      1.0000 0.64540  0.49240  0.42460  Biso   1.000  O
  H37      1.0000 0.30800  0.55200  0.53500  Biso   1.000  H
  H38      1.0000 0.69200  0.44800  0.46500  Biso   1.000  H
  H39      1.0000 0.42600  0.48500  0.53500  Biso   1.000  H
  H40      1.0000 0.57400  0.51500  0.46500  Biso   1.000  H
  O15      1.0000 0.85570  0.68400  0.20220  Biso   1.000  O
  O16      1.0000 0.14430  0.31600  0.79780  Biso   1.000  O
  H41      1.0000 0.91900  0.67200  0.23000  Biso   1.000  H
  H42      1.0000 0.08100  0.32800  0.77000  Biso   1.000  H
  H43      1.0000 0.78900  0.63400  0.26100  Biso   1.000  H
  H44      1.0000 0.21100  0.36600  0.73900  Biso   1.000  H
  O17      1.0000 0.09900  0.06690  0.00930  Biso   1.000  O
  O18      1.0000 0.90100  0.93310  0.99070  Biso   1.000  O
  H45      1.0000 0.05700  0.00500  0.02300  Biso   1.000  H
  H46      1.0000 0.94300  0.99500  0.97700  Biso   1.000  H
  H47      1.0000 0.13000  0.12600  0.93400  Biso   1.000  H
  H48      1.0000 0.87000  0.87400  0.06600  Biso   1.000  H
