data_image0
_cell_length_a       10.725
_cell_length_b       10.896
_cell_length_c       11.456
_cell_angle_alpha    66.984
_cell_angle_beta     64.714
_cell_angle_gamma    84.486

_symmetry_space_group_name_H-M    "P 1"
_symmetry_int_tables_number       1

loop_
  _symmetry_equiv_pos_as_xyz
  'x, y, z'

loop_
  _atom_site_label
  _atom_site_occupancy
  _atom_site_fract_x
  _atom_site_fract_y
  _atom_site_fract_z
  _atom_site_thermal_displace_type
  _atom_site_B_iso_or_equiv
  _atom_site_type_symbol
  Cu1      1.0000 0.88344  0.77522  0.56296  Biso   1.000  Cu
  Cu2      1.0000 0.11656  0.22478  0.43704  Biso   1.000  Cu
  P1       1.0000 0.00281  0.92873  0.67779  Biso   1.000  P
  P2       1.0000 0.99719  0.07127  0.32221  Biso   1.000  P
  N1       1.0000 0.77860  0.69970  0.49410  Biso   1.000  N
  N2       1.0000 0.22140  0.30030  0.50590  Biso   1.000  N
  O1       1.0000 0.01060  0.82670  0.61730  Biso   1.000  O
  O2       1.0000 0.98940  0.17330  0.38270  Biso   1.000  O
  N3       1.0000 0.90180  0.57820  0.65870  Biso   1.000  N
  N4       1.0000 0.09820  0.42180  0.34130  Biso   1.000  N
  O3       1.0000 0.70250  0.79380  0.74520  Biso   1.000  O
  O4       1.0000 0.29750  0.20620  0.25480  Biso   1.000  O
  C1       1.0000 0.84250  0.50010  0.62620  Biso   1.000  C
  C2       1.0000 0.15750  0.49990  0.37380  Biso   1.000  C
  C3       1.0000 0.96210  0.52090  0.74180  Biso   1.000  C
  C4       1.0000 0.03790  0.47910  0.25820  Biso   1.000  C
  H1       1.0000 0.00340  0.57430  0.76430  Biso   1.000  H
  H2       1.0000 0.99660  0.42570  0.23570  Biso   1.000  H
  C5       1.0000 0.71940  0.49240  0.49240  Biso   1.000  C
  C6       1.0000 0.28060  0.50760  0.50760  Biso   1.000  C
  O5       1.0000 0.85440  0.97560  0.72870  Biso   1.000  O
  O6       1.0000 0.14560  0.02440  0.27130  Biso   1.000  O
  C7       1.0000 0.90990  0.30390  0.76440  Biso   1.000  C
  C8       1.0000 0.09010  0.69610  0.23560  Biso   1.000  C
  H3       1.0000 0.91230  0.21150  0.80190  Biso   1.000  H
  H4       1.0000 0.08770  0.78850  0.19810  Biso   1.000  H
  C9       1.0000 0.77760  0.56560  0.53540  Biso   1.000  C
  C10      1.0000 0.22240  0.43440  0.46460  Biso   1.000  C
  O7       1.0000 0.10540  0.05000  0.58200  Biso   1.000  O
  O8       1.0000 0.89460  0.95000  0.41800  Biso   1.000  O
  O9       1.0000 0.53390  0.59840  0.82810  Biso   1.000  O
  O10      1.0000 0.46610  0.40160  0.17190  Biso   1.000  O
  O11      1.0000 0.63240  0.61530  0.98470  Biso   1.000  O
  O12      1.0000 0.36760  0.38470  0.01530  Biso   1.000  O
  H5       1.0000 0.56910  0.56080  0.05060  Biso   1.000  H
  H6       1.0000 0.43090  0.43920  0.94940  Biso   1.000  H
  C11      1.0000 0.96730  0.38210  0.79850  Biso   1.000  C
  C12      1.0000 0.03270  0.61790  0.20150  Biso   1.000  C
  H7       1.0000 0.00960  0.34420  0.85900  Biso   1.000  H
  H8       1.0000 0.99040  0.65580  0.14100  Biso   1.000  H
  C13      1.0000 0.66060  0.56430  0.40040  Biso   1.000  C
  C14      1.0000 0.33940  0.43570  0.59960  Biso   1.000  C
  H9       1.0000 0.62220  0.52060  0.36660  Biso   1.000  H
  H10      1.0000 0.37780  0.47940  0.63340  Biso   1.000  H
  C15      1.0000 0.72080  0.76320  0.40980  Biso   1.000  C
  C16      1.0000 0.27920  0.23680  0.59020  Biso   1.000  C
  H11      1.0000 0.72030  0.85570  0.38120  Biso   1.000  H
  H12      1.0000 0.27970  0.14430  0.61880  Biso   1.000  H
  C17      1.0000 0.84780  0.36040  0.67410  Biso   1.000  C
  C18      1.0000 0.15220  0.63960  0.32590  Biso   1.000  C
  C19      1.0000 0.66030  0.69940  0.36100  Biso   1.000  C
  C20      1.0000 0.33970  0.30060  0.63900  Biso   1.000  C
  H13      1.0000 0.61960  0.74870  0.30150  Biso   1.000  H
  H14      1.0000 0.38040  0.25130  0.69850  Biso   1.000  H
  C21      1.0000 0.78830  0.28810  0.62740  Biso   1.000  C
  C22      1.0000 0.21170  0.71190  0.37260  Biso   1.000  C
  H15      1.0000 0.79200  0.19580  0.65700  Biso   1.000  H
  H16      1.0000 0.20800  0.80420  0.34300  Biso   1.000  H
  C23      1.0000 0.72710  0.35030  0.54170  Biso   1.000  C
  C24      1.0000 0.27290  0.64970  0.45830  Biso   1.000  C
  H17      1.0000 0.68880  0.30000  0.51370  Biso   1.000  H
  H18      1.0000 0.31120  0.70000  0.48630  Biso   1.000  H
  C25      1.0000 0.03430  0.84580  0.83140  Biso   1.000  C
  C26      1.0000 0.96570  0.15420  0.16860  Biso   1.000  C
  H19      1.0000 0.97270  0.76440  0.89020  Biso   1.000  H
  H20      1.0000 0.02730  0.23560  0.10980  Biso   1.000  H
  H21      1.0000 0.12830  0.81970  0.80230  Biso   1.000  H
  H22      1.0000 0.87170  0.18030  0.19770  Biso   1.000  H
  P3       1.0000 0.58606  0.69442  0.86553  Biso   1.000  P
  P4       1.0000 0.41394  0.30558  0.13447  Biso   1.000  P
  C27      1.0000 0.01540  0.92570  0.91880  Biso   1.000  C
  C28      1.0000 0.98460  0.07430  0.08120  Biso   1.000  C
  C29      1.0000 0.88680  0.94480  0.00550  Biso   1.000  C
  C30      1.0000 0.11320  0.05520  0.99450  Biso   1.000  C
  H23      1.0000 0.80880  0.90810  0.01080  Biso   1.000  H
  H24      1.0000 0.19120  0.09190  0.98920  Biso   1.000  H
  C31      1.0000 0.12950  0.98180  0.91410  Biso   1.000  C
  C32      1.0000 0.87050  0.01820  0.08590  Biso   1.000  C
  H25      1.0000 0.21810  0.96990  0.85620  Biso   1.000  H
  H26      1.0000 0.78190  0.03010  0.14380  Biso   1.000  H
  C33      1.0000 0.47530  0.89610  0.96710  Biso   1.000  C
  C34      1.0000 0.52470  0.10390  0.03290  Biso   1.000  C
  C35      1.0000 0.49140  0.02790  0.87690  Biso   1.000  C
  C36      1.0000 0.50860  0.97210  0.12310  Biso   1.000  C
  H27      1.0000 0.48660  0.04810  0.79220  Biso   1.000  H
  H28      1.0000 0.51340  0.95190  0.20780  Biso   1.000  H
  C37      1.0000 0.44350  0.78420  0.93470  Biso   1.000  C
  C38      1.0000 0.55650  0.21580  0.06530  Biso   1.000  C
  H29      1.0000 0.40310  0.82160  0.86800  Biso   1.000  H
  H30      1.0000 0.59690  0.17840  0.13200  Biso   1.000  H
  H31      1.0000 0.37370  0.72070  0.02010  Biso   1.000  H
  H32      1.0000 0.62630  0.27930  0.97990  Biso   1.000  H
  C39      1.0000 0.48560  0.86940  0.09140  Biso   1.000  C
  C40      1.0000 0.51440  0.13060  0.90860  Biso   1.000  C
  H33      1.0000 0.47690  0.78130  0.15380  Biso   1.000  H
  H34      1.0000 0.52310  0.21870  0.84620  Biso   1.000  H
  H35      1.0000 0.80900  0.92400  0.73400  Biso   1.000  H
  H36      1.0000 0.19100  0.07600  0.26600  Biso   1.000  H
  O13      1.0000 0.14510  0.49460  0.92500  Biso   1.000  O
  O14      1.0000 0.85490  0.50540  0.07500  Biso   1.000  O
  H37      1.0000 0.17700  0.45700  0.96000  Biso   1.000  H
  H38      1.0000 0.82300  0.54300  0.04000  Biso   1.000  H
  H39      1.0000 0.08000  0.52300  0.94600  Biso   1.000  H
  H40      1.0000 0.92000  0.47700  0.05400  Biso   1.000  H
  O15      1.0000 0.35460  0.68560  0.70350  Biso   1.000  O
  O16      1.0000 0.64540  0.31440  0.29650  Biso   1.000  O
  O17      1.0000 0.40260  0.93590  0.48520  Biso   1.000  O
  O18      1.0000 0.59740  0.06410  0.51480  Biso   1.000  O
  H41      1.0000 0.38900  0.93600  0.55800  Biso   1.000  H
  H42      1.0000 0.61100  0.06400  0.44200  Biso   1.000  H
  H43      1.0000 0.31000  0.94700  0.50100  Biso   1.000  H
  H44      1.0000 0.69000  0.05300  0.49900  Biso   1.000  H
