data_image0
_cell_length_a       27.75
_cell_length_b       9.8667
_cell_length_c       27.605
_cell_angle_alpha    90
_cell_angle_beta     141.49
_cell_angle_gamma    90

_symmetry_space_group_name_H-M    "P 1"
_symmetry_int_tables_number       1

loop_
  _symmetry_equiv_pos_as_xyz
  'x, y, z'

loop_
  _atom_site_label
  _atom_site_occupancy
  _atom_site_fract_x
  _atom_site_fract_y
  _atom_site_fract_z
  _atom_site_thermal_displace_type
  _atom_site_B_iso_or_equiv
  _atom_site_type_symbol
  Cu1      1.0000 0.44228  0.58737  0.45713  Biso   1.000  Cu
  Cu2      1.0000 0.55772  0.58737  0.04287  Biso   1.000  Cu
  Cu3      1.0000 0.94228  0.08737  0.45713  Biso   1.000  Cu
  Cu4      1.0000 0.05772  0.08737  0.04287  Biso   1.000  Cu
  Cu5      1.0000 0.55772  0.41263  0.54287  Biso   1.000  Cu
  Cu6      1.0000 0.44228  0.41263  0.95713  Biso   1.000  Cu
  Cu7      1.0000 0.05772  0.91263  0.54287  Biso   1.000  Cu
  Cu8      1.0000 0.94228  0.91263  0.95713  Biso   1.000  Cu
  O1       1.0000 0.41150  0.49090  0.37410  Biso   1.000  O
  O2       1.0000 0.58850  0.49090  0.12590  Biso   1.000  O
  O3       1.0000 0.91150  0.99090  0.37410  Biso   1.000  O
  O4       1.0000 0.08850  0.99090  0.12590  Biso   1.000  O
  O5       1.0000 0.58850  0.50910  0.62590  Biso   1.000  O
  O6       1.0000 0.41150  0.50910  0.87410  Biso   1.000  O
  O7       1.0000 0.08850  0.00910  0.62590  Biso   1.000  O
  O8       1.0000 0.91150  0.00910  0.87410  Biso   1.000  O
  O9       1.0000 0.50850  0.34260  0.44540  Biso   1.000  O
  O10      1.0000 0.49150  0.34260  0.05460  Biso   1.000  O
  O11      1.0000 0.00850  0.84260  0.44540  Biso   1.000  O
  O12      1.0000 0.99150  0.84260  0.05460  Biso   1.000  O
  O13      1.0000 0.49150  0.65740  0.55460  Biso   1.000  O
  O14      1.0000 0.50850  0.65740  0.94540  Biso   1.000  O
  O15      1.0000 0.99150  0.15740  0.55460  Biso   1.000  O
  O16      1.0000 0.00850  0.15740  0.94540  Biso   1.000  O
  O17      1.0000 0.48870  0.69970  0.02860  Biso   1.000  O
  O18      1.0000 0.51130  0.69970  0.47140  Biso   1.000  O
  O19      1.0000 0.98870  0.19970  0.02860  Biso   1.000  O
  O20      1.0000 0.01130  0.19970  0.47140  Biso   1.000  O
  O21      1.0000 0.51130  0.30030  0.97140  Biso   1.000  O
  O22      1.0000 0.48870  0.30030  0.52860  Biso   1.000  O
  O23      1.0000 0.01130  0.80030  0.97140  Biso   1.000  O
  O24      1.0000 0.98870  0.80030  0.52860  Biso   1.000  O
  O25      1.0000 0.39160  0.55190  0.95640  Biso   1.000  O
  O26      1.0000 0.60840  0.55190  0.54360  Biso   1.000  O
  O27      1.0000 0.89160  0.05190  0.95640  Biso   1.000  O
  O28      1.0000 0.10840  0.05190  0.54360  Biso   1.000  O
  O29      1.0000 0.60840  0.44810  0.04360  Biso   1.000  O
  O30      1.0000 0.39160  0.44810  0.45640  Biso   1.000  O
  O31      1.0000 0.10840  0.94810  0.04360  Biso   1.000  O
  O32      1.0000 0.89160  0.94810  0.45640  Biso   1.000  O
  O33      1.0000 0.34750  0.72850  0.37590  Biso   1.000  O
  O34      1.0000 0.65250  0.72850  0.12410  Biso   1.000  O
  O35      1.0000 0.84750  0.22850  0.37590  Biso   1.000  O
  O36      1.0000 0.15250  0.22850  0.12410  Biso   1.000  O
  O37      1.0000 0.65250  0.27150  0.62410  Biso   1.000  O
  O38      1.0000 0.34750  0.27150  0.87590  Biso   1.000  O
  O39      1.0000 0.15250  0.77150  0.62410  Biso   1.000  O
  O40      1.0000 0.84750  0.77150  0.87590  Biso   1.000  O
  N1       1.0000 0.31340  0.85870  0.28930  Biso   1.000  N
  N2       1.0000 0.68660  0.85870  0.21070  Biso   1.000  N
  N3       1.0000 0.81340  0.35870  0.28930  Biso   1.000  N
  N4       1.0000 0.18660  0.35870  0.21070  Biso   1.000  N
  N5       1.0000 0.68660  0.14130  0.71070  Biso   1.000  N
  N6       1.0000 0.31340  0.14130  0.78930  Biso   1.000  N
  N7       1.0000 0.18660  0.64130  0.71070  Biso   1.000  N
  N8       1.0000 0.81340  0.64130  0.78930  Biso   1.000  N
  C1       1.0000 0.44630  0.39350  0.38170  Biso   1.000  C
  C2       1.0000 0.55370  0.39350  0.11830  Biso   1.000  C
  C3       1.0000 0.94630  0.89350  0.38170  Biso   1.000  C
  C4       1.0000 0.05370  0.89350  0.11830  Biso   1.000  C
  C5       1.0000 0.55370  0.60650  0.61830  Biso   1.000  C
  C6       1.0000 0.44630  0.60650  0.88170  Biso   1.000  C
  C7       1.0000 0.05370  0.10650  0.61830  Biso   1.000  C
  C8       1.0000 0.94630  0.10650  0.88170  Biso   1.000  C
  C9       1.0000 0.40840  0.33630  0.30790  Biso   1.000  C
  C10      1.0000 0.59160  0.33630  0.19210  Biso   1.000  C
  C11      1.0000 0.90840  0.83630  0.30790  Biso   1.000  C
  C12      1.0000 0.09160  0.83630  0.19210  Biso   1.000  C
  C13      1.0000 0.59160  0.66370  0.69210  Biso   1.000  C
  C14      1.0000 0.40840  0.66370  0.80790  Biso   1.000  C
  C15      1.0000 0.09160  0.16370  0.69210  Biso   1.000  C
  C16      1.0000 0.90840  0.16370  0.80790  Biso   1.000  C
  C17      1.0000 0.33950  0.38920  0.23740  Biso   1.000  C
  C18      1.0000 0.66050  0.38920  0.26260  Biso   1.000  C
  C19      1.0000 0.83950  0.88920  0.23740  Biso   1.000  C
  C20      1.0000 0.16050  0.88920  0.26260  Biso   1.000  C
  C21      1.0000 0.66050  0.61080  0.76260  Biso   1.000  C
  C22      1.0000 0.33950  0.61080  0.73740  Biso   1.000  C
  C23      1.0000 0.16050  0.11080  0.76260  Biso   1.000  C
  C24      1.0000 0.83950  0.11080  0.73740  Biso   1.000  C
  H1       1.0000 0.31880  0.46540  0.23610  Biso   1.000  H
  H2       1.0000 0.68120  0.46540  0.26390  Biso   1.000  H
  H3       1.0000 0.81880  0.96540  0.23610  Biso   1.000  H
  H4       1.0000 0.18120  0.96540  0.26390  Biso   1.000  H
  H5       1.0000 0.68120  0.53460  0.76390  Biso   1.000  H
  H6       1.0000 0.31880  0.53460  0.73610  Biso   1.000  H
  H7       1.0000 0.18120  0.03460  0.76390  Biso   1.000  H
  H8       1.0000 0.81880  0.03460  0.73610  Biso   1.000  H
  C25      1.0000 0.30120  0.33150  0.16920  Biso   1.000  C
  C26      1.0000 0.69880  0.33150  0.33080  Biso   1.000  C
  C27      1.0000 0.80120  0.83150  0.16920  Biso   1.000  C
  C28      1.0000 0.19880  0.83150  0.33080  Biso   1.000  C
  C29      1.0000 0.69880  0.66850  0.83080  Biso   1.000  C
  C30      1.0000 0.30120  0.66850  0.66920  Biso   1.000  C
  C31      1.0000 0.19880  0.16850  0.83080  Biso   1.000  C
  C32      1.0000 0.80120  0.16850  0.66920  Biso   1.000  C
  H9       1.0000 0.25520  0.37040  0.12240  Biso   1.000  H
  H10      1.0000 0.74480  0.37040  0.37760  Biso   1.000  H
  H11      1.0000 0.75520  0.87040  0.12240  Biso   1.000  H
  H12      1.0000 0.24480  0.87040  0.37760  Biso   1.000  H
  H13      1.0000 0.74480  0.62960  0.87760  Biso   1.000  H
  H14      1.0000 0.25520  0.62960  0.62240  Biso   1.000  H
  H15      1.0000 0.24480  0.12960  0.87760  Biso   1.000  H
  H16      1.0000 0.75520  0.12960  0.62240  Biso   1.000  H
  C33      1.0000 0.32900  0.21610  0.16780  Biso   1.000  C
  C34      1.0000 0.67100  0.21610  0.33220  Biso   1.000  C
  C35      1.0000 0.82900  0.71610  0.16780  Biso   1.000  C
  C36      1.0000 0.17100  0.71610  0.33220  Biso   1.000  C
  C37      1.0000 0.67100  0.78390  0.83220  Biso   1.000  C
  C38      1.0000 0.32900  0.78390  0.66780  Biso   1.000  C
  C39      1.0000 0.17100  0.28390  0.83220  Biso   1.000  C
  C40      1.0000 0.82900  0.28390  0.66780  Biso   1.000  C
  C41      1.0000 0.39980  0.16740  0.23840  Biso   1.000  C
  C42      1.0000 0.60020  0.16740  0.26160  Biso   1.000  C
  C43      1.0000 0.89980  0.66740  0.23840  Biso   1.000  C
  C44      1.0000 0.10020  0.66740  0.26160  Biso   1.000  C
  C45      1.0000 0.60020  0.83260  0.76160  Biso   1.000  C
  C46      1.0000 0.39980  0.83260  0.73840  Biso   1.000  C
  C47      1.0000 0.10020  0.33260  0.76160  Biso   1.000  C
  C48      1.0000 0.89980  0.33260  0.73840  Biso   1.000  C
  H17      1.0000 0.42150  0.09350  0.23960  Biso   1.000  H
  H18      1.0000 0.57850  0.09350  0.26040  Biso   1.000  H
  H19      1.0000 0.92150  0.59350  0.23960  Biso   1.000  H
  H20      1.0000 0.07850  0.59350  0.26040  Biso   1.000  H
  H21      1.0000 0.57850  0.90650  0.76040  Biso   1.000  H
  H22      1.0000 0.42150  0.90650  0.73960  Biso   1.000  H
  H23      1.0000 0.07850  0.40650  0.76040  Biso   1.000  H
  H24      1.0000 0.92150  0.40650  0.73960  Biso   1.000  H
  C49      1.0000 0.43930  0.22630  0.30790  Biso   1.000  C
  C50      1.0000 0.56070  0.22630  0.19210  Biso   1.000  C
  C51      1.0000 0.93930  0.72630  0.30790  Biso   1.000  C
  C52      1.0000 0.06070  0.72630  0.19210  Biso   1.000  C
  C53      1.0000 0.56070  0.77370  0.69210  Biso   1.000  C
  C54      1.0000 0.43930  0.77370  0.80790  Biso   1.000  C
  C55      1.0000 0.06070  0.27370  0.69210  Biso   1.000  C
  C56      1.0000 0.93930  0.27370  0.80790  Biso   1.000  C
  H25      1.0000 0.48700  0.19150  0.35480  Biso   1.000  H
  H26      1.0000 0.51300  0.19150  0.14520  Biso   1.000  H
  H27      1.0000 0.98700  0.69150  0.35480  Biso   1.000  H
  H28      1.0000 0.01300  0.69150  0.14520  Biso   1.000  H
  H29      1.0000 0.51300  0.80850  0.64520  Biso   1.000  H
  H30      1.0000 0.48700  0.80850  0.85480  Biso   1.000  H
  H31      1.0000 0.01300  0.30850  0.64520  Biso   1.000  H
  H32      1.0000 0.98700  0.30850  0.85480  Biso   1.000  H
  C57      1.0000 0.28210  0.14770  0.09310  Biso   1.000  C
  C58      1.0000 0.71790  0.14770  0.40690  Biso   1.000  C
  C59      1.0000 0.78210  0.64770  0.09310  Biso   1.000  C
  C60      1.0000 0.21790  0.64770  0.40690  Biso   1.000  C
  C61      1.0000 0.71790  0.85230  0.90690  Biso   1.000  C
  C62      1.0000 0.28210  0.85230  0.59310  Biso   1.000  C
  C63      1.0000 0.21790  0.35230  0.90690  Biso   1.000  C
  C64      1.0000 0.78210  0.35230  0.59310  Biso   1.000  C
  C65      1.0000 0.20120  0.15630  0.03100  Biso   1.000  C
  C66      1.0000 0.79880  0.15630  0.46900  Biso   1.000  C
  C67      1.0000 0.70120  0.65630  0.03100  Biso   1.000  C
  C68      1.0000 0.29880  0.65630  0.46900  Biso   1.000  C
  C69      1.0000 0.79880  0.84370  0.96900  Biso   1.000  C
  C70      1.0000 0.20120  0.84370  0.53100  Biso   1.000  C
  C71      1.0000 0.29880  0.34370  0.96900  Biso   1.000  C
  C72      1.0000 0.70120  0.34370  0.53100  Biso   1.000  C
  H33      1.0000 0.17690  0.20500  0.03650  Biso   1.000  H
  H34      1.0000 0.82310  0.20500  0.46350  Biso   1.000  H
  H35      1.0000 0.67690  0.70500  0.03650  Biso   1.000  H
  H36      1.0000 0.32310  0.70500  0.46350  Biso   1.000  H
  H37      1.0000 0.82310  0.79500  0.96350  Biso   1.000  H
  H38      1.0000 0.17690  0.79500  0.53650  Biso   1.000  H
  H39      1.0000 0.32310  0.29500  0.96350  Biso   1.000  H
  H40      1.0000 0.67690  0.29500  0.53650  Biso   1.000  H
  C73      1.0000 0.15820  0.09270  0.96250  Biso   1.000  C
  C74      1.0000 0.84180  0.09270  0.53750  Biso   1.000  C
  C75      1.0000 0.65820  0.59270  0.96250  Biso   1.000  C
  C76      1.0000 0.34180  0.59270  0.53750  Biso   1.000  C
  C77      1.0000 0.84180  0.90730  0.03750  Biso   1.000  C
  C78      1.0000 0.15820  0.90730  0.46250  Biso   1.000  C
  C79      1.0000 0.34180  0.40730  0.03750  Biso   1.000  C
  C80      1.0000 0.65820  0.40730  0.46250  Biso   1.000  C
  H41      1.0000 0.10460  0.09940  0.92140  Biso   1.000  H
  H42      1.0000 0.89540  0.09940  0.57860  Biso   1.000  H
  H43      1.0000 0.60460  0.59940  0.92140  Biso   1.000  H
  H44      1.0000 0.39540  0.59940  0.57860  Biso   1.000  H
  H45      1.0000 0.89540  0.90060  0.07860  Biso   1.000  H
  H46      1.0000 0.10460  0.90060  0.42140  Biso   1.000  H
  H47      1.0000 0.39540  0.40060  0.07860  Biso   1.000  H
  H48      1.0000 0.60460  0.40060  0.42140  Biso   1.000  H
  C81      1.0000 0.19230  0.01890  0.95270  Biso   1.000  C
  C82      1.0000 0.80770  0.01890  0.54730  Biso   1.000  C
  C83      1.0000 0.69230  0.51890  0.95270  Biso   1.000  C
  C84      1.0000 0.30770  0.51890  0.54730  Biso   1.000  C
  C85      1.0000 0.80770  0.98110  0.04730  Biso   1.000  C
  C86      1.0000 0.19230  0.98110  0.45270  Biso   1.000  C
  C87      1.0000 0.30770  0.48110  0.04730  Biso   1.000  C
  C88      1.0000 0.69230  0.48110  0.45270  Biso   1.000  C
  H49      1.0000 0.16180  0.97810  0.90510  Biso   1.000  H
  H50      1.0000 0.83820  0.97810  0.59490  Biso   1.000  H
  H51      1.0000 0.66180  0.47810  0.90510  Biso   1.000  H
  H52      1.0000 0.33820  0.47810  0.59490  Biso   1.000  H
  H53      1.0000 0.83820  0.02190  0.09490  Biso   1.000  H
  H54      1.0000 0.16180  0.02190  0.40510  Biso   1.000  H
  H55      1.0000 0.33820  0.52190  0.09490  Biso   1.000  H
  H56      1.0000 0.66180  0.52190  0.40510  Biso   1.000  H
  C89      1.0000 0.27240  0.00580  0.01430  Biso   1.000  C
  C90      1.0000 0.72760  0.00580  0.48570  Biso   1.000  C
  C91      1.0000 0.77240  0.50580  0.01430  Biso   1.000  C
  C92      1.0000 0.22760  0.50580  0.48570  Biso   1.000  C
  C93      1.0000 0.72760  0.99420  0.98570  Biso   1.000  C
  C94      1.0000 0.27240  0.99420  0.51430  Biso   1.000  C
  C95      1.0000 0.22760  0.49420  0.98570  Biso   1.000  C
  C96      1.0000 0.77240  0.49420  0.51430  Biso   1.000  C
  C97      1.0000 0.31620  0.07060  0.08390  Biso   1.000  C
  C98      1.0000 0.68380  0.07060  0.41610  Biso   1.000  C
  C99      1.0000 0.81620  0.57060  0.08390  Biso   1.000  C
  C100     1.0000 0.18380  0.57060  0.41610  Biso   1.000  C
  C101     1.0000 0.68380  0.92940  0.91610  Biso   1.000  C
  C102     1.0000 0.31620  0.92940  0.58390  Biso   1.000  C
  C103     1.0000 0.18380  0.42940  0.91610  Biso   1.000  C
  C104     1.0000 0.81620  0.42940  0.58390  Biso   1.000  C
  H57      1.0000 0.36980  0.06200  0.12540  Biso   1.000  H
  H58      1.0000 0.63020  0.06200  0.37460  Biso   1.000  H
  H59      1.0000 0.86980  0.56200  0.12540  Biso   1.000  H
  H60      1.0000 0.13020  0.56200  0.37460  Biso   1.000  H
  H61      1.0000 0.63020  0.93800  0.87460  Biso   1.000  H
  H62      1.0000 0.36980  0.93800  0.62540  Biso   1.000  H
  H63      1.0000 0.13020  0.43800  0.87460  Biso   1.000  H
  H64      1.0000 0.86980  0.43800  0.62540  Biso   1.000  H
  C105     1.0000 0.31020  0.92040  0.00620  Biso   1.000  C
  C106     1.0000 0.68980  0.92040  0.49380  Biso   1.000  C
  C107     1.0000 0.81020  0.42040  0.00620  Biso   1.000  C
  C108     1.0000 0.18980  0.42040  0.49380  Biso   1.000  C
  C109     1.0000 0.68980  0.07960  0.99380  Biso   1.000  C
  C110     1.0000 0.31020  0.07960  0.50620  Biso   1.000  C
  C111     1.0000 0.18980  0.57960  0.99380  Biso   1.000  C
  C112     1.0000 0.81020  0.57960  0.50620  Biso   1.000  C
  C113     1.0000 0.27420  0.80500  0.95980  Biso   1.000  C
  C114     1.0000 0.72580  0.80500  0.54020  Biso   1.000  C
  C115     1.0000 0.77420  0.30500  0.95980  Biso   1.000  C
  C116     1.0000 0.22580  0.30500  0.54020  Biso   1.000  C
  C117     1.0000 0.72580  0.19500  0.04020  Biso   1.000  C
  C118     1.0000 0.27420  0.19500  0.45980  Biso   1.000  C
  C119     1.0000 0.22580  0.69500  0.04020  Biso   1.000  C
  C120     1.0000 0.77420  0.69500  0.45980  Biso   1.000  C
  H65      1.0000 0.22450  0.78340  0.93100  Biso   1.000  H
  H66      1.0000 0.77550  0.78340  0.56900  Biso   1.000  H
  H67      1.0000 0.72450  0.28340  0.93100  Biso   1.000  H
  H68      1.0000 0.27550  0.28340  0.56900  Biso   1.000  H
  H69      1.0000 0.77550  0.21660  0.06900  Biso   1.000  H
  H70      1.0000 0.22450  0.21660  0.43100  Biso   1.000  H
  H71      1.0000 0.27550  0.71660  0.06900  Biso   1.000  H
  H72      1.0000 0.72450  0.71660  0.43100  Biso   1.000  H
  C121     1.0000 0.31080  0.72230  0.95570  Biso   1.000  C
  C122     1.0000 0.68920  0.72230  0.54430  Biso   1.000  C
  C123     1.0000 0.81080  0.22230  0.95570  Biso   1.000  C
  C124     1.0000 0.18920  0.22230  0.54430  Biso   1.000  C
  C125     1.0000 0.68920  0.27770  0.04430  Biso   1.000  C
  C126     1.0000 0.31080  0.27770  0.45570  Biso   1.000  C
  C127     1.0000 0.18920  0.77770  0.04430  Biso   1.000  C
  C128     1.0000 0.81080  0.77770  0.45570  Biso   1.000  C
  H73      1.0000 0.28610  0.64400  0.92570  Biso   1.000  H
  H74      1.0000 0.71390  0.64400  0.57430  Biso   1.000  H
  H75      1.0000 0.78610  0.14400  0.92570  Biso   1.000  H
  H76      1.0000 0.21390  0.14400  0.57430  Biso   1.000  H
  H77      1.0000 0.71390  0.35600  0.07430  Biso   1.000  H
  H78      1.0000 0.28610  0.35600  0.42570  Biso   1.000  H
  H79      1.0000 0.21390  0.85600  0.07430  Biso   1.000  H
  H80      1.0000 0.78610  0.85600  0.42570  Biso   1.000  H
  C129     1.0000 0.38310  0.75300  0.99520  Biso   1.000  C
  C130     1.0000 0.61690  0.75300  0.50480  Biso   1.000  C
  C131     1.0000 0.88310  0.25300  0.99520  Biso   1.000  C
  C132     1.0000 0.11690  0.25300  0.50480  Biso   1.000  C
  C133     1.0000 0.61690  0.24700  0.00480  Biso   1.000  C
  C134     1.0000 0.38310  0.24700  0.49520  Biso   1.000  C
  C135     1.0000 0.11690  0.74700  0.00480  Biso   1.000  C
  C136     1.0000 0.88310  0.74700  0.49520  Biso   1.000  C
  C137     1.0000 0.41920  0.86960  0.04130  Biso   1.000  C
  C138     1.0000 0.58080  0.86960  0.45870  Biso   1.000  C
  C139     1.0000 0.91920  0.36960  0.04130  Biso   1.000  C
  C140     1.0000 0.08080  0.36960  0.45870  Biso   1.000  C
  C141     1.0000 0.58080  0.13040  0.95870  Biso   1.000  C
  C142     1.0000 0.41920  0.13040  0.54130  Biso   1.000  C
  C143     1.0000 0.08080  0.63040  0.95870  Biso   1.000  C
  C144     1.0000 0.91920  0.63040  0.54130  Biso   1.000  C
  H81      1.0000 0.46830  0.89260  0.06880  Biso   1.000  H
  H82      1.0000 0.53170  0.89260  0.43120  Biso   1.000  H
  H83      1.0000 0.96830  0.39260  0.06880  Biso   1.000  H
  H84      1.0000 0.03170  0.39260  0.43120  Biso   1.000  H
  H85      1.0000 0.53170  0.10740  0.93120  Biso   1.000  H
  H86      1.0000 0.46830  0.10740  0.56880  Biso   1.000  H
  H87      1.0000 0.03170  0.60740  0.93120  Biso   1.000  H
  H88      1.0000 0.96830  0.60740  0.56880  Biso   1.000  H
  C145     1.0000 0.38340  0.95050  0.04660  Biso   1.000  C
  C146     1.0000 0.61660  0.95050  0.45340  Biso   1.000  C
  C147     1.0000 0.88340  0.45050  0.04660  Biso   1.000  C
  C148     1.0000 0.11660  0.45050  0.45340  Biso   1.000  C
  C149     1.0000 0.61660  0.04950  0.95340  Biso   1.000  C
  C150     1.0000 0.38340  0.04950  0.54660  Biso   1.000  C
  C151     1.0000 0.11660  0.54950  0.95340  Biso   1.000  C
  C152     1.0000 0.88340  0.54950  0.54660  Biso   1.000  C
  H89      1.0000 0.40880  0.02720  0.07790  Biso   1.000  H
  H90      1.0000 0.59120  0.02720  0.42210  Biso   1.000  H
  H91      1.0000 0.90880  0.52720  0.07790  Biso   1.000  H
  H92      1.0000 0.09120  0.52720  0.42210  Biso   1.000  H
  H93      1.0000 0.59120  0.97280  0.92210  Biso   1.000  H
  H94      1.0000 0.40880  0.97280  0.57790  Biso   1.000  H
  H95      1.0000 0.09120  0.47280  0.92210  Biso   1.000  H
  H96      1.0000 0.90880  0.47280  0.57790  Biso   1.000  H
  C153     1.0000 0.42420  0.66120  0.99310  Biso   1.000  C
  C154     1.0000 0.57580  0.66120  0.50690  Biso   1.000  C
  C155     1.0000 0.92420  0.16120  0.99310  Biso   1.000  C
  C156     1.0000 0.07580  0.16120  0.50690  Biso   1.000  C
  C157     1.0000 0.57580  0.33880  0.00690  Biso   1.000  C
  C158     1.0000 0.42420  0.33880  0.49310  Biso   1.000  C
  C159     1.0000 0.07580  0.83880  0.00690  Biso   1.000  C
  C160     1.0000 0.92420  0.83880  0.49310  Biso   1.000  C
  C161     1.0000 0.34510  0.84110  0.35270  Biso   1.000  C
  C162     1.0000 0.65490  0.84110  0.14730  Biso   1.000  C
  C163     1.0000 0.84510  0.34110  0.35270  Biso   1.000  C
  C164     1.0000 0.15490  0.34110  0.14730  Biso   1.000  C
  C165     1.0000 0.65490  0.15890  0.64730  Biso   1.000  C
  C166     1.0000 0.34510  0.15890  0.85270  Biso   1.000  C
  C167     1.0000 0.15490  0.65890  0.64730  Biso   1.000  C
  C168     1.0000 0.84510  0.65890  0.85270  Biso   1.000  C
  C169     1.0000 0.39170  0.95290  0.40790  Biso   1.000  C
  C170     1.0000 0.60830  0.95290  0.09210  Biso   1.000  C
  C171     1.0000 0.89170  0.45290  0.40790  Biso   1.000  C
  C172     1.0000 0.10830  0.45290  0.09210  Biso   1.000  C
  C173     1.0000 0.60830  0.04710  0.59210  Biso   1.000  C
  C174     1.0000 0.39170  0.04710  0.90790  Biso   1.000  C
  C175     1.0000 0.10830  0.54710  0.59210  Biso   1.000  C
  C176     1.0000 0.89170  0.54710  0.90790  Biso   1.000  C
  H97      1.0000 0.42830  0.98040  0.41240  Biso   1.000  H
  H98      1.0000 0.57170  0.98040  0.08760  Biso   1.000  H
  H99      1.0000 0.92830  0.48040  0.41240  Biso   1.000  H
  H100     1.0000 0.07170  0.48040  0.08760  Biso   1.000  H
  H101     1.0000 0.57170  0.01960  0.58760  Biso   1.000  H
  H102     1.0000 0.42830  0.01960  0.91240  Biso   1.000  H
  H103     1.0000 0.07170  0.51960  0.58760  Biso   1.000  H
  H104     1.0000 0.92830  0.51960  0.91240  Biso   1.000  H
  H105     1.0000 0.41890  0.92410  0.45780  Biso   1.000  H
  H106     1.0000 0.58110  0.92410  0.04220  Biso   1.000  H
  H107     1.0000 0.91890  0.42410  0.45780  Biso   1.000  H
  H108     1.0000 0.08110  0.42410  0.04220  Biso   1.000  H
  H109     1.0000 0.58110  0.07590  0.54220  Biso   1.000  H
  H110     1.0000 0.41890  0.07590  0.95780  Biso   1.000  H
  H111     1.0000 0.08110  0.57590  0.54220  Biso   1.000  H
  H112     1.0000 0.91890  0.57590  0.95780  Biso   1.000  H
  H113     1.0000 0.35850  0.02780  0.38970  Biso   1.000  H
  H114     1.0000 0.64150  0.02780  0.11030  Biso   1.000  H
  H115     1.0000 0.85850  0.52780  0.38970  Biso   1.000  H
  H116     1.0000 0.14150  0.52780  0.11030  Biso   1.000  H
  H117     1.0000 0.64150  0.97220  0.61030  Biso   1.000  H
  H118     1.0000 0.35850  0.97220  0.88970  Biso   1.000  H
  H119     1.0000 0.14150  0.47220  0.61030  Biso   1.000  H
  H120     1.0000 0.85850  0.47220  0.88970  Biso   1.000  H
  C177     1.0000 0.30900  0.97800  0.25600  Biso   1.000  C
  C178     1.0000 0.69100  0.97800  0.24400  Biso   1.000  C
  C179     1.0000 0.80900  0.47800  0.25600  Biso   1.000  C
  C180     1.0000 0.19100  0.47800  0.24400  Biso   1.000  C
  C181     1.0000 0.69100  0.02200  0.74400  Biso   1.000  C
  C182     1.0000 0.30900  0.02200  0.75600  Biso   1.000  C
  C183     1.0000 0.19100  0.52200  0.74400  Biso   1.000  C
  C184     1.0000 0.80900  0.52200  0.75600  Biso   1.000  C
  H121     1.0000 0.31910  0.05680  0.28340  Biso   1.000  H
  H122     1.0000 0.68090  0.05680  0.21660  Biso   1.000  H
  H123     1.0000 0.81910  0.55680  0.28340  Biso   1.000  H
  H124     1.0000 0.18090  0.55680  0.21660  Biso   1.000  H
  H125     1.0000 0.68090  0.94320  0.71660  Biso   1.000  H
  H126     1.0000 0.31910  0.94320  0.78340  Biso   1.000  H
  H127     1.0000 0.18090  0.44320  0.71660  Biso   1.000  H
  H128     1.0000 0.81910  0.44320  0.78340  Biso   1.000  H
  H129     1.0000 0.25810  0.98470  0.20220  Biso   1.000  H
  H130     1.0000 0.74190  0.98470  0.29780  Biso   1.000  H
  H131     1.0000 0.75810  0.48470  0.20220  Biso   1.000  H
  H132     1.0000 0.24190  0.48470  0.29780  Biso   1.000  H
  H133     1.0000 0.74190  0.01530  0.79780  Biso   1.000  H
  H134     1.0000 0.25810  0.01530  0.70220  Biso   1.000  H
  H135     1.0000 0.24190  0.51530  0.79780  Biso   1.000  H
  H136     1.0000 0.75810  0.51530  0.70220  Biso   1.000  H
  H137     1.0000 0.34660  0.97210  0.26020  Biso   1.000  H
  H138     1.0000 0.65340  0.97210  0.23980  Biso   1.000  H
  H139     1.0000 0.84660  0.47210  0.26020  Biso   1.000  H
  H140     1.0000 0.15340  0.47210  0.23980  Biso   1.000  H
  H141     1.0000 0.65340  0.02790  0.73980  Biso   1.000  H
  H142     1.0000 0.34660  0.02790  0.76020  Biso   1.000  H
  H143     1.0000 0.15340  0.52790  0.73980  Biso   1.000  H
  H144     1.0000 0.84660  0.52790  0.76020  Biso   1.000  H
  C185     1.0000 0.26590  0.74800  0.23090  Biso   1.000  C
  C186     1.0000 0.73410  0.74800  0.26910  Biso   1.000  C
  C187     1.0000 0.76590  0.24800  0.23090  Biso   1.000  C
  C188     1.0000 0.23410  0.24800  0.26910  Biso   1.000  C
  C189     1.0000 0.73410  0.25200  0.76910  Biso   1.000  C
  C190     1.0000 0.26590  0.25200  0.73090  Biso   1.000  C
  C191     1.0000 0.23410  0.75200  0.76910  Biso   1.000  C
  C192     1.0000 0.76590  0.75200  0.73090  Biso   1.000  C
  H145     1.0000 0.26710  0.67090  0.25300  Biso   1.000  H
  H146     1.0000 0.73290  0.67090  0.24700  Biso   1.000  H
  H147     1.0000 0.76710  0.17090  0.25300  Biso   1.000  H
  H148     1.0000 0.23290  0.17090  0.24700  Biso   1.000  H
  H149     1.0000 0.73290  0.32910  0.74700  Biso   1.000  H
  H150     1.0000 0.26710  0.32910  0.75300  Biso   1.000  H
  H151     1.0000 0.23290  0.82910  0.74700  Biso   1.000  H
  H152     1.0000 0.76710  0.82910  0.75300  Biso   1.000  H
  H153     1.0000 0.28630  0.72310  0.21590  Biso   1.000  H
  H154     1.0000 0.71370  0.72310  0.28410  Biso   1.000  H
  H155     1.0000 0.78630  0.22310  0.21590  Biso   1.000  H
  H156     1.0000 0.21370  0.22310  0.28410  Biso   1.000  H
  H157     1.0000 0.71370  0.27690  0.78410  Biso   1.000  H
  H158     1.0000 0.28630  0.27690  0.71590  Biso   1.000  H
  H159     1.0000 0.21370  0.77690  0.78410  Biso   1.000  H
  H160     1.0000 0.78630  0.77690  0.71590  Biso   1.000  H
  H161     1.0000 0.21340  0.77850  0.18600  Biso   1.000  H
  H162     1.0000 0.78660  0.77850  0.31400  Biso   1.000  H
  H163     1.0000 0.71340  0.27850  0.18600  Biso   1.000  H
  H164     1.0000 0.28660  0.27850  0.31400  Biso   1.000  H
  H165     1.0000 0.78660  0.22150  0.81400  Biso   1.000  H
  H166     1.0000 0.21340  0.22150  0.68600  Biso   1.000  H
  H167     1.0000 0.28660  0.72150  0.81400  Biso   1.000  H
  H168     1.0000 0.71340  0.72150  0.68600  Biso   1.000  H
  N9       1.0000 0.02210  0.26030  0.24700  Biso   1.000  N
  N10      1.0000 0.97790  0.26030  0.25300  Biso   1.000  N
  N11      1.0000 0.52210  0.76030  0.24700  Biso   1.000  N
  N12      1.0000 0.47790  0.76030  0.25300  Biso   1.000  N
  N13      1.0000 0.97790  0.73970  0.75300  Biso   1.000  N
  N14      1.0000 0.02210  0.73970  0.74700  Biso   1.000  N
  N15      1.0000 0.47790  0.23970  0.75300  Biso   1.000  N
  N16      1.0000 0.52210  0.23970  0.74700  Biso   1.000  N
  C193     1.0000 0.00000  0.39460  0.25000  Biso   1.000  C
  C194     1.0000 0.50000  0.89460  0.25000  Biso   1.000  C
  C195     1.0000 0.00000  0.60540  0.75000  Biso   1.000  C
  C196     1.0000 0.50000  0.10540  0.75000  Biso   1.000  C
  C197     1.0000 0.05830  0.20150  0.23400  Biso   1.000  C
  C198     1.0000 0.94170  0.20150  0.26600  Biso   1.000  C
  C199     1.0000 0.55830  0.70150  0.23400  Biso   1.000  C
  C200     1.0000 0.44170  0.70150  0.26600  Biso   1.000  C
  C201     1.0000 0.94170  0.79850  0.76600  Biso   1.000  C
  C202     1.0000 0.05830  0.79850  0.73400  Biso   1.000  C
  C203     1.0000 0.44170  0.29850  0.76600  Biso   1.000  C
  C204     1.0000 0.55830  0.29850  0.73400  Biso   1.000  C
  O41      1.0000 0.00000  0.02300  0.25000  Biso   1.000  O
  O42      1.0000 0.50000  0.52300  0.25000  Biso   1.000  O
  O43      1.0000 0.00000  0.97700  0.75000  Biso   1.000  O
  O44      1.0000 0.50000  0.47700  0.75000  Biso   1.000  O
  C205     1.0000 0.00000  0.15200  0.25000  Biso   1.000  C
  C206     1.0000 0.50000  0.65200  0.25000  Biso   1.000  C
  C207     1.0000 0.00000  0.84800  0.75000  Biso   1.000  C
  C208     1.0000 0.50000  0.34800  0.75000  Biso   1.000  C
