data_image0
_cell_length_a       8.0862
_cell_length_b       12.576
_cell_length_c       8.186
_cell_angle_alpha    90
_cell_angle_beta     98.441
_cell_angle_gamma    90

_symmetry_space_group_name_H-M    "P 1"
_symmetry_int_tables_number       1

loop_
  _symmetry_equiv_pos_as_xyz
  'x, y, z'

loop_
  _atom_site_label
  _atom_site_occupancy
  _atom_site_fract_x
  _atom_site_fract_y
  _atom_site_fract_z
  _atom_site_thermal_displace_type
  _atom_site_B_iso_or_equiv
  _atom_site_type_symbol
  Cu1      1.0000 0.21624  0.15872  0.12981  Biso   1.000  Cu
  Cu2      1.0000 0.78376  0.65872  0.37019  Biso   1.000  Cu
  Cu3      1.0000 0.78376  0.84128  0.87019  Biso   1.000  Cu
  Cu4      1.0000 0.21624  0.34128  0.62981  Biso   1.000  Cu
  F1       1.0000 0.22130  0.98840  0.28660  Biso   1.000  F
  F2       1.0000 0.77870  0.48840  0.21340  Biso   1.000  F
  F3       1.0000 0.77870  0.01160  0.71340  Biso   1.000  F
  F4       1.0000 0.22130  0.51160  0.78660  Biso   1.000  F
  F5       1.0000 0.42950  0.89930  0.19430  Biso   1.000  F
  F6       1.0000 0.57050  0.39930  0.30570  Biso   1.000  F
  F7       1.0000 0.57050  0.10070  0.80570  Biso   1.000  F
  F8       1.0000 0.42950  0.60070  0.69430  Biso   1.000  F
  F9       1.0000 0.19890  0.81530  0.22620  Biso   1.000  F
  F10      1.0000 0.80110  0.31530  0.27380  Biso   1.000  F
  F11      1.0000 0.80110  0.18470  0.77380  Biso   1.000  F
  F12      1.0000 0.19890  0.68470  0.72620  Biso   1.000  F
  F13      1.0000 0.36970  0.86550  0.44960  Biso   1.000  F
  F14      1.0000 0.63030  0.36550  0.05040  Biso   1.000  F
  F15      1.0000 0.63030  0.13450  0.55040  Biso   1.000  F
  F16      1.0000 0.36970  0.63450  0.94960  Biso   1.000  F
  O1       1.0000 0.20380  0.07760  0.92010  Biso   1.000  O
  O2       1.0000 0.79620  0.57760  0.57990  Biso   1.000  O
  O3       1.0000 0.79620  0.92240  0.07990  Biso   1.000  O
  O4       1.0000 0.20380  0.42240  0.42010  Biso   1.000  O
  O5       1.0000 0.22080  0.26340  0.31290  Biso   1.000  O
  O6       1.0000 0.77920  0.76340  0.18710  Biso   1.000  O
  O7       1.0000 0.77920  0.73660  0.68710  Biso   1.000  O
  O8       1.0000 0.22080  0.23660  0.81290  Biso   1.000  O
  N1       1.0000 0.97050  0.14560  0.11550  Biso   1.000  N
  N2       1.0000 0.02950  0.64560  0.38450  Biso   1.000  N
  N3       1.0000 0.02950  0.85440  0.88450  Biso   1.000  N
  N4       1.0000 0.97050  0.35440  0.61550  Biso   1.000  N
  H1       1.0000 0.92230  0.16230  0.01390  Biso   1.000  H
  H2       1.0000 0.07770  0.66230  0.48610  Biso   1.000  H
  H3       1.0000 0.07770  0.83770  0.98610  Biso   1.000  H
  H4       1.0000 0.92230  0.33770  0.51390  Biso   1.000  H
  H5       1.0000 0.93440  0.18960  0.18780  Biso   1.000  H
  H6       1.0000 0.06560  0.68960  0.31220  Biso   1.000  H
  H7       1.0000 0.06560  0.81040  0.81220  Biso   1.000  H
  H8       1.0000 0.93440  0.31040  0.68780  Biso   1.000  H
  H9       1.0000 0.94430  0.07910  0.13840  Biso   1.000  H
  H10      1.0000 0.05570  0.57910  0.36160  Biso   1.000  H
  H11      1.0000 0.05570  0.92090  0.86160  Biso   1.000  H
  H12      1.0000 0.94430  0.42090  0.63840  Biso   1.000  H
  N5       1.0000 0.46310  0.15200  0.16210  Biso   1.000  N
  N6       1.0000 0.53690  0.65200  0.33790  Biso   1.000  N
  N7       1.0000 0.53690  0.84800  0.83790  Biso   1.000  N
  N8       1.0000 0.46310  0.34800  0.66210  Biso   1.000  N
  H13      1.0000 0.50260  0.16480  0.26750  Biso   1.000  H
  H14      1.0000 0.49740  0.66480  0.23250  Biso   1.000  H
  H15      1.0000 0.49740  0.83520  0.73250  Biso   1.000  H
  H16      1.0000 0.50260  0.33520  0.76750  Biso   1.000  H
  H17      1.0000 0.50250  0.20060  0.09870  Biso   1.000  H
  H18      1.0000 0.49750  0.70060  0.40130  Biso   1.000  H
  H19      1.0000 0.49750  0.79940  0.90130  Biso   1.000  H
  H20      1.0000 0.50250  0.29940  0.59870  Biso   1.000  H
  H21      1.0000 0.49540  0.08760  0.13450  Biso   1.000  H
  H22      1.0000 0.50460  0.58760  0.36550  Biso   1.000  H
  H23      1.0000 0.50460  0.91240  0.86550  Biso   1.000  H
  H24      1.0000 0.49540  0.41240  0.63450  Biso   1.000  H
  C1       1.0000 0.20430  0.13750  0.79670  Biso   1.000  C
  C2       1.0000 0.79570  0.63750  0.70330  Biso   1.000  C
  C3       1.0000 0.79570  0.86250  0.20330  Biso   1.000  C
  C4       1.0000 0.20430  0.36250  0.29670  Biso   1.000  C
  C5       1.0000 0.18230  0.08720  0.62820  Biso   1.000  C
  C6       1.0000 0.81770  0.58720  0.87180  Biso   1.000  C
  C7       1.0000 0.81770  0.91280  0.37180  Biso   1.000  C
  C8       1.0000 0.18230  0.41280  0.12820  Biso   1.000  C
  H25      1.0000 0.18520  0.14130  0.54590  Biso   1.000  H
  H26      1.0000 0.81480  0.64130  0.95410  Biso   1.000  H
  H27      1.0000 0.81480  0.85870  0.45410  Biso   1.000  H
  H28      1.0000 0.18520  0.35870  0.04590  Biso   1.000  H
  H29      1.0000 0.07680  0.05090  0.60890  Biso   1.000  H
  H30      1.0000 0.92320  0.55090  0.89110  Biso   1.000  H
  H31      1.0000 0.92320  0.94910  0.39110  Biso   1.000  H
  H32      1.0000 0.07680  0.44910  0.10890  Biso   1.000  H
  H33      1.0000 0.27100  0.03720  0.62220  Biso   1.000  H
  H34      1.0000 0.72900  0.53720  0.87780  Biso   1.000  H
  H35      1.0000 0.72900  0.96280  0.37780  Biso   1.000  H
  H36      1.0000 0.27100  0.46280  0.12220  Biso   1.000  H
  B1       1.0000 0.30550  0.89340  0.29340  Biso   1.000  B
  B2       1.0000 0.69450  0.39340  0.20660  Biso   1.000  B
  B3       1.0000 0.69450  0.10660  0.70660  Biso   1.000  B
  B4       1.0000 0.30550  0.60660  0.79340  Biso   1.000  B
