data_image0
_cell_length_a       6.6044
_cell_length_b       9.2107
_cell_length_c       13.95
_cell_angle_alpha    90
_cell_angle_beta     101.217
_cell_angle_gamma    90

_symmetry_space_group_name_H-M    "P 1"
_symmetry_int_tables_number       1

loop_
  _symmetry_equiv_pos_as_xyz
  'x, y, z'

loop_
  _atom_site_label
  _atom_site_occupancy
  _atom_site_fract_x
  _atom_site_fract_y
  _atom_site_fract_z
  _atom_site_thermal_displace_type
  _atom_site_B_iso_or_equiv
  _atom_site_type_symbol
  Cu1      1.0000 0.00000  0.00000  0.00000  Biso   1.000  Cu
  Cu2      1.0000 0.00000  0.50000  0.50000  Biso   1.000  Cu
  O1       1.0000 0.14416  0.08116  0.90157  Biso   1.000  O
  O2       1.0000 0.85584  0.58116  0.59843  Biso   1.000  O
  O3       1.0000 0.85584  0.91884  0.09843  Biso   1.000  O
  O4       1.0000 0.14416  0.41884  0.40157  Biso   1.000  O
  O5       1.0000 0.82180  0.16895  0.99829  Biso   1.000  O
  O6       1.0000 0.17820  0.66895  0.50171  Biso   1.000  O
  O7       1.0000 0.17820  0.83105  0.00171  Biso   1.000  O
  O8       1.0000 0.82180  0.33105  0.49829  Biso   1.000  O
  N1       1.0000 0.23670  0.37090  0.63362  Biso   1.000  N
  N2       1.0000 0.76330  0.87090  0.86638  Biso   1.000  N
  N3       1.0000 0.76330  0.62910  0.36638  Biso   1.000  N
  N4       1.0000 0.23670  0.12910  0.13362  Biso   1.000  N
  C1       1.0000 0.10510  0.20440  0.86122  Biso   1.000  C
  C2       1.0000 0.89490  0.70440  0.63878  Biso   1.000  C
  C3       1.0000 0.89490  0.79560  0.13878  Biso   1.000  C
  C4       1.0000 0.10510  0.29560  0.36122  Biso   1.000  C
  C5       1.0000 0.96730  0.30700  0.88465  Biso   1.000  C
  C6       1.0000 0.03270  0.80700  0.61535  Biso   1.000  C
  C7       1.0000 0.03270  0.69300  0.11535  Biso   1.000  C
  C8       1.0000 0.96730  0.19300  0.38465  Biso   1.000  C
  H1       1.0000 0.96240  0.40000  0.85320  Biso   1.000  H
  H2       1.0000 0.03760  0.90000  0.64680  Biso   1.000  H
  H3       1.0000 0.03760  0.60000  0.14680  Biso   1.000  H
  H4       1.0000 0.96240  0.10000  0.35320  Biso   1.000  H
  C9       1.0000 0.83590  0.28450  0.95110  Biso   1.000  C
  C10      1.0000 0.16410  0.78450  0.54890  Biso   1.000  C
  C11      1.0000 0.16410  0.71550  0.04890  Biso   1.000  C
  C12      1.0000 0.83590  0.21550  0.45110  Biso   1.000  C
  C13      1.0000 0.69400  0.40660  0.96744  Biso   1.000  C
  C14      1.0000 0.30600  0.90660  0.53256  Biso   1.000  C
  C15      1.0000 0.30600  0.59340  0.03256  Biso   1.000  C
  C16      1.0000 0.69400  0.09340  0.46744  Biso   1.000  C
  H5       1.0000 0.55840  0.37000  0.96850  Biso   1.000  H
  H6       1.0000 0.44160  0.87000  0.53150  Biso   1.000  H
  H7       1.0000 0.44160  0.63000  0.03150  Biso   1.000  H
  H8       1.0000 0.55840  0.13000  0.46850  Biso   1.000  H
  H9       1.0000 0.68880  0.47690  0.91620  Biso   1.000  H
  H10      1.0000 0.31120  0.97690  0.58380  Biso   1.000  H
  H11      1.0000 0.31120  0.52310  0.08380  Biso   1.000  H
  H12      1.0000 0.68880  0.02310  0.41620  Biso   1.000  H
  H13      1.0000 0.75080  0.45370  0.02810  Biso   1.000  H
  H14      1.0000 0.24920  0.95370  0.47190  Biso   1.000  H
  H15      1.0000 0.24920  0.54630  0.97190  Biso   1.000  H
  H16      1.0000 0.75080  0.04630  0.52810  Biso   1.000  H
  C17      1.0000 0.22180  0.24040  0.78183  Biso   1.000  C
  C18      1.0000 0.77820  0.74040  0.71817  Biso   1.000  C
  C19      1.0000 0.77820  0.75960  0.21817  Biso   1.000  C
  C20      1.0000 0.22180  0.25960  0.28183  Biso   1.000  C
  C21      1.0000 0.41430  0.17940  0.78128  Biso   1.000  C
  C22      1.0000 0.58570  0.67940  0.71872  Biso   1.000  C
  C23      1.0000 0.58570  0.82060  0.21872  Biso   1.000  C
  C24      1.0000 0.41430  0.32060  0.28128  Biso   1.000  C
  H17      1.0000 0.47520  0.11180  0.83100  Biso   1.000  H
  H18      1.0000 0.52480  0.61180  0.66900  Biso   1.000  H
  H19      1.0000 0.52480  0.88820  0.16900  Biso   1.000  H
  H20      1.0000 0.47520  0.38820  0.33100  Biso   1.000  H
  C25      1.0000 0.51720  0.21840  0.70720  Biso   1.000  C
  C26      1.0000 0.48280  0.71840  0.79280  Biso   1.000  C
  C27      1.0000 0.48280  0.78160  0.29280  Biso   1.000  C
  C28      1.0000 0.51720  0.28160  0.20720  Biso   1.000  C
  H21      1.0000 0.65180  0.18000  0.70590  Biso   1.000  H
  H22      1.0000 0.34820  0.68000  0.79410  Biso   1.000  H
  H23      1.0000 0.34820  0.82000  0.29410  Biso   1.000  H
  H24      1.0000 0.65180  0.32000  0.20590  Biso   1.000  H
  C29      1.0000 0.42440  0.31430  0.63583  Biso   1.000  C
  C30      1.0000 0.57560  0.81430  0.86417  Biso   1.000  C
  C31      1.0000 0.57560  0.68570  0.36417  Biso   1.000  C
  C32      1.0000 0.42440  0.18570  0.13583  Biso   1.000  C
  H25      1.0000 0.49670  0.34040  0.58490  Biso   1.000  H
  H26      1.0000 0.50330  0.84040  0.91510  Biso   1.000  H
  H27      1.0000 0.50330  0.65960  0.41510  Biso   1.000  H
  H28      1.0000 0.49670  0.15960  0.08490  Biso   1.000  H
  C33      1.0000 0.13960  0.33360  0.70569  Biso   1.000  C
  C34      1.0000 0.86040  0.83360  0.79431  Biso   1.000  C
  C35      1.0000 0.86040  0.66640  0.29431  Biso   1.000  C
  C36      1.0000 0.13960  0.16640  0.20569  Biso   1.000  C
  H29      1.0000 0.00490  0.37340  0.70470  Biso   1.000  H
  H30      1.0000 0.99510  0.87340  0.79530  Biso   1.000  H
  H31      1.0000 0.99510  0.62660  0.29530  Biso   1.000  H
  H32      1.0000 0.00490  0.12660  0.20470  Biso   1.000  H
