data_image0
_cell_length_a       11.3492
_cell_length_b       14.1993
_cell_length_c       12.1291
_cell_angle_alpha    90
_cell_angle_beta     96.41
_cell_angle_gamma    90

_symmetry_space_group_name_H-M    "P 1"
_symmetry_int_tables_number       1

loop_
  _symmetry_equiv_pos_as_xyz
  'x, y, z'

loop_
  _atom_site_label
  _atom_site_occupancy
  _atom_site_fract_x
  _atom_site_fract_y
  _atom_site_fract_z
  _atom_site_thermal_displace_type
  _atom_site_B_iso_or_equiv
  _atom_site_type_symbol
  Cu1      1.0000 0.20605  0.99954  0.80173  Biso   1.000  Cu
  Cu2      1.0000 0.79395  0.49954  0.69827  Biso   1.000  Cu
  Cu3      1.0000 0.79395  0.00046  0.19827  Biso   1.000  Cu
  Cu4      1.0000 0.20605  0.50046  0.30173  Biso   1.000  Cu
  O1       1.0000 0.03307  0.00854  0.77864  Biso   1.000  O
  O2       1.0000 0.96693  0.50854  0.72136  Biso   1.000  O
  O3       1.0000 0.96693  0.99146  0.22136  Biso   1.000  O
  O4       1.0000 0.03307  0.49146  0.27864  Biso   1.000  O
  O5       1.0000 0.21217  0.90099  0.68875  Biso   1.000  O
  O6       1.0000 0.78783  0.40099  0.81125  Biso   1.000  O
  O7       1.0000 0.78783  0.09901  0.31125  Biso   1.000  O
  O8       1.0000 0.21217  0.59901  0.18875  Biso   1.000  O
  O9       1.0000 0.37941  0.99673  0.81663  Biso   1.000  O
  O10      1.0000 0.62059  0.49673  0.68337  Biso   1.000  O
  O11      1.0000 0.62059  0.00327  0.18337  Biso   1.000  O
  O12      1.0000 0.37941  0.50327  0.31663  Biso   1.000  O
  O13      1.0000 0.20294  0.09806  0.91436  Biso   1.000  O
  O14      1.0000 0.79706  0.59806  0.58564  Biso   1.000  O
  O15      1.0000 0.79706  0.90194  0.08564  Biso   1.000  O
  O16      1.0000 0.20294  0.40194  0.41436  Biso   1.000  O
  N1       1.0000 0.19066  0.62488  0.43384  Biso   1.000  N
  N2       1.0000 0.80934  0.12488  0.06616  Biso   1.000  N
  N3       1.0000 0.80934  0.37512  0.56616  Biso   1.000  N
  N4       1.0000 0.19066  0.87512  0.93384  Biso   1.000  N
  N5       1.0000 0.21800  0.38006  0.15835  Biso   1.000  N
  N6       1.0000 0.78200  0.88006  0.34165  Biso   1.000  N
  N7       1.0000 0.78200  0.61994  0.84165  Biso   1.000  N
  N8       1.0000 0.21800  0.11994  0.65835  Biso   1.000  N
  C1       1.0000 0.83600  0.97780  0.70800  Biso   1.000  C
  C2       1.0000 0.16400  0.47780  0.79200  Biso   1.000  C
  C3       1.0000 0.16400  0.02220  0.29200  Biso   1.000  C
  C4       1.0000 0.83600  0.52220  0.20800  Biso   1.000  C
  H1       1.0000 0.81660  0.00240  0.77740  Biso   1.000  H
  H2       1.0000 0.18340  0.50240  0.72260  Biso   1.000  H
  H3       1.0000 0.18340  0.99760  0.22260  Biso   1.000  H
  H4       1.0000 0.81660  0.49760  0.27740  Biso   1.000  H
  H5       1.0000 0.79000  0.92210  0.68980  Biso   1.000  H
  H6       1.0000 0.21000  0.42210  0.81020  Biso   1.000  H
  H7       1.0000 0.21000  0.07790  0.31020  Biso   1.000  H
  H8       1.0000 0.79000  0.57790  0.18980  Biso   1.000  H
  H9       1.0000 0.81640  0.02380  0.65090  Biso   1.000  H
  H10      1.0000 0.18360  0.52380  0.84910  Biso   1.000  H
  H11      1.0000 0.18360  0.97620  0.34910  Biso   1.000  H
  H12      1.0000 0.81640  0.47620  0.15090  Biso   1.000  H
  C5       1.0000 0.96590  0.95551  0.71685  Biso   1.000  C
  C6       1.0000 0.03410  0.45551  0.78315  Biso   1.000  C
  C7       1.0000 0.03410  0.04449  0.28315  Biso   1.000  C
  C8       1.0000 0.96590  0.54449  0.21685  Biso   1.000  C
  C9       1.0000 0.00370  0.87832  0.65690  Biso   1.000  C
  C10      1.0000 0.99630  0.37832  0.84310  Biso   1.000  C
  C11      1.0000 0.99630  0.12168  0.34310  Biso   1.000  C
  C12      1.0000 0.00370  0.62168  0.15690  Biso   1.000  C
  H13      1.0000 0.94380  0.83720  0.62160  Biso   1.000  H
  H14      1.0000 0.05620  0.33720  0.87840  Biso   1.000  H
  H15      1.0000 0.05620  0.16280  0.37840  Biso   1.000  H
  H16      1.0000 0.94380  0.66280  0.12160  Biso   1.000  H
  C13      1.0000 0.12081  0.85716  0.64536  Biso   1.000  C
  C14      1.0000 0.87919  0.35716  0.85464  Biso   1.000  C
  C15      1.0000 0.87919  0.14284  0.35464  Biso   1.000  C
  C16      1.0000 0.12081  0.64284  0.14536  Biso   1.000  C
  C17      1.0000 0.14568  0.77515  0.57273  Biso   1.000  C
  C18      1.0000 0.85432  0.27515  0.92727  Biso   1.000  C
  C19      1.0000 0.85432  0.22485  0.42727  Biso   1.000  C
  C20      1.0000 0.14568  0.72485  0.07273  Biso   1.000  C
  C21      1.0000 0.22690  0.78343  0.49575  Biso   1.000  C
  C22      1.0000 0.77310  0.28343  0.00425  Biso   1.000  C
  C23      1.0000 0.77310  0.21657  0.50425  Biso   1.000  C
  C24      1.0000 0.22690  0.71657  0.99575  Biso   1.000  C
  H17      1.0000 0.27040  0.84090  0.49030  Biso   1.000  H
  H18      1.0000 0.72960  0.34090  0.00970  Biso   1.000  H
  H19      1.0000 0.72960  0.15910  0.50970  Biso   1.000  H
  H20      1.0000 0.27040  0.65910  0.99030  Biso   1.000  H
  C25      1.0000 0.24460  0.70826  0.42845  Biso   1.000  C
  C26      1.0000 0.75540  0.20826  0.07155  Biso   1.000  C
  C27      1.0000 0.75540  0.29174  0.57155  Biso   1.000  C
  C28      1.0000 0.24460  0.79174  0.92845  Biso   1.000  C
  H21      1.0000 0.29870  0.71600  0.37360  Biso   1.000  H
  H22      1.0000 0.70130  0.21600  0.12640  Biso   1.000  H
  H23      1.0000 0.70130  0.28400  0.62640  Biso   1.000  H
  H24      1.0000 0.29870  0.78400  0.87360  Biso   1.000  H
  C29      1.0000 0.11600  0.61628  0.51034  Biso   1.000  C
  C30      1.0000 0.88400  0.11628  0.98966  Biso   1.000  C
  C31      1.0000 0.88400  0.38372  0.48966  Biso   1.000  C
  C32      1.0000 0.11600  0.88372  0.01034  Biso   1.000  C
  H25      1.0000 0.07890  0.55630  0.51820  Biso   1.000  H
  H26      1.0000 0.92110  0.05630  0.98180  Biso   1.000  H
  H27      1.0000 0.92110  0.44370  0.48180  Biso   1.000  H
  H28      1.0000 0.07890  0.94370  0.01820  Biso   1.000  H
  C33      1.0000 0.08990  0.68888  0.58006  Biso   1.000  C
  C34      1.0000 0.91010  0.18888  0.91994  Biso   1.000  C
  C35      1.0000 0.91010  0.31112  0.41994  Biso   1.000  C
  C36      1.0000 0.08990  0.81112  0.08006  Biso   1.000  C
  H29      1.0000 0.03310  0.68000  0.63220  Biso   1.000  H
  H30      1.0000 0.96690  0.18000  0.86780  Biso   1.000  H
  H31      1.0000 0.96690  0.32000  0.36780  Biso   1.000  H
  H32      1.0000 0.03310  0.82000  0.13220  Biso   1.000  H
  C37      1.0000 0.57520  0.05420  0.84590  Biso   1.000  C
  C38      1.0000 0.42480  0.55420  0.65410  Biso   1.000  C
  C39      1.0000 0.42480  0.94580  0.15410  Biso   1.000  C
  C40      1.0000 0.57520  0.44580  0.34590  Biso   1.000  C
  H33      1.0000 0.61310  0.11420  0.85860  Biso   1.000  H
  H34      1.0000 0.38690  0.61420  0.64140  Biso   1.000  H
  H35      1.0000 0.38690  0.88580  0.14140  Biso   1.000  H
  H36      1.0000 0.61310  0.38580  0.35860  Biso   1.000  H
  H37      1.0000 0.58130  0.03210  0.77190  Biso   1.000  H
  H38      1.0000 0.41870  0.53210  0.72810  Biso   1.000  H
  H39      1.0000 0.41870  0.96790  0.22810  Biso   1.000  H
  H40      1.0000 0.58130  0.46790  0.27190  Biso   1.000  H
  H41      1.0000 0.61110  0.00740  0.89600  Biso   1.000  H
  H42      1.0000 0.38890  0.50740  0.60400  Biso   1.000  H
  H43      1.0000 0.38890  0.99260  0.10400  Biso   1.000  H
  H44      1.0000 0.61110  0.49260  0.39600  Biso   1.000  H
  C41      1.0000 0.44600  0.06039  0.86125  Biso   1.000  C
  C42      1.0000 0.55400  0.56039  0.63875  Biso   1.000  C
  C43      1.0000 0.55400  0.93961  0.13875  Biso   1.000  C
  C44      1.0000 0.44600  0.43961  0.36125  Biso   1.000  C
  C45      1.0000 0.40750  0.13569  0.92342  Biso   1.000  C
  C46      1.0000 0.59250  0.63569  0.57658  Biso   1.000  C
  C47      1.0000 0.59250  0.86431  0.07658  Biso   1.000  C
  C48      1.0000 0.40750  0.36431  0.42342  Biso   1.000  C
  H45      1.0000 0.46580  0.18100  0.95220  Biso   1.000  H
  H46      1.0000 0.53420  0.68100  0.54780  Biso   1.000  H
  H47      1.0000 0.53420  0.81900  0.04780  Biso   1.000  H
  H48      1.0000 0.46580  0.31900  0.45220  Biso   1.000  H
  C49      1.0000 0.29224  0.14938  0.94664  Biso   1.000  C
  C50      1.0000 0.70776  0.64938  0.55336  Biso   1.000  C
  C51      1.0000 0.70776  0.85062  0.05336  Biso   1.000  C
  C52      1.0000 0.29224  0.35062  0.44664  Biso   1.000  C
  C53      1.0000 0.26650  0.23149  0.01916  Biso   1.000  C
  C54      1.0000 0.73350  0.73149  0.48084  Biso   1.000  C
  C55      1.0000 0.73350  0.76851  0.98084  Biso   1.000  C
  C56      1.0000 0.26650  0.26851  0.51916  Biso   1.000  C
  C57      1.0000 0.17570  0.22540  0.08623  Biso   1.000  C
  C58      1.0000 0.82430  0.72540  0.41377  Biso   1.000  C
  C59      1.0000 0.82430  0.77460  0.91377  Biso   1.000  C
  C60      1.0000 0.17570  0.27460  0.58623  Biso   1.000  C
  H49      1.0000 0.12740  0.16980  0.08530  Biso   1.000  H
  H50      1.0000 0.87260  0.66980  0.41470  Biso   1.000  H
  H51      1.0000 0.87260  0.83020  0.91470  Biso   1.000  H
  H52      1.0000 0.12740  0.33020  0.58530  Biso   1.000  H
  C61      1.0000 0.15470  0.30046  0.15373  Biso   1.000  C
  C62      1.0000 0.84530  0.80046  0.34627  Biso   1.000  C
  C63      1.0000 0.84530  0.69954  0.84627  Biso   1.000  C
  C64      1.0000 0.15470  0.19954  0.65373  Biso   1.000  C
  H53      1.0000 0.09160  0.29530  0.19990  Biso   1.000  H
  H54      1.0000 0.90840  0.79530  0.30010  Biso   1.000  H
  H55      1.0000 0.90840  0.70470  0.80010  Biso   1.000  H
  H56      1.0000 0.09160  0.20470  0.69990  Biso   1.000  H
  C65      1.0000 0.30340  0.38625  0.09149  Biso   1.000  C
  C66      1.0000 0.69660  0.88625  0.40851  Biso   1.000  C
  C67      1.0000 0.69660  0.61375  0.90851  Biso   1.000  C
  C68      1.0000 0.30340  0.11375  0.59149  Biso   1.000  C
  H57      1.0000 0.34730  0.44400  0.09140  Biso   1.000  H
  H58      1.0000 0.65270  0.94400  0.40860  Biso   1.000  H
  H59      1.0000 0.65270  0.55600  0.90860  Biso   1.000  H
  H60      1.0000 0.34730  0.05600  0.59140  Biso   1.000  H
  C69      1.0000 0.33080  0.31465  0.02167  Biso   1.000  C
  C70      1.0000 0.66920  0.81465  0.47833  Biso   1.000  C
  C71      1.0000 0.66920  0.68535  0.97833  Biso   1.000  C
  C72      1.0000 0.33080  0.18535  0.52167  Biso   1.000  C
  H61      1.0000 0.39420  0.32190  0.97630  Biso   1.000  H
  H62      1.0000 0.60580  0.82190  0.52370  Biso   1.000  H
  H63      1.0000 0.60580  0.67810  0.02370  Biso   1.000  H
  H64      1.0000 0.39420  0.17810  0.47630  Biso   1.000  H
  O17      1.0000 0.46650  0.85370  0.66130  Biso   1.000  O
  O18      1.0000 0.53350  0.35370  0.83870  Biso   1.000  O
  O19      1.0000 0.53350  0.14630  0.33870  Biso   1.000  O
  O20      1.0000 0.46650  0.64630  0.16130  Biso   1.000  O
  H65      1.0000 0.39770  0.87140  0.67380  Biso   1.000  H
  H66      1.0000 0.60230  0.37140  0.82620  Biso   1.000  H
  H67      1.0000 0.60230  0.12860  0.32620  Biso   1.000  H
  H68      1.0000 0.39770  0.62860  0.17380  Biso   1.000  H
  C73      1.0000 0.52170  0.81050  0.75160  Biso   1.000  C
  C74      1.0000 0.47830  0.31050  0.74840  Biso   1.000  C
  C75      1.0000 0.47830  0.18950  0.24840  Biso   1.000  C
  C76      1.0000 0.52170  0.68950  0.25160  Biso   1.000  C
  H69      1.0000 0.50190  0.84090  0.81780  Biso   1.000  H
  H70      1.0000 0.49810  0.34090  0.68220  Biso   1.000  H
  H71      1.0000 0.49810  0.15910  0.18220  Biso   1.000  H
  H72      1.0000 0.50190  0.65910  0.31780  Biso   1.000  H
  H73      1.0000 0.60600  0.81300  0.74960  Biso   1.000  H
  H74      1.0000 0.39400  0.31300  0.75040  Biso   1.000  H
  H75      1.0000 0.39400  0.18700  0.25040  Biso   1.000  H
  H76      1.0000 0.60600  0.68700  0.24960  Biso   1.000  H
  H77      1.0000 0.49800  0.74560  0.75220  Biso   1.000  H
  H78      1.0000 0.50200  0.24560  0.74780  Biso   1.000  H
  H79      1.0000 0.50200  0.25440  0.24780  Biso   1.000  H
  H80      1.0000 0.49800  0.75440  0.25220  Biso   1.000  H
