data_image0
_cell_length_a       9.629
_cell_length_b       9.915
_cell_length_c       14.558
_cell_angle_alpha    70.783
_cell_angle_beta     85.346
_cell_angle_gamma    69.579

_symmetry_space_group_name_H-M    "P 1"
_symmetry_int_tables_number       1

loop_
  _symmetry_equiv_pos_as_xyz
  'x, y, z'

loop_
  _atom_site_label
  _atom_site_occupancy
  _atom_site_fract_x
  _atom_site_fract_y
  _atom_site_fract_z
  _atom_site_thermal_displace_type
  _atom_site_B_iso_or_equiv
  _atom_site_type_symbol
  Ti1      1.0000 0.29330  0.61360  0.75800  Biso   1.000  Ti
  Ti2      1.0000 0.70670  0.38640  0.24200  Biso   1.000  Ti
  Cu1      1.0000 0.50000  0.00000  0.50000  Biso   1.000  Cu
  Cu2      1.0000 0.50000  0.50000  0.50000  Biso   1.000  Cu
  O1       1.0000 0.46550  0.51910  0.83740  Biso   1.000  O
  O2       1.0000 0.53450  0.48090  0.16260  Biso   1.000  O
  O3       1.0000 0.40690  0.75200  0.67850  Biso   1.000  O
  O4       1.0000 0.59310  0.24800  0.32150  Biso   1.000  O
  O5       1.0000 0.58110  0.85430  0.62500  Biso   1.000  O
  O6       1.0000 0.41890  0.14570  0.37500  Biso   1.000  O
  O7       1.0000 0.22550  0.45300  0.81720  Biso   1.000  O
  O8       1.0000 0.77450  0.54700  0.18280  Biso   1.000  O
  O9       1.0000 0.37780  0.50230  0.65930  Biso   1.000  O
  O10      1.0000 0.62220  0.49770  0.34070  Biso   1.000  O
  O11      1.0000 0.48540  0.31490  0.60260  Biso   1.000  O
  O12      1.0000 0.51460  0.68510  0.39740  Biso   1.000  O
  O13      1.0000 0.18870  0.74530  0.82540  Biso   1.000  O
  O14      1.0000 0.81130  0.25470  0.17460  Biso   1.000  O
  O15      1.0000 0.13730  0.74070  0.65350  Biso   1.000  O
  O16      1.0000 0.86270  0.25930  0.34650  Biso   1.000  O
  O17      1.0000 0.92410  0.88630  0.57860  Biso   1.000  O
  O18      1.0000 0.07590  0.11370  0.42140  Biso   1.000  O
  O19      1.0000 0.68610  0.47450  0.55880  Biso   1.000  O
  O20      1.0000 0.31390  0.52550  0.44120  Biso   1.000  O
  O21      1.0000 0.32610  0.94730  0.50670  Biso   1.000  O
  O22      1.0000 0.67390  0.05270  0.49330  Biso   1.000  O
  N1       1.0000 0.93220  0.37930  0.59470  Biso   1.000  N
  N2       1.0000 0.06780  0.62070  0.40530  Biso   1.000  N
  C1       1.0000 0.58630  0.55070  0.84730  Biso   1.000  C
  C2       1.0000 0.41370  0.44930  0.15270  Biso   1.000  C
  C3       1.0000 0.67630  0.46230  0.93060  Biso   1.000  C
  C4       1.0000 0.32370  0.53770  0.06940  Biso   1.000  C
  C5       1.0000 0.80420  0.48920  0.94450  Biso   1.000  C
  C6       1.0000 0.19580  0.51080  0.05550  Biso   1.000  C
  C7       1.0000 0.84200  0.60450  0.87500  Biso   1.000  C
  C8       1.0000 0.15800  0.39550  0.12500  Biso   1.000  C
  C9       1.0000 0.75190  0.69290  0.79170  Biso   1.000  C
  C10      1.0000 0.24810  0.30710  0.20830  Biso   1.000  C
  C11      1.0000 0.62410  0.66600  0.77780  Biso   1.000  C
  C12      1.0000 0.37590  0.33400  0.22220  Biso   1.000  C
  C13      1.0000 0.53240  0.76410  0.68910  Biso   1.000  C
  C14      1.0000 0.46760  0.23590  0.31090  Biso   1.000  C
  C15      1.0000 0.29350  0.30420  0.82910  Biso   1.000  C
  C16      1.0000 0.70650  0.69580  0.17090  Biso   1.000  C
  C17      1.0000 0.26910  0.20100  0.91440  Biso   1.000  C
  C18      1.0000 0.73090  0.79900  0.08560  Biso   1.000  C
  C19      1.0000 0.33570  0.04580  0.93070  Biso   1.000  C
  C20      1.0000 0.66430  0.95420  0.06930  Biso   1.000  C
  C21      1.0000 0.42690  0.99380  0.86150  Biso   1.000  C
  C22      1.0000 0.57310  0.00620  0.13850  Biso   1.000  C
  C23      1.0000 0.45140  0.09710  0.77610  Biso   1.000  C
  C24      1.0000 0.54860  0.90290  0.22390  Biso   1.000  C
  C25      1.0000 0.38470  0.25230  0.75990  Biso   1.000  C
  C26      1.0000 0.61530  0.74770  0.24010  Biso   1.000  C
  C27      1.0000 0.41750  0.36360  0.66870  Biso   1.000  C
  C28      1.0000 0.58250  0.63640  0.33130  Biso   1.000  C
  C29      1.0000 0.06830  0.87270  0.80460  Biso   1.000  C
  C30      1.0000 0.93170  0.12730  0.19540  Biso   1.000  C
  C31      1.0000 0.03540  0.95130  0.87150  Biso   1.000  C
  C32      1.0000 0.96460  0.04870  0.12850  Biso   1.000  C
  C33      1.0000 0.90960  0.08050  0.85660  Biso   1.000  C
  C34      1.0000 0.09040  0.91950  0.14340  Biso   1.000  C
  C35      1.0000 0.81680  0.13110  0.77490  Biso   1.000  C
  C36      1.0000 0.18320  0.86890  0.22510  Biso   1.000  C
  C37      1.0000 0.84980  0.05250  0.70800  Biso   1.000  C
  C38      1.0000 0.15020  0.94750  0.29200  Biso   1.000  C
  C39      1.0000 0.97550  0.92330  0.72290  Biso   1.000  C
  C40      1.0000 0.02450  0.07670  0.27710  Biso   1.000  C
  C41      1.0000 0.01190  0.84930  0.64670  Biso   1.000  C
  C42      1.0000 0.98810  0.15070  0.35330  Biso   1.000  C
  C43      1.0000 0.81480  0.38900  0.55120  Biso   1.000  C
  C44      1.0000 0.18520  0.61100  0.44880  Biso   1.000  C
  C45      1.0000 0.92100  0.46900  0.65880  Biso   1.000  C
  C46      1.0000 0.07900  0.53100  0.34120  Biso   1.000  C
  C47      1.0000 0.07700  0.26600  0.59280  Biso   1.000  C
  C48      1.0000 0.92300  0.73400  0.40720  Biso   1.000  C
  H1       1.0000 0.25180  0.02740  0.48350  Biso   1.000  H
  H2       1.0000 0.74820  0.97260  0.51650  Biso   1.000  H
  H3       1.0000 0.31190  0.90320  0.56570  Biso   1.000  H
  H4       1.0000 0.68810  0.09680  0.43430  Biso   1.000  H
  H5       1.0000 0.65100  0.38520  0.97710  Biso   1.000  H
  H6       1.0000 0.34900  0.61480  0.02290  Biso   1.000  H
  H7       1.0000 0.86450  0.43000  0.00020  Biso   1.000  H
  H8       1.0000 0.13550  0.57000  0.99980  Biso   1.000  H
  H9       1.0000 0.92760  0.62240  0.88420  Biso   1.000  H
  H10      1.0000 0.07240  0.37760  0.11580  Biso   1.000  H
  H11      1.0000 0.77720  0.77000  0.74520  Biso   1.000  H
  H12      1.0000 0.22280  0.23000  0.25480  Biso   1.000  H
  H13      1.0000 0.20810  0.23570  0.96070  Biso   1.000  H
  H14      1.0000 0.79190  0.76430  0.03930  Biso   1.000  H
  H15      1.0000 0.31940  0.97670  0.98780  Biso   1.000  H
  H16      1.0000 0.68060  0.02330  0.01220  Biso   1.000  H
  H17      1.0000 0.47150  0.89000  0.87240  Biso   1.000  H
  H18      1.0000 0.52850  0.11000  0.12760  Biso   1.000  H
  H19      1.0000 0.51240  0.06230  0.72990  Biso   1.000  H
  H20      1.0000 0.48760  0.93770  0.27010  Biso   1.000  H
  H21      1.0000 0.09750  0.91740  0.92610  Biso   1.000  H
  H22      1.0000 0.90250  0.08260  0.07390  Biso   1.000  H
  H23      1.0000 0.88760  0.13310  0.90130  Biso   1.000  H
  H24      1.0000 0.11240  0.86690  0.09870  Biso   1.000  H
  H25      1.0000 0.73270  0.21760  0.76500  Biso   1.000  H
  H26      1.0000 0.26730  0.78240  0.23500  Biso   1.000  H
  H27      1.0000 0.78770  0.08640  0.65340  Biso   1.000  H
  H28      1.0000 0.21230  0.91360  0.34660  Biso   1.000  H
  H29      1.0000 0.82690  0.32830  0.51200  Biso   1.000  H
  H30      1.0000 0.17310  0.67170  0.48800  Biso   1.000  H
  H31      1.0000 0.82990  0.55390  0.64380  Biso   1.000  H
  H32      1.0000 0.17010  0.44610  0.35620  Biso   1.000  H
  H33      1.0000 0.00320  0.50500  0.64940  Biso   1.000  H
  H34      1.0000 0.99680  0.49500  0.35060  Biso   1.000  H
  H35      1.0000 0.92250  0.40660  0.72530  Biso   1.000  H
  H36      1.0000 0.07750  0.59340  0.27470  Biso   1.000  H
  H37      1.0000 0.07210  0.21500  0.54810  Biso   1.000  H
  H38      1.0000 0.92790  0.78500  0.45190  Biso   1.000  H
  H39      1.0000 0.10440  0.19360  0.65680  Biso   1.000  H
  H40      1.0000 0.89560  0.80640  0.34320  Biso   1.000  H
  H41      1.0000 0.14920  0.31550  0.57230  Biso   1.000  H
  H42      1.0000 0.85080  0.68450  0.42770  Biso   1.000  H
