data_image0
_cell_length_a       33.619
_cell_length_b       13.04
_cell_length_c       7.04
_cell_angle_alpha    90
_cell_angle_beta     101.9
_cell_angle_gamma    90

_symmetry_space_group_name_H-M    "P 1"
_symmetry_int_tables_number       1

loop_
  _symmetry_equiv_pos_as_xyz
  'x, y, z'

loop_
  _atom_site_label
  _atom_site_occupancy
  _atom_site_fract_x
  _atom_site_fract_y
  _atom_site_fract_z
  _atom_site_thermal_displace_type
  _atom_site_B_iso_or_equiv
  _atom_site_type_symbol
  Cu1      1.0000 0.41850  0.26630  0.24620  Biso   1.000  Cu
  Cu2      1.0000 0.91850  0.76630  0.24620  Biso   1.000  Cu
  Cu3      1.0000 0.58150  0.26630  0.25380  Biso   1.000  Cu
  Cu4      1.0000 0.08150  0.76630  0.25380  Biso   1.000  Cu
  Cu5      1.0000 0.58150  0.73370  0.75380  Biso   1.000  Cu
  Cu6      1.0000 0.08150  0.23370  0.75380  Biso   1.000  Cu
  Cu7      1.0000 0.41850  0.73370  0.74620  Biso   1.000  Cu
  Cu8      1.0000 0.91850  0.23370  0.74620  Biso   1.000  Cu
  Cu9      1.0000 0.33140  0.26070  0.15880  Biso   1.000  Cu
  Cu10     1.0000 0.83140  0.76070  0.15880  Biso   1.000  Cu
  Cu11     1.0000 0.66860  0.26070  0.34120  Biso   1.000  Cu
  Cu12     1.0000 0.16860  0.76070  0.34120  Biso   1.000  Cu
  Cu13     1.0000 0.66860  0.73930  0.84120  Biso   1.000  Cu
  Cu14     1.0000 0.16860  0.23930  0.84120  Biso   1.000  Cu
  Cu15     1.0000 0.33140  0.73930  0.65880  Biso   1.000  Cu
  Cu16     1.0000 0.83140  0.23930  0.65880  Biso   1.000  Cu
  O1       1.0000 0.37420  0.35930  0.15770  Biso   1.000  O
  O2       1.0000 0.87420  0.85930  0.15770  Biso   1.000  O
  O3       1.0000 0.62580  0.35930  0.34230  Biso   1.000  O
  O4       1.0000 0.12580  0.85930  0.34230  Biso   1.000  O
  O5       1.0000 0.62580  0.64070  0.84230  Biso   1.000  O
  O6       1.0000 0.12580  0.14070  0.84230  Biso   1.000  O
  O7       1.0000 0.37420  0.64070  0.65770  Biso   1.000  O
  O8       1.0000 0.87420  0.14070  0.65770  Biso   1.000  O
  O9       1.0000 0.37600  0.16480  0.20450  Biso   1.000  O
  O10      1.0000 0.87600  0.66480  0.20450  Biso   1.000  O
  O11      1.0000 0.62400  0.16480  0.29550  Biso   1.000  O
  O12      1.0000 0.12400  0.66480  0.29550  Biso   1.000  O
  O13      1.0000 0.62400  0.83520  0.79550  Biso   1.000  O
  O14      1.0000 0.12400  0.33520  0.79550  Biso   1.000  O
  O15      1.0000 0.37600  0.83520  0.70450  Biso   1.000  O
  O16      1.0000 0.87600  0.33520  0.70450  Biso   1.000  O
  N1       1.0000 0.46450  0.37010  0.24700  Biso   1.000  N
  N2       1.0000 0.96450  0.87010  0.24700  Biso   1.000  N
  N3       1.0000 0.53550  0.37010  0.25300  Biso   1.000  N
  N4       1.0000 0.03550  0.87010  0.25300  Biso   1.000  N
  N5       1.0000 0.53550  0.62990  0.75300  Biso   1.000  N
  N6       1.0000 0.03550  0.12990  0.75300  Biso   1.000  N
  N7       1.0000 0.46450  0.62990  0.74700  Biso   1.000  N
  N8       1.0000 0.96450  0.12990  0.74700  Biso   1.000  N
  C1       1.0000 0.46410  0.47280  0.24430  Biso   1.000  C
  C2       1.0000 0.96410  0.97280  0.24430  Biso   1.000  C
  C3       1.0000 0.53590  0.47280  0.25570  Biso   1.000  C
  C4       1.0000 0.03590  0.97280  0.25570  Biso   1.000  C
  C5       1.0000 0.53590  0.52720  0.75570  Biso   1.000  C
  C6       1.0000 0.03590  0.02720  0.75570  Biso   1.000  C
  C7       1.0000 0.46410  0.52720  0.74430  Biso   1.000  C
  C8       1.0000 0.96410  0.02720  0.74430  Biso   1.000  C
  C9       1.0000 0.50000  0.52690  0.25000  Biso   1.000  C
  C10      1.0000 0.00000  0.02690  0.25000  Biso   1.000  C
  C11      1.0000 0.50000  0.47310  0.75000  Biso   1.000  C
  C12      1.0000 0.00000  0.97310  0.75000  Biso   1.000  C
  C13      1.0000 0.50000  0.32490  0.25000  Biso   1.000  C
  C14      1.0000 0.00000  0.82490  0.25000  Biso   1.000  C
  C15      1.0000 0.50000  0.67510  0.75000  Biso   1.000  C
  C16      1.0000 0.00000  0.17510  0.75000  Biso   1.000  C
  C17      1.0000 0.50000  0.21170  0.25000  Biso   1.000  C
  C18      1.0000 0.00000  0.71170  0.25000  Biso   1.000  C
  C19      1.0000 0.50000  0.78830  0.75000  Biso   1.000  C
  C20      1.0000 0.00000  0.28830  0.75000  Biso   1.000  C
  C21      1.0000 0.50000  0.00880  0.25000  Biso   1.000  C
  C22      1.0000 0.00000  0.50880  0.25000  Biso   1.000  C
  C23      1.0000 0.50000  0.99120  0.75000  Biso   1.000  C
  C24      1.0000 0.00000  0.49120  0.75000  Biso   1.000  C
  C25      1.0000 0.46480  0.06310  0.25690  Biso   1.000  C
  C26      1.0000 0.96480  0.56310  0.25690  Biso   1.000  C
  C27      1.0000 0.53520  0.06310  0.24310  Biso   1.000  C
  C28      1.0000 0.03520  0.56310  0.24310  Biso   1.000  C
  C29      1.0000 0.53520  0.93690  0.74310  Biso   1.000  C
  C30      1.0000 0.03520  0.43690  0.74310  Biso   1.000  C
  C31      1.0000 0.46480  0.93690  0.75690  Biso   1.000  C
  C32      1.0000 0.96480  0.43690  0.75690  Biso   1.000  C
  N9       1.0000 0.46480  0.16480  0.25590  Biso   1.000  N
  N10      1.0000 0.96480  0.66480  0.25590  Biso   1.000  N
  N11      1.0000 0.53520  0.16480  0.24410  Biso   1.000  N
  N12      1.0000 0.03520  0.66480  0.24410  Biso   1.000  N
  N13      1.0000 0.53520  0.83520  0.74410  Biso   1.000  N
  N14      1.0000 0.03520  0.33520  0.74410  Biso   1.000  N
  N15      1.0000 0.46480  0.83520  0.75590  Biso   1.000  N
  N16      1.0000 0.96480  0.33520  0.75590  Biso   1.000  N
  N17      1.0000 0.28660  0.15340  0.09590  Biso   1.000  N
  N18      1.0000 0.78660  0.65340  0.09590  Biso   1.000  N
  N19      1.0000 0.71340  0.15340  0.40410  Biso   1.000  N
  N20      1.0000 0.21340  0.65340  0.40410  Biso   1.000  N
  N21      1.0000 0.71340  0.84660  0.90410  Biso   1.000  N
  N22      1.0000 0.21340  0.34660  0.90410  Biso   1.000  N
  N23      1.0000 0.28660  0.84660  0.59590  Biso   1.000  N
  N24      1.0000 0.78660  0.34660  0.59590  Biso   1.000  N
  C33      1.0000 0.28750  0.05180  0.12170  Biso   1.000  C
  C34      1.0000 0.78750  0.55180  0.12170  Biso   1.000  C
  C35      1.0000 0.71250  0.05180  0.37830  Biso   1.000  C
  C36      1.0000 0.21250  0.55180  0.37830  Biso   1.000  C
  C37      1.0000 0.71250  0.94820  0.87830  Biso   1.000  C
  C38      1.0000 0.21250  0.44820  0.87830  Biso   1.000  C
  C39      1.0000 0.28750  0.94820  0.62170  Biso   1.000  C
  C40      1.0000 0.78750  0.44820  0.62170  Biso   1.000  C
  C41      1.0000 0.25300  0.99260  0.06680  Biso   1.000  C
  C42      1.0000 0.75300  0.49260  0.06680  Biso   1.000  C
  C43      1.0000 0.74700  0.99260  0.43320  Biso   1.000  C
  C44      1.0000 0.24700  0.49260  0.43320  Biso   1.000  C
  C45      1.0000 0.74700  0.00740  0.93320  Biso   1.000  C
  C46      1.0000 0.24700  0.50740  0.93320  Biso   1.000  C
  C47      1.0000 0.25300  0.00740  0.56680  Biso   1.000  C
  C48      1.0000 0.75300  0.50740  0.56680  Biso   1.000  C
  C49      1.0000 0.25080  0.19380  0.01350  Biso   1.000  C
  C50      1.0000 0.75080  0.69380  0.01350  Biso   1.000  C
  C51      1.0000 0.74920  0.19380  0.48650  Biso   1.000  C
  C52      1.0000 0.24920  0.69380  0.48650  Biso   1.000  C
  C53      1.0000 0.74920  0.80620  0.98650  Biso   1.000  C
  C54      1.0000 0.24920  0.30620  0.98650  Biso   1.000  C
  C55      1.0000 0.25080  0.80620  0.51350  Biso   1.000  C
  C56      1.0000 0.75080  0.30620  0.51350  Biso   1.000  C
  N25      1.0000 0.28410  0.35670  0.04310  Biso   1.000  N
  N26      1.0000 0.78410  0.85670  0.04310  Biso   1.000  N
  N27      1.0000 0.71590  0.35670  0.45690  Biso   1.000  N
  N28      1.0000 0.21590  0.85670  0.45690  Biso   1.000  N
  N29      1.0000 0.71590  0.64330  0.95690  Biso   1.000  N
  N30      1.0000 0.21590  0.14330  0.95690  Biso   1.000  N
  N31      1.0000 0.28410  0.64330  0.54310  Biso   1.000  N
  N32      1.0000 0.78410  0.14330  0.54310  Biso   1.000  N
  C57      1.0000 0.21770  0.04080  0.98280  Biso   1.000  C
  C58      1.0000 0.71770  0.54080  0.98280  Biso   1.000  C
  C59      1.0000 0.78230  0.04080  0.51720  Biso   1.000  C
  C60      1.0000 0.28230  0.54080  0.51720  Biso   1.000  C
  C61      1.0000 0.78230  0.95920  0.01720  Biso   1.000  C
  C62      1.0000 0.28230  0.45920  0.01720  Biso   1.000  C
  C63      1.0000 0.21770  0.95920  0.48280  Biso   1.000  C
  C64      1.0000 0.71770  0.45920  0.48280  Biso   1.000  C
  N33      1.0000 0.43520  0.24760  0.69380  Biso   1.000  N
  N34      1.0000 0.93520  0.74760  0.69380  Biso   1.000  N
  N35      1.0000 0.56480  0.24760  0.80620  Biso   1.000  N
  N36      1.0000 0.06480  0.74760  0.80620  Biso   1.000  N
  N37      1.0000 0.56480  0.75240  0.30620  Biso   1.000  N
  N38      1.0000 0.06480  0.25240  0.30620  Biso   1.000  N
  N39      1.0000 0.43520  0.75240  0.19380  Biso   1.000  N
  N40      1.0000 0.93520  0.25240  0.19380  Biso   1.000  N
  O17      1.0000 0.42680  0.30970  0.56840  Biso   1.000  O
  O18      1.0000 0.92680  0.80970  0.56840  Biso   1.000  O
  O19      1.0000 0.57320  0.30970  0.93160  Biso   1.000  O
  O20      1.0000 0.07320  0.80970  0.93160  Biso   1.000  O
  O21      1.0000 0.57320  0.69030  0.43160  Biso   1.000  O
  O22      1.0000 0.07320  0.19030  0.43160  Biso   1.000  O
  O23      1.0000 0.42680  0.69030  0.06840  Biso   1.000  O
  O24      1.0000 0.92680  0.19030  0.06840  Biso   1.000  O
  O25      1.0000 0.44190  0.26660  0.86540  Biso   1.000  O
  O26      1.0000 0.94190  0.76660  0.86540  Biso   1.000  O
  O27      1.0000 0.55810  0.26660  0.63460  Biso   1.000  O
  O28      1.0000 0.05810  0.76660  0.63460  Biso   1.000  O
  O29      1.0000 0.55810  0.73340  0.13460  Biso   1.000  O
  O30      1.0000 0.05810  0.23340  0.13460  Biso   1.000  O
  O31      1.0000 0.44190  0.73340  0.36540  Biso   1.000  O
  O32      1.0000 0.94190  0.23340  0.36540  Biso   1.000  O
  O33      1.0000 0.42770  0.15280  0.63790  Biso   1.000  O
  O34      1.0000 0.92770  0.65280  0.63790  Biso   1.000  O
  O35      1.0000 0.57230  0.15280  0.86210  Biso   1.000  O
  O36      1.0000 0.07230  0.65280  0.86210  Biso   1.000  O
  O37      1.0000 0.57230  0.84720  0.36210  Biso   1.000  O
  O38      1.0000 0.07230  0.34720  0.36210  Biso   1.000  O
  O39      1.0000 0.42770  0.84720  0.13790  Biso   1.000  O
  O40      1.0000 0.92770  0.34720  0.13790  Biso   1.000  O
  N41      1.0000 0.31300  0.24440  0.56870  Biso   1.000  N
  N42      1.0000 0.81300  0.74440  0.56870  Biso   1.000  N
  N43      1.0000 0.68700  0.24440  0.93130  Biso   1.000  N
  N44      1.0000 0.18700  0.74440  0.93130  Biso   1.000  N
  N45      1.0000 0.68700  0.75560  0.43130  Biso   1.000  N
  N46      1.0000 0.18700  0.25560  0.43130  Biso   1.000  N
  N47      1.0000 0.31300  0.75560  0.06870  Biso   1.000  N
  N48      1.0000 0.81300  0.25560  0.06870  Biso   1.000  N
  O41      1.0000 0.31830  0.30940  0.45690  Biso   1.000  O
  O42      1.0000 0.81830  0.80940  0.45690  Biso   1.000  O
  O43      1.0000 0.68170  0.30940  0.04310  Biso   1.000  O
  O44      1.0000 0.18170  0.80940  0.04310  Biso   1.000  O
  O45      1.0000 0.68170  0.69060  0.54310  Biso   1.000  O
  O46      1.0000 0.18170  0.19060  0.54310  Biso   1.000  O
  O47      1.0000 0.31830  0.69060  0.95690  Biso   1.000  O
  O48      1.0000 0.81830  0.19060  0.95690  Biso   1.000  O
  O49      1.0000 0.32690  0.15440  0.53280  Biso   1.000  O
  O50      1.0000 0.82690  0.65440  0.53280  Biso   1.000  O
  O51      1.0000 0.67310  0.15440  0.96720  Biso   1.000  O
  O52      1.0000 0.17310  0.65440  0.96720  Biso   1.000  O
  O53      1.0000 0.67310  0.84560  0.46720  Biso   1.000  O
  O54      1.0000 0.17310  0.34560  0.46720  Biso   1.000  O
  O55      1.0000 0.32690  0.84560  0.03280  Biso   1.000  O
  O56      1.0000 0.82690  0.34560  0.03280  Biso   1.000  O
  O57      1.0000 0.30310  0.25120  0.71560  Biso   1.000  O
  O58      1.0000 0.80310  0.75120  0.71560  Biso   1.000  O
  O59      1.0000 0.69690  0.25120  0.78440  Biso   1.000  O
  O60      1.0000 0.19690  0.75120  0.78440  Biso   1.000  O
  O61      1.0000 0.69690  0.74880  0.28440  Biso   1.000  O
  O62      1.0000 0.19690  0.24880  0.28440  Biso   1.000  O
  O63      1.0000 0.30310  0.74880  0.21560  Biso   1.000  O
  O64      1.0000 0.80310  0.24880  0.21560  Biso   1.000  O
  O65      1.0000 0.37110  0.55350  0.29840  Biso   1.000  O
  O66      1.0000 0.87110  0.05350  0.29840  Biso   1.000  O
  O67      1.0000 0.62890  0.55350  0.20160  Biso   1.000  O
  O68      1.0000 0.12890  0.05350  0.20160  Biso   1.000  O
  O69      1.0000 0.62890  0.44650  0.70160  Biso   1.000  O
  O70      1.0000 0.12890  0.94650  0.70160  Biso   1.000  O
  O71      1.0000 0.37110  0.44650  0.79840  Biso   1.000  O
  O72      1.0000 0.87110  0.94650  0.79840  Biso   1.000  O
  O73      1.0000 0.37790  0.96310  0.38060  Biso   1.000  O
  O74      1.0000 0.87790  0.46310  0.38060  Biso   1.000  O
  O75      1.0000 0.62210  0.96310  0.11940  Biso   1.000  O
  O76      1.0000 0.12210  0.46310  0.11940  Biso   1.000  O
  O77      1.0000 0.62210  0.03690  0.61940  Biso   1.000  O
  O78      1.0000 0.12210  0.53690  0.61940  Biso   1.000  O
  O79      1.0000 0.37790  0.03690  0.88060  Biso   1.000  O
  O80      1.0000 0.87790  0.53690  0.88060  Biso   1.000  O
  H1       1.0000 0.37900  0.41600  0.24500  Biso   1.000  H
  H2       1.0000 0.87900  0.91600  0.24500  Biso   1.000  H
  H3       1.0000 0.62100  0.41600  0.25500  Biso   1.000  H
  H4       1.0000 0.12100  0.91600  0.25500  Biso   1.000  H
  H5       1.0000 0.62100  0.58400  0.75500  Biso   1.000  H
  H6       1.0000 0.12100  0.08400  0.75500  Biso   1.000  H
  H7       1.0000 0.37900  0.58400  0.74500  Biso   1.000  H
  H8       1.0000 0.87900  0.08400  0.74500  Biso   1.000  H
  H9       1.0000 0.38300  0.12100  0.31500  Biso   1.000  H
  H10      1.0000 0.88300  0.62100  0.31500  Biso   1.000  H
  H11      1.0000 0.61700  0.12100  0.18500  Biso   1.000  H
  H12      1.0000 0.11700  0.62100  0.18500  Biso   1.000  H
  H13      1.0000 0.61700  0.87900  0.68500  Biso   1.000  H
  H14      1.0000 0.11700  0.37900  0.68500  Biso   1.000  H
  H15      1.0000 0.38300  0.87900  0.81500  Biso   1.000  H
  H16      1.0000 0.88300  0.37900  0.81500  Biso   1.000  H
  H17      1.0000 0.38300  0.58300  0.42200  Biso   1.000  H
  H18      1.0000 0.88300  0.08300  0.42200  Biso   1.000  H
  H19      1.0000 0.61700  0.58300  0.07800  Biso   1.000  H
  H20      1.0000 0.11700  0.08300  0.07800  Biso   1.000  H
  H21      1.0000 0.61700  0.41700  0.57800  Biso   1.000  H
  H22      1.0000 0.11700  0.91700  0.57800  Biso   1.000  H
  H23      1.0000 0.38300  0.41700  0.92200  Biso   1.000  H
  H24      1.0000 0.88300  0.91700  0.92200  Biso   1.000  H
  H25      1.0000 0.38000  0.60100  0.21200  Biso   1.000  H
  H26      1.0000 0.88000  0.10100  0.21200  Biso   1.000  H
  H27      1.0000 0.62000  0.60100  0.28800  Biso   1.000  H
  H28      1.0000 0.12000  0.10100  0.28800  Biso   1.000  H
  H29      1.0000 0.62000  0.39900  0.78800  Biso   1.000  H
  H30      1.0000 0.12000  0.89900  0.78800  Biso   1.000  H
  H31      1.0000 0.38000  0.39900  0.71200  Biso   1.000  H
  H32      1.0000 0.88000  0.89900  0.71200  Biso   1.000  H
  H33      1.0000 0.38700  0.90900  0.31000  Biso   1.000  H
  H34      1.0000 0.88700  0.40900  0.31000  Biso   1.000  H
  H35      1.0000 0.61300  0.90900  0.19000  Biso   1.000  H
  H36      1.0000 0.11300  0.40900  0.19000  Biso   1.000  H
  H37      1.0000 0.61300  0.09100  0.69000  Biso   1.000  H
  H38      1.0000 0.11300  0.59100  0.69000  Biso   1.000  H
  H39      1.0000 0.38700  0.09100  0.81000  Biso   1.000  H
  H40      1.0000 0.88700  0.59100  0.81000  Biso   1.000  H
  H41      1.0000 0.38100  0.93200  0.50600  Biso   1.000  H
  H42      1.0000 0.88100  0.43200  0.50600  Biso   1.000  H
  H43      1.0000 0.61900  0.93200  0.99400  Biso   1.000  H
  H44      1.0000 0.11900  0.43200  0.99400  Biso   1.000  H
  H45      1.0000 0.61900  0.06800  0.49400  Biso   1.000  H
  H46      1.0000 0.11900  0.56800  0.49400  Biso   1.000  H
  H47      1.0000 0.38100  0.06800  0.00600  Biso   1.000  H
  H48      1.0000 0.88100  0.56800  0.00600  Biso   1.000  H
  H49      1.0000 0.43900  0.50900  0.23900  Biso   1.000  H
  H50      1.0000 0.93900  0.00900  0.23900  Biso   1.000  H
  H51      1.0000 0.56100  0.50900  0.26100  Biso   1.000  H
  H52      1.0000 0.06100  0.00900  0.26100  Biso   1.000  H
  H53      1.0000 0.56100  0.49100  0.76100  Biso   1.000  H
  H54      1.0000 0.06100  0.99100  0.76100  Biso   1.000  H
  H55      1.0000 0.43900  0.49100  0.73900  Biso   1.000  H
  H56      1.0000 0.93900  0.99100  0.73900  Biso   1.000  H
  H57      1.0000 0.50000  0.60000  0.25000  Biso   1.000  H
  H58      1.0000 0.00000  0.10000  0.25000  Biso   1.000  H
  H59      1.0000 0.50000  0.40000  0.75000  Biso   1.000  H
  H60      1.0000 0.00000  0.90000  0.75000  Biso   1.000  H
  H61      1.0000 0.50000  0.93500  0.25000  Biso   1.000  H
  H62      1.0000 0.00000  0.43500  0.25000  Biso   1.000  H
  H63      1.0000 0.50000  0.06500  0.75000  Biso   1.000  H
  H64      1.0000 0.00000  0.56500  0.75000  Biso   1.000  H
  H65      1.0000 0.44000  0.02700  0.26300  Biso   1.000  H
  H66      1.0000 0.94000  0.52700  0.26300  Biso   1.000  H
  H67      1.0000 0.56000  0.02700  0.23700  Biso   1.000  H
  H68      1.0000 0.06000  0.52700  0.23700  Biso   1.000  H
  H69      1.0000 0.56000  0.97300  0.73700  Biso   1.000  H
  H70      1.0000 0.06000  0.47300  0.73700  Biso   1.000  H
  H71      1.0000 0.44000  0.97300  0.76300  Biso   1.000  H
  H72      1.0000 0.94000  0.47300  0.76300  Biso   1.000  H
  H73      1.0000 0.31300  0.02000  0.18100  Biso   1.000  H
  H74      1.0000 0.81300  0.52000  0.18100  Biso   1.000  H
  H75      1.0000 0.68700  0.02000  0.31900  Biso   1.000  H
  H76      1.0000 0.18700  0.52000  0.31900  Biso   1.000  H
  H77      1.0000 0.68700  0.98000  0.81900  Biso   1.000  H
  H78      1.0000 0.18700  0.48000  0.81900  Biso   1.000  H
  H79      1.0000 0.31300  0.98000  0.68100  Biso   1.000  H
  H80      1.0000 0.81300  0.48000  0.68100  Biso   1.000  H
  H81      1.0000 0.25400  0.92000  0.08700  Biso   1.000  H
  H82      1.0000 0.75400  0.42000  0.08700  Biso   1.000  H
  H83      1.0000 0.74600  0.92000  0.41300  Biso   1.000  H
  H84      1.0000 0.24600  0.42000  0.41300  Biso   1.000  H
  H85      1.0000 0.74600  0.08000  0.91300  Biso   1.000  H
  H86      1.0000 0.24600  0.58000  0.91300  Biso   1.000  H
  H87      1.0000 0.25400  0.08000  0.58700  Biso   1.000  H
  H88      1.0000 0.75400  0.58000  0.58700  Biso   1.000  H
  H89      1.0000 0.19300  0.00100  0.94100  Biso   1.000  H
  H90      1.0000 0.69300  0.50100  0.94100  Biso   1.000  H
  H91      1.0000 0.80700  0.00100  0.55900  Biso   1.000  H
  H92      1.0000 0.30700  0.50100  0.55900  Biso   1.000  H
  H93      1.0000 0.80700  0.99900  0.05900  Biso   1.000  H
  H94      1.0000 0.30700  0.49900  0.05900  Biso   1.000  H
  H95      1.0000 0.19300  0.99900  0.44100  Biso   1.000  H
  H96      1.0000 0.69300  0.49900  0.44100  Biso   1.000  H
