data_image0
_cell_length_a       5.4332
_cell_length_b       9.4151
_cell_length_c       14.7835
_cell_angle_alpha    90
_cell_angle_beta     92.679
_cell_angle_gamma    90

_symmetry_space_group_name_H-M    "P 1"
_symmetry_int_tables_number       1

loop_
  _symmetry_equiv_pos_as_xyz
  'x, y, z'

loop_
  _atom_site_label
  _atom_site_occupancy
  _atom_site_fract_x
  _atom_site_fract_y
  _atom_site_fract_z
  _atom_site_thermal_displace_type
  _atom_site_B_iso_or_equiv
  _atom_site_type_symbol
  Cu1      1.0000 0.94597  0.80581  0.42495  Biso   1.000  Cu
  Cu2      1.0000 0.05403  0.30581  0.57505  Biso   1.000  Cu
  O1       1.0000 0.97640  0.61970  0.49135  Biso   1.000  O
  O2       1.0000 0.02360  0.11970  0.50865  Biso   1.000  O
  O3       1.0000 0.81360  0.40140  0.49282  Biso   1.000  O
  O4       1.0000 0.18640  0.90140  0.50718  Biso   1.000  O
  O5       1.0000 0.24950  0.76860  0.32727  Biso   1.000  O
  O6       1.0000 0.75050  0.26860  0.67273  Biso   1.000  O
  N1       1.0000 0.65330  0.72080  0.37514  Biso   1.000  N
  N2       1.0000 0.34670  0.22080  0.62486  Biso   1.000  N
  N3       1.0000 0.81840  0.97200  0.35050  Biso   1.000  N
  N4       1.0000 0.18160  0.47200  0.64950  Biso   1.000  N
  C1       1.0000 0.81760  0.52850  0.46560  Biso   1.000  C
  C2       1.0000 0.18240  0.02850  0.53440  Biso   1.000  C
  C3       1.0000 0.61080  0.57240  0.39770  Biso   1.000  C
  C4       1.0000 0.38920  0.07240  0.60230  Biso   1.000  C
  H1       1.0000 0.44510  0.55880  0.42320  Biso   1.000  H
  H2       1.0000 0.55490  0.05880  0.57680  Biso   1.000  H
  C5       1.0000 0.64560  0.47000  0.30860  Biso   1.000  C
  C6       1.0000 0.35440  0.97000  0.69140  Biso   1.000  C
  H3       1.0000 0.61230  0.37040  0.32570  Biso   1.000  H
  H4       1.0000 0.38770  0.87040  0.67430  Biso   1.000  H
  H5       1.0000 0.52140  0.49730  0.26060  Biso   1.000  H
  H6       1.0000 0.47860  0.99730  0.73940  Biso   1.000  H
  C7       1.0000 0.89700  0.47760  0.27060  Biso   1.000  C
  C8       1.0000 0.10300  0.97760  0.72940  Biso   1.000  C
  H7       1.0000 0.01740  0.51670  0.31740  Biso   1.000  H
  H8       1.0000 0.98260  0.01670  0.68260  Biso   1.000  H
  C9       1.0000 0.97000  0.32590  0.24630  Biso   1.000  C
  C10      1.0000 0.03000  0.82590  0.75370  Biso   1.000  C
  H9       1.0000 0.85340  0.28860  0.19960  Biso   1.000  H
  H10      1.0000 0.14660  0.78860  0.80040  Biso   1.000  H
  H11      1.0000 0.96710  0.26570  0.30030  Biso   1.000  H
  H12      1.0000 0.03290  0.76570  0.69970  Biso   1.000  H
  H13      1.0000 0.13640  0.32610  0.22340  Biso   1.000  H
  H14      1.0000 0.86360  0.82610  0.77660  Biso   1.000  H
  C11      1.0000 0.89970  0.56730  0.18540  Biso   1.000  C
  C12      1.0000 0.10030  0.06730  0.81460  Biso   1.000  C
  H15      1.0000 0.06790  0.57180  0.16440  Biso   1.000  H
  H16      1.0000 0.93210  0.07180  0.83560  Biso   1.000  H
  H17      1.0000 0.84220  0.66350  0.19860  Biso   1.000  H
  H18      1.0000 0.15780  0.16350  0.80140  Biso   1.000  H
  H19      1.0000 0.79080  0.52460  0.13820  Biso   1.000  H
  H20      1.0000 0.20920  0.02460  0.86180  Biso   1.000  H
  C13      1.0000 0.47130  0.80290  0.34499  Biso   1.000  C
  C14      1.0000 0.52870  0.30290  0.65501  Biso   1.000  C
  C15      1.0000 0.54810  0.95830  0.33280  Biso   1.000  C
  C16      1.0000 0.45190  0.45830  0.66720  Biso   1.000  C
  H21      1.0000 0.46710  0.01480  0.38040  Biso   1.000  H
  H22      1.0000 0.53290  0.51480  0.61960  Biso   1.000  H
  C17      1.0000 0.45900  0.01940  0.24060  Biso   1.000  C
  C18      1.0000 0.54100  0.51940  0.75940  Biso   1.000  C
  H23      1.0000 0.27720  0.01180  0.23530  Biso   1.000  H
  H24      1.0000 0.72280  0.51180  0.76470  Biso   1.000  H
  H25      1.0000 0.50120  0.12170  0.23950  Biso   1.000  H
  H26      1.0000 0.49880  0.62170  0.76050  Biso   1.000  H
  C19      1.0000 0.56240  0.95000  0.15930  Biso   1.000  C
  C20      1.0000 0.43760  0.45000  0.84070  Biso   1.000  C
  C21      1.0000 0.44900  0.82980  0.12040  Biso   1.000  C
  C22      1.0000 0.55100  0.32980  0.87960  Biso   1.000  C
  H27      1.0000 0.30790  0.78970  0.14620  Biso   1.000  H
  H28      1.0000 0.69210  0.28970  0.85380  Biso   1.000  H
  C23      1.0000 0.54490  0.76900  0.04330  Biso   1.000  C
  C24      1.0000 0.45510  0.26900  0.95670  Biso   1.000  C
  H29      1.0000 0.46500  0.68910  0.01580  Biso   1.000  H
  H30      1.0000 0.53500  0.18910  0.98420  Biso   1.000  H
  C25      1.0000 0.75120  0.82260  0.00700  Biso   1.000  C
  C26      1.0000 0.24880  0.32260  0.99300  Biso   1.000  C
  H31      1.0000 0.81480  0.77950  0.95490  Biso   1.000  H
  H32      1.0000 0.18520  0.27950  0.04510  Biso   1.000  H
  C27      1.0000 0.86860  0.93970  0.04570  Biso   1.000  C
  C28      1.0000 0.13140  0.43970  0.95430  Biso   1.000  C
  H33      1.0000 0.01320  0.97680  0.02070  Biso   1.000  H
  H34      1.0000 0.98680  0.47680  0.97930  Biso   1.000  H
  C29      1.0000 0.77290  0.00200  0.12110  Biso   1.000  C
  C30      1.0000 0.22710  0.50200  0.87890  Biso   1.000  C
  H35      1.0000 0.85350  0.08250  0.14750  Biso   1.000  H
  H36      1.0000 0.14650  0.58250  0.85250  Biso   1.000  H
  C31      1.0000 0.57000  0.48010  0.31830  Biso   1.000  C
  C32      1.0000 0.43000  0.98010  0.68170  Biso   1.000  C
  H37      1.0000 0.44850  0.52120  0.27370  Biso   1.000  H
  H38      1.0000 0.55150  0.02120  0.72630  Biso   1.000  H
  H39      1.0000 0.51420  0.38450  0.33620  Biso   1.000  H
  H40      1.0000 0.48580  0.88450  0.66380  Biso   1.000  H
  C33      1.0000 0.79900  0.47700  0.25700  Biso   1.000  C
  C34      1.0000 0.20100  0.97700  0.74300  Biso   1.000  C
  H41      1.0000 0.86990  0.57450  0.25220  Biso   1.000  H
  H42      1.0000 0.13010  0.07450  0.74780  Biso   1.000  H
  C35      1.0000 0.99200  0.37700  0.28330  Biso   1.000  C
  C36      1.0000 0.00800  0.87700  0.71670  Biso   1.000  C
  H43      1.0000 0.08000  0.40970  0.33870  Biso   1.000  H
  H44      1.0000 0.92000  0.90970  0.66130  Biso   1.000  H
  H45      1.0000 0.10820  0.36890  0.23460  Biso   1.000  H
  H46      1.0000 0.89180  0.86890  0.76540  Biso   1.000  H
  H47      1.0000 0.91920  0.28330  0.29410  Biso   1.000  H
  H48      1.0000 0.08080  0.78330  0.70590  Biso   1.000  H
  C37      1.0000 0.66800  0.42980  0.15990  Biso   1.000  C
  C38      1.0000 0.33200  0.92980  0.84010  Biso   1.000  C
  H49      1.0000 0.60040  0.33360  0.16500  Biso   1.000  H
  H50      1.0000 0.39960  0.83360  0.83500  Biso   1.000  H
  H51      1.0000 0.78960  0.43130  0.11320  Biso   1.000  H
  H52      1.0000 0.21040  0.93130  0.88680  Biso   1.000  H
  H53      1.0000 0.53390  0.49610  0.14340  Biso   1.000  H
  H54      1.0000 0.46610  0.99610  0.85660  Biso   1.000  H
  H55      1.0000 0.84300  0.04400  0.37400  Biso   1.000  H
  H56      1.0000 0.15700  0.54400  0.62600  Biso   1.000  H
  H57      1.0000 0.89100  0.96300  0.29900  Biso   1.000  H
  H58      1.0000 0.10900  0.46300  0.70100  Biso   1.000  H
