data_image0
_cell_length_a       10.7728
_cell_length_b       11.0118
_cell_length_c       13.4792
_cell_angle_alpha    91.331
_cell_angle_beta     98.3
_cell_angle_gamma    108.653

_symmetry_space_group_name_H-M    "P 1"
_symmetry_int_tables_number       1

loop_
  _symmetry_equiv_pos_as_xyz
  'x, y, z'

loop_
  _atom_site_label
  _atom_site_occupancy
  _atom_site_fract_x
  _atom_site_fract_y
  _atom_site_fract_z
  _atom_site_thermal_displace_type
  _atom_site_B_iso_or_equiv
  _atom_site_type_symbol
  Cu1      1.0000 0.00000  0.00000  0.00000  Biso   1.000  Cu
  Cu2      1.0000 0.06976  0.29807  0.01168  Biso   1.000  Cu
  Cu3      1.0000 0.93024  0.70193  0.98832  Biso   1.000  Cu
  Cu4      1.0000 0.12385  0.92117  0.20793  Biso   1.000  Cu
  Cu5      1.0000 0.87615  0.07883  0.79207  Biso   1.000  Cu
  P1       1.0000 0.28930  0.15908  0.12335  Biso   1.000  P
  P2       1.0000 0.71070  0.84092  0.87665  Biso   1.000  P
  P3       1.0000 0.97231  0.17517  0.20686  Biso   1.000  P
  P4       1.0000 0.02769  0.82483  0.79314  Biso   1.000  P
  P5       1.0000 0.85202  0.71620  0.20070  Biso   1.000  P
  P6       1.0000 0.14798  0.28380  0.79930  Biso   1.000  P
  C1       1.0000 0.56270  0.27800  0.13700  Biso   1.000  C
  C2       1.0000 0.43730  0.72200  0.86300  Biso   1.000  C
  C3       1.0000 0.60130  0.40800  0.17280  Biso   1.000  C
  C4       1.0000 0.39870  0.59200  0.82720  Biso   1.000  C
  C5       1.0000 0.71920  0.46140  0.24140  Biso   1.000  C
  C6       1.0000 0.28080  0.53860  0.75860  Biso   1.000  C
  C7       1.0000 0.79860  0.38760  0.27450  Biso   1.000  C
  C8       1.0000 0.20140  0.61240  0.72550  Biso   1.000  C
  C9       1.0000 0.75840  0.25700  0.24010  Biso   1.000  C
  C10      1.0000 0.24160  0.74300  0.75990  Biso   1.000  C
  C11      1.0000 0.64190  0.20390  0.17010  Biso   1.000  C
  C12      1.0000 0.35810  0.79610  0.82990  Biso   1.000  C
  C13      1.0000 0.92740  0.44860  0.34610  Biso   1.000  C
  C14      1.0000 0.07260  0.55140  0.65390  Biso   1.000  C
  H1       1.0000 0.96980  0.38530  0.36170  Biso   1.000  H
  H2       1.0000 0.03020  0.61470  0.63830  Biso   1.000  H
  H3       1.0000 0.90910  0.48180  0.40690  Biso   1.000  H
  H4       1.0000 0.09090  0.51820  0.59310  Biso   1.000  H
  H5       1.0000 0.98500  0.51750  0.31520  Biso   1.000  H
  H6       1.0000 0.01500  0.48250  0.68480  Biso   1.000  H
  C15      1.0000 0.60470  0.06710  0.12660  Biso   1.000  C
  C16      1.0000 0.39530  0.93290  0.87340  Biso   1.000  C
  H7       1.0000 0.66850  0.02920  0.15680  Biso   1.000  H
  H8       1.0000 0.33150  0.97080  0.84320  Biso   1.000  H
  H9       1.0000 0.60380  0.06640  0.05530  Biso   1.000  H
  H10      1.0000 0.39620  0.93360  0.94470  Biso   1.000  H
  H11      1.0000 0.51820  0.01860  0.14020  Biso   1.000  H
  H12      1.0000 0.48180  0.98140  0.85980  Biso   1.000  H
  C17      1.0000 0.51860  0.49180  0.13820  Biso   1.000  C
  C18      1.0000 0.48140  0.50820  0.86180  Biso   1.000  C
  H13      1.0000 0.44150  0.44200  0.09200  Biso   1.000  H
  H14      1.0000 0.55850  0.55800  0.90800  Biso   1.000  H
  H15      1.0000 0.57040  0.56250  0.10530  Biso   1.000  H
  H16      1.0000 0.42960  0.43750  0.89470  Biso   1.000  H
  H17      1.0000 0.49160  0.52430  0.19520  Biso   1.000  H
  H18      1.0000 0.50840  0.47570  0.80480  Biso   1.000  H
  C19      1.0000 0.43490  0.21900  0.06400  Biso   1.000  C
  C20      1.0000 0.56510  0.78100  0.93600  Biso   1.000  C
  H19      1.0000 0.44320  0.14880  0.02360  Biso   1.000  H
  H20      1.0000 0.55680  0.85120  0.97640  Biso   1.000  H
  H21      1.0000 0.42270  0.28320  0.01900  Biso   1.000  H
  H22      1.0000 0.57730  0.71680  0.98100  Biso   1.000  H
  C21      1.0000 0.84110  0.17460  0.27780  Biso   1.000  C
  C22      1.0000 0.15890  0.82540  0.72220  Biso   1.000  C
  H23      1.0000 0.78260  0.08680  0.27720  Biso   1.000  H
  H24      1.0000 0.21740  0.91320  0.72280  Biso   1.000  H
  H25      1.0000 0.88080  0.20360  0.34710  Biso   1.000  H
  H26      1.0000 0.11920  0.79640  0.65290  Biso   1.000  H
  C23      1.0000 0.75830  0.60120  0.27860  Biso   1.000  C
  C24      1.0000 0.24170  0.39880  0.72140  Biso   1.000  C
  H27      1.0000 0.81040  0.61280  0.34520  Biso   1.000  H
  H28      1.0000 0.18960  0.38720  0.65480  Biso   1.000  H
  H29      1.0000 0.67810  0.62090  0.28510  Biso   1.000  H
  H30      1.0000 0.32190  0.37910  0.71490  Biso   1.000  H
  C25      1.0000 0.19060  0.51980  0.16670  Biso   1.000  C
  C26      1.0000 0.80940  0.48020  0.83330  Biso   1.000  C
  H31      1.0000 0.17440  0.46810  0.22010  Biso   1.000  H
  H32      1.0000 0.82560  0.53190  0.77990  Biso   1.000  H
  N1       1.0000 0.25830  0.68980  0.08270  Biso   1.000  N
  N2       1.0000 0.74170  0.31020  0.91730  Biso   1.000  N
  C27      1.0000 0.30750  0.72910  0.26820  Biso   1.000  C
  C28      1.0000 0.69250  0.27090  0.73180  Biso   1.000  C
  C29      1.0000 0.44480  0.73640  0.29780  Biso   1.000  C
  C30      1.0000 0.55520  0.26360  0.70220  Biso   1.000  C
  C31      1.0000 0.51070  0.83630  0.38890  Biso   1.000  C
  C32      1.0000 0.48930  0.16370  0.61110  Biso   1.000  C
  C33      1.0000 0.86820  0.07180  0.57020  Biso   1.000  C
  C34      1.0000 0.13180  0.92820  0.42980  Biso   1.000  C
  H33      1.0000 0.94380  0.14400  0.57830  Biso   1.000  H
  H34      1.0000 0.05620  0.85600  0.42170  Biso   1.000  H
  N3       1.0000 0.81200  0.01670  0.48350  Biso   1.000  N
  N4       1.0000 0.18800  0.98330  0.51650  Biso   1.000  N
  C35      1.0000 0.62760  0.81570  0.42960  Biso   1.000  C
  C36      1.0000 0.37240  0.18430  0.57040  Biso   1.000  C
  C37      1.0000 0.71020  0.92400  0.60560  Biso   1.000  C
  C38      1.0000 0.28980  0.07600  0.39440  Biso   1.000  C
  H35      1.0000 0.64510  0.87260  0.63910  Biso   1.000  H
  H36      1.0000 0.35490  0.12740  0.36090  Biso   1.000  H
  N5       1.0000 0.15730  0.47810  0.07050  Biso   1.000  N
  N6       1.0000 0.84270  0.52190  0.92950  Biso   1.000  N
  C39      1.0000 0.20080  0.58660  0.02270  Biso   1.000  C
  C40      1.0000 0.79920  0.41340  0.97730  Biso   1.000  C
  H37      1.0000 0.19050  0.58740  0.95310  Biso   1.000  H
  H38      1.0000 0.80950  0.41260  0.04690  Biso   1.000  H
  N7       1.0000 0.24980  0.64460  0.17560  Biso   1.000  N
  N8       1.0000 0.75020  0.35540  0.82440  Biso   1.000  N
  N9       1.0000 0.71200  0.91030  0.50890  Biso   1.000  N
  N10      1.0000 0.28800  0.08970  0.49110  Biso   1.000  N
  N11      1.0000 0.81320  0.02060  0.64870  Biso   1.000  N
  N12      1.0000 0.18680  0.97940  0.35130  Biso   1.000  N
  O1       1.0000 0.16800  0.14040  0.04260  Biso   1.000  O
  O2       1.0000 0.83200  0.85960  0.95740  Biso   1.000  O
  O3       1.0000 0.30030  0.26320  0.20470  Biso   1.000  O
  O4       1.0000 0.69970  0.73680  0.79530  Biso   1.000  O
  H39      1.0000 0.23620  0.23970  0.23420  Biso   1.000  H
  H40      1.0000 0.76380  0.76030  0.76580  Biso   1.000  H
  O5       1.0000 0.28650  0.03360  0.16930  Biso   1.000  O
  O6       1.0000 0.71350  0.96640  0.83070  Biso   1.000  O
  O7       1.0000 0.96020  0.03810  0.17390  Biso   1.000  O
  O8       1.0000 0.03980  0.96190  0.82610  Biso   1.000  O
  O9       1.0000 0.10260  0.23840  0.28290  Biso   1.000  O
  O10      1.0000 0.89740  0.76160  0.71710  Biso   1.000  O
  O11      1.0000 0.96570  0.25850  0.12000  Biso   1.000  O
  O12      1.0000 0.03430  0.74150  0.88000  Biso   1.000  O
  O13      1.0000 0.83420  0.65130  0.09790  Biso   1.000  O
  O14      1.0000 0.16580  0.34870  0.90210  Biso   1.000  O
  O15      1.0000 0.99500  0.77250  0.25100  Biso   1.000  O
  O16      1.0000 0.00500  0.22750  0.74900  Biso   1.000  O
  O17      1.0000 0.78360  0.82210  0.19910  Biso   1.000  O
  O18      1.0000 0.21640  0.17790  0.80090  Biso   1.000  O
  H41      1.0000 0.81620  0.87690  0.16160  Biso   1.000  H
  H42      1.0000 0.18380  0.12310  0.83840  Biso   1.000  H
  O19      1.0000 0.93670  0.13590  0.93627  Biso   1.000  O
  O20      1.0000 0.06330  0.86410  0.06373  Biso   1.000  O
  H43      1.0000 0.86260  0.13200  0.95400  Biso   1.000  H
  H44      1.0000 0.13740  0.86800  0.04600  Biso   1.000  H
  O21      1.0000 0.47790  0.38900  0.38400  Biso   1.000  O
  O22      1.0000 0.52210  0.61100  0.61600  Biso   1.000  O
  H45      1.0000 0.55730  0.40360  0.41280  Biso   1.000  H
  H46      1.0000 0.44270  0.59640  0.58720  Biso   1.000  H
  H47      1.0000 0.46040  0.32850  0.33850  Biso   1.000  H
  H48      1.0000 0.53960  0.67150  0.66150  Biso   1.000  H
  O23      1.0000 0.27660  0.44540  0.44540  Biso   1.000  O
  O24      1.0000 0.72340  0.55460  0.55460  Biso   1.000  O
  H49      1.0000 0.30190  0.52400  0.46690  Biso   1.000  H
  H50      1.0000 0.69810  0.47600  0.53310  Biso   1.000  H
  H51      1.0000 0.22880  0.40210  0.48570  Biso   1.000  H
  H52      1.0000 0.77120  0.59790  0.51430  Biso   1.000  H
  C41      1.0000 0.44310  0.81500  0.26620  Biso   1.000  C
  C42      1.0000 0.55690  0.18500  0.73380  Biso   1.000  C
  C43      1.0000 0.51800  0.89200  0.36980  Biso   1.000  C
  C44      1.0000 0.48200  0.10800  0.63020  Biso   1.000  C
  C45      1.0000 0.89800  0.04200  0.57900  Biso   1.000  C
  C46      1.0000 0.10200  0.95800  0.42100  Biso   1.000  C
  H53      1.0000 0.98530  0.09550  0.58800  Biso   1.000  H
  H54      1.0000 0.01470  0.90450  0.41200  Biso   1.000  H
  N13      1.0000 0.82700  0.96600  0.49000  Biso   1.000  N
  N14      1.0000 0.17300  0.03400  0.51000  Biso   1.000  N
