data_image0
_cell_length_a       5.178
_cell_length_b       8.497
_cell_length_c       14.415
_cell_angle_alpha    88.25
_cell_angle_beta     85.95
_cell_angle_gamma    75.58

_symmetry_space_group_name_H-M    "P 1"
_symmetry_int_tables_number       1

loop_
  _symmetry_equiv_pos_as_xyz
  'x, y, z'

loop_
  _atom_site_label
  _atom_site_occupancy
  _atom_site_fract_x
  _atom_site_fract_y
  _atom_site_fract_z
  _atom_site_thermal_displace_type
  _atom_site_B_iso_or_equiv
  _atom_site_type_symbol
  Cu1      1.0000 0.26918  0.02014  0.04457  Biso   1.000  Cu
  Cu2      1.0000 0.73082  0.97986  0.95543  Biso   1.000  Cu
  O1       1.0000 0.22110  0.24090  0.99770  Biso   1.000  O
  O2       1.0000 0.77890  0.75910  0.00230  Biso   1.000  O
  O3       1.0000 0.38320  0.79290  0.08150  Biso   1.000  O
  O4       1.0000 0.61680  0.20710  0.91850  Biso   1.000  O
  O5       1.0000 0.16290  0.95720  0.92230  Biso   1.000  O
  O6       1.0000 0.83710  0.04280  0.07770  Biso   1.000  O
  O7       1.0000 0.43850  0.07570  0.15280  Biso   1.000  O
  O8       1.0000 0.56150  0.92430  0.84720  Biso   1.000  O
  C1       1.0000 0.38680  0.29070  0.94330  Biso   1.000  C
  C2       1.0000 0.61320  0.70930  0.05670  Biso   1.000  C
  C3       1.0000 0.31820  0.92630  0.84950  Biso   1.000  C
  C4       1.0000 0.68180  0.07370  0.15050  Biso   1.000  C
  C5       1.0000 0.29360  0.45840  0.90350  Biso   1.000  C
  C6       1.0000 0.70640  0.54160  0.09650  Biso   1.000  C
  C7       1.0000 0.07880  0.46190  0.83430  Biso   1.000  C
  C8       1.0000 0.92120  0.53810  0.16570  Biso   1.000  C
  C9       1.0000 0.18700  0.37070  0.74760  Biso   1.000  C
  C10      1.0000 0.81300  0.62930  0.25240  Biso   1.000  C
  C11      1.0000 0.96700  0.36700  0.68150  Biso   1.000  C
  C12      1.0000 0.03300  0.63300  0.31850  Biso   1.000  C
  C13      1.0000 0.20000  0.89280  0.76230  Biso   1.000  C
  C14      1.0000 0.80000  0.10720  0.23770  Biso   1.000  C
  C15      1.0000 0.39100  0.84700  0.67950  Biso   1.000  C
  C16      1.0000 0.60900  0.15300  0.32050  Biso   1.000  C
  C17      1.0000 0.25900  0.81400  0.59430  Biso   1.000  C
  C18      1.0000 0.74100  0.18600  0.40570  Biso   1.000  C
  C19      1.0000 0.45100  0.76200  0.51200  Biso   1.000  C
  C20      1.0000 0.54900  0.23800  0.48800  Biso   1.000  C
