data_image0
_cell_length_a       28.065
_cell_length_b       12.789
_cell_length_c       13.21
_cell_angle_alpha    90
_cell_angle_beta     94.47
_cell_angle_gamma    90

_symmetry_space_group_name_H-M    "P 1"
_symmetry_int_tables_number       1

loop_
  _symmetry_equiv_pos_as_xyz
  'x, y, z'

loop_
  _atom_site_label
  _atom_site_occupancy
  _atom_site_fract_x
  _atom_site_fract_y
  _atom_site_fract_z
  _atom_site_thermal_displace_type
  _atom_site_B_iso_or_equiv
  _atom_site_type_symbol
  Cu1      1.0000 0.25550  0.19280  0.74060  Biso   1.000  Cu
  Cu2      1.0000 0.74450  0.19280  0.75940  Biso   1.000  Cu
  Cu3      1.0000 0.75550  0.69280  0.74060  Biso   1.000  Cu
  Cu4      1.0000 0.24450  0.69280  0.75940  Biso   1.000  Cu
  Cu5      1.0000 0.74450  0.80720  0.25940  Biso   1.000  Cu
  Cu6      1.0000 0.25550  0.80720  0.24060  Biso   1.000  Cu
  Cu7      1.0000 0.24450  0.30720  0.25940  Biso   1.000  Cu
  Cu8      1.0000 0.75550  0.30720  0.24060  Biso   1.000  Cu
  N1       1.0000 0.34100  0.14980  0.74370  Biso   1.000  N
  N2       1.0000 0.65900  0.14980  0.75630  Biso   1.000  N
  N3       1.0000 0.84100  0.64980  0.74370  Biso   1.000  N
  N4       1.0000 0.15900  0.64980  0.75630  Biso   1.000  N
  N5       1.0000 0.65900  0.85020  0.25630  Biso   1.000  N
  N6       1.0000 0.34100  0.85020  0.24370  Biso   1.000  N
  N7       1.0000 0.15900  0.35020  0.25630  Biso   1.000  N
  N8       1.0000 0.84100  0.35020  0.24370  Biso   1.000  N
  C1       1.0000 0.36210  0.23190  0.81550  Biso   1.000  C
  C2       1.0000 0.63790  0.23190  0.68450  Biso   1.000  C
  C3       1.0000 0.86210  0.73190  0.81550  Biso   1.000  C
  C4       1.0000 0.13790  0.73190  0.68450  Biso   1.000  C
  C5       1.0000 0.63790  0.76810  0.18450  Biso   1.000  C
  C6       1.0000 0.36210  0.76810  0.31550  Biso   1.000  C
  C7       1.0000 0.13790  0.26810  0.18450  Biso   1.000  C
  C8       1.0000 0.86210  0.26810  0.31550  Biso   1.000  C
  N9       1.0000 0.28170  0.26290  0.86870  Biso   1.000  N
  N10      1.0000 0.71830  0.26290  0.63130  Biso   1.000  N
  N11      1.0000 0.78170  0.76290  0.86870  Biso   1.000  N
  N12      1.0000 0.21830  0.76290  0.63130  Biso   1.000  N
  N13      1.0000 0.71830  0.73710  0.13130  Biso   1.000  N
  N14      1.0000 0.28170  0.73710  0.36870  Biso   1.000  N
  N15      1.0000 0.21830  0.23710  0.13130  Biso   1.000  N
  N16      1.0000 0.78170  0.23710  0.36870  Biso   1.000  N
  C9       1.0000 0.32520  0.31390  0.83920  Biso   1.000  C
  C10      1.0000 0.67480  0.31390  0.66080  Biso   1.000  C
  C11      1.0000 0.82520  0.81390  0.83920  Biso   1.000  C
  C12      1.0000 0.17480  0.81390  0.66080  Biso   1.000  C
  C13      1.0000 0.67480  0.68610  0.16080  Biso   1.000  C
  C14      1.0000 0.32520  0.68610  0.33920  Biso   1.000  C
  C15      1.0000 0.17480  0.18610  0.16080  Biso   1.000  C
  C16      1.0000 0.82520  0.18610  0.33920  Biso   1.000  C
  N17      1.0000 0.28170  0.32210  0.67150  Biso   1.000  N
  N18      1.0000 0.71830  0.32210  0.82850  Biso   1.000  N
  N19      1.0000 0.78170  0.82210  0.67150  Biso   1.000  N
  N20      1.0000 0.21830  0.82210  0.82850  Biso   1.000  N
  N21      1.0000 0.71830  0.67790  0.32850  Biso   1.000  N
  N22      1.0000 0.28170  0.67790  0.17150  Biso   1.000  N
  N23      1.0000 0.21830  0.17790  0.32850  Biso   1.000  N
  N24      1.0000 0.78170  0.17790  0.17150  Biso   1.000  N
  C17      1.0000 0.30940  0.38920  0.74750  Biso   1.000  C
  C18      1.0000 0.69060  0.38920  0.75250  Biso   1.000  C
  C19      1.0000 0.80940  0.88920  0.74750  Biso   1.000  C
  C20      1.0000 0.19060  0.88920  0.75250  Biso   1.000  C
  C21      1.0000 0.69060  0.61080  0.25250  Biso   1.000  C
  C22      1.0000 0.30940  0.61080  0.24750  Biso   1.000  C
  C23      1.0000 0.19060  0.11080  0.25250  Biso   1.000  C
  C24      1.0000 0.80940  0.11080  0.24750  Biso   1.000  C
  N25      1.0000 0.26860  0.55720  0.69710  Biso   1.000  N
  N26      1.0000 0.73140  0.55720  0.80290  Biso   1.000  N
  N27      1.0000 0.76860  0.05720  0.69710  Biso   1.000  N
  N28      1.0000 0.23140  0.05720  0.80290  Biso   1.000  N
  N29      1.0000 0.73140  0.44280  0.30290  Biso   1.000  N
  N30      1.0000 0.26860  0.44280  0.19710  Biso   1.000  N
  N31      1.0000 0.23140  0.94280  0.30290  Biso   1.000  N
  N32      1.0000 0.76860  0.94280  0.19710  Biso   1.000  N
  C25      1.0000 0.27860  0.47990  0.78030  Biso   1.000  C
  C26      1.0000 0.72140  0.47990  0.71970  Biso   1.000  C
  C27      1.0000 0.77860  0.97990  0.78030  Biso   1.000  C
  C28      1.0000 0.22140  0.97990  0.71970  Biso   1.000  C
  C29      1.0000 0.72140  0.52010  0.21970  Biso   1.000  C
  C30      1.0000 0.27860  0.52010  0.28030  Biso   1.000  C
  C31      1.0000 0.22140  0.02010  0.21970  Biso   1.000  C
  C32      1.0000 0.77860  0.02010  0.28030  Biso   1.000  C
  N33      1.0000 0.27260  0.63410  0.89050  Biso   1.000  N
  N34      1.0000 0.72740  0.63410  0.60950  Biso   1.000  N
  N35      1.0000 0.77260  0.13410  0.89050  Biso   1.000  N
  N36      1.0000 0.22740  0.13410  0.60950  Biso   1.000  N
  N37      1.0000 0.72740  0.36590  0.10950  Biso   1.000  N
  N38      1.0000 0.27260  0.36590  0.39050  Biso   1.000  N
  N39      1.0000 0.22740  0.86590  0.10950  Biso   1.000  N
  N40      1.0000 0.77260  0.86590  0.39050  Biso   1.000  N
  C33      1.0000 0.30310  0.54250  0.87010  Biso   1.000  C
  C34      1.0000 0.69690  0.54250  0.62990  Biso   1.000  C
  C35      1.0000 0.80310  0.04250  0.87010  Biso   1.000  C
  C36      1.0000 0.19690  0.04250  0.62990  Biso   1.000  C
  C37      1.0000 0.69690  0.45750  0.12990  Biso   1.000  C
  C38      1.0000 0.30310  0.45750  0.37010  Biso   1.000  C
  C39      1.0000 0.19690  0.95750  0.12990  Biso   1.000  C
  C40      1.0000 0.80310  0.95750  0.37010  Biso   1.000  C
  O1       1.0000 0.20340  0.37860  0.95770  Biso   1.000  O
  O2       1.0000 0.79660  0.37860  0.54230  Biso   1.000  O
  O3       1.0000 0.70340  0.87860  0.95770  Biso   1.000  O
  O4       1.0000 0.29660  0.87860  0.54230  Biso   1.000  O
  O5       1.0000 0.79660  0.62140  0.04230  Biso   1.000  O
  O6       1.0000 0.20340  0.62140  0.45770  Biso   1.000  O
  O7       1.0000 0.29660  0.12140  0.04230  Biso   1.000  O
  O8       1.0000 0.70340  0.12140  0.45770  Biso   1.000  O
  O9       1.0000 0.12610  0.32070  0.83700  Biso   1.000  O
  O10      1.0000 0.87390  0.32070  0.66300  Biso   1.000  O
  O11      1.0000 0.62610  0.82070  0.83700  Biso   1.000  O
  O12      1.0000 0.37390  0.82070  0.66300  Biso   1.000  O
  O13      1.0000 0.87390  0.67930  0.16300  Biso   1.000  O
  O14      1.0000 0.12610  0.67930  0.33700  Biso   1.000  O
  O15      1.0000 0.37390  0.17930  0.16300  Biso   1.000  O
  O16      1.0000 0.62610  0.17930  0.33700  Biso   1.000  O
  O17      1.0000 0.17620  0.29010  0.71680  Biso   1.000  O
  O18      1.0000 0.82380  0.29010  0.78320  Biso   1.000  O
  O19      1.0000 0.67620  0.79010  0.71680  Biso   1.000  O
  O20      1.0000 0.32380  0.79010  0.78320  Biso   1.000  O
  O21      1.0000 0.82380  0.70990  0.28320  Biso   1.000  O
  O22      1.0000 0.17620  0.70990  0.21680  Biso   1.000  O
  O23      1.0000 0.32380  0.20990  0.28320  Biso   1.000  O
  O24      1.0000 0.67620  0.20990  0.21680  Biso   1.000  O
  O25      1.0000 0.20400  0.42460  0.53970  Biso   1.000  O
  O26      1.0000 0.79600  0.42460  0.96030  Biso   1.000  O
  O27      1.0000 0.70400  0.92460  0.53970  Biso   1.000  O
  O28      1.0000 0.29600  0.92460  0.96030  Biso   1.000  O
  O29      1.0000 0.79600  0.57540  0.46030  Biso   1.000  O
  O30      1.0000 0.20400  0.57540  0.03970  Biso   1.000  O
  O31      1.0000 0.29600  0.07540  0.46030  Biso   1.000  O
  O32      1.0000 0.70400  0.07540  0.03970  Biso   1.000  O
  O33      1.0000 0.16120  0.28520  0.48780  Biso   1.000  O
  O34      1.0000 0.83880  0.28520  0.01220  Biso   1.000  O
  O35      1.0000 0.66120  0.78520  0.48780  Biso   1.000  O
  O36      1.0000 0.33880  0.78520  0.01220  Biso   1.000  O
  O37      1.0000 0.83880  0.71480  0.51220  Biso   1.000  O
  O38      1.0000 0.16120  0.71480  0.98780  Biso   1.000  O
  O39      1.0000 0.33880  0.21480  0.51220  Biso   1.000  O
  O40      1.0000 0.66120  0.21480  0.98780  Biso   1.000  O
  C41      1.0000 0.10960  0.39970  0.67460  Biso   1.000  C
  C42      1.0000 0.89040  0.39970  0.82540  Biso   1.000  C
  C43      1.0000 0.60960  0.89970  0.67460  Biso   1.000  C
  C44      1.0000 0.39040  0.89970  0.82540  Biso   1.000  C
  C45      1.0000 0.89040  0.60030  0.32540  Biso   1.000  C
  C46      1.0000 0.10960  0.60030  0.17460  Biso   1.000  C
  C47      1.0000 0.39040  0.10030  0.32540  Biso   1.000  C
  C48      1.0000 0.60960  0.10030  0.17460  Biso   1.000  C
  C49      1.0000 0.12300  0.41950  0.57570  Biso   1.000  C
  C50      1.0000 0.87700  0.41950  0.92430  Biso   1.000  C
  C51      1.0000 0.62300  0.91950  0.57570  Biso   1.000  C
  C52      1.0000 0.37700  0.91950  0.92430  Biso   1.000  C
  C53      1.0000 0.87700  0.58050  0.42430  Biso   1.000  C
  C54      1.0000 0.12300  0.58050  0.07570  Biso   1.000  C
  C55      1.0000 0.37700  0.08050  0.42430  Biso   1.000  C
  C56      1.0000 0.62300  0.08050  0.07570  Biso   1.000  C
  C57      1.0000 0.09600  0.48900  0.51180  Biso   1.000  C
  C58      1.0000 0.90400  0.48900  0.98820  Biso   1.000  C
  C59      1.0000 0.59600  0.98900  0.51180  Biso   1.000  C
  C60      1.0000 0.40400  0.98900  0.98820  Biso   1.000  C
  C61      1.0000 0.90400  0.51100  0.48820  Biso   1.000  C
  C62      1.0000 0.09600  0.51100  0.01180  Biso   1.000  C
  C63      1.0000 0.40400  0.01100  0.48820  Biso   1.000  C
  C64      1.0000 0.59600  0.01100  0.01180  Biso   1.000  C
  C65      1.0000 0.05540  0.53730  0.54540  Biso   1.000  C
  C66      1.0000 0.94460  0.53730  0.95460  Biso   1.000  C
  C67      1.0000 0.55540  0.03730  0.54540  Biso   1.000  C
  C68      1.0000 0.44460  0.03730  0.95460  Biso   1.000  C
  C69      1.0000 0.94460  0.46270  0.45460  Biso   1.000  C
  C70      1.0000 0.05540  0.46270  0.04540  Biso   1.000  C
  C71      1.0000 0.44460  0.96270  0.45460  Biso   1.000  C
  C72      1.0000 0.55540  0.96270  0.04540  Biso   1.000  C
  C73      1.0000 0.04150  0.51650  0.63950  Biso   1.000  C
  C74      1.0000 0.95850  0.51650  0.86050  Biso   1.000  C
  C75      1.0000 0.54150  0.01650  0.63950  Biso   1.000  C
  C76      1.0000 0.45850  0.01650  0.86050  Biso   1.000  C
  C77      1.0000 0.95850  0.48350  0.36050  Biso   1.000  C
  C78      1.0000 0.04150  0.48350  0.13950  Biso   1.000  C
  C79      1.0000 0.45850  0.98350  0.36050  Biso   1.000  C
  C80      1.0000 0.54150  0.98350  0.13950  Biso   1.000  C
  C81      1.0000 0.06800  0.44740  0.70440  Biso   1.000  C
  C82      1.0000 0.93200  0.44740  0.79560  Biso   1.000  C
  C83      1.0000 0.56800  0.94740  0.70440  Biso   1.000  C
  C84      1.0000 0.43200  0.94740  0.79560  Biso   1.000  C
  C85      1.0000 0.93200  0.55260  0.29560  Biso   1.000  C
  C86      1.0000 0.06800  0.55260  0.20440  Biso   1.000  C
  C87      1.0000 0.43200  0.05260  0.29560  Biso   1.000  C
  C88      1.0000 0.56800  0.05260  0.20440  Biso   1.000  C
  C89      1.0000 0.14030  0.33060  0.74710  Biso   1.000  C
  C90      1.0000 0.85970  0.33060  0.75290  Biso   1.000  C
  C91      1.0000 0.64030  0.83060  0.74710  Biso   1.000  C
  C92      1.0000 0.35970  0.83060  0.75290  Biso   1.000  C
  C93      1.0000 0.85970  0.66940  0.25290  Biso   1.000  C
  C94      1.0000 0.14030  0.66940  0.24710  Biso   1.000  C
  C95      1.0000 0.35970  0.16940  0.25290  Biso   1.000  C
  C96      1.0000 0.64030  0.16940  0.24710  Biso   1.000  C
  C97      1.0000 0.16580  0.37240  0.53460  Biso   1.000  C
  C98      1.0000 0.83420  0.37240  0.96540  Biso   1.000  C
  C99      1.0000 0.66580  0.87240  0.53460  Biso   1.000  C
  C100     1.0000 0.33420  0.87240  0.96540  Biso   1.000  C
  C101     1.0000 0.83420  0.62760  0.46540  Biso   1.000  C
  C102     1.0000 0.16580  0.62760  0.03460  Biso   1.000  C
  C103     1.0000 0.33420  0.12760  0.46540  Biso   1.000  C
  C104     1.0000 0.66580  0.12760  0.03460  Biso   1.000  C
  O41      1.0000 0.07950  0.19700  0.41220  Biso   1.000  O
  O42      1.0000 0.92050  0.19700  0.08780  Biso   1.000  O
  O43      1.0000 0.57950  0.69700  0.41220  Biso   1.000  O
  O44      1.0000 0.42050  0.69700  0.08780  Biso   1.000  O
  O45      1.0000 0.92050  0.80300  0.58780  Biso   1.000  O
  O46      1.0000 0.07950  0.80300  0.91220  Biso   1.000  O
  O47      1.0000 0.42050  0.30300  0.58780  Biso   1.000  O
  O48      1.0000 0.57950  0.30300  0.91220  Biso   1.000  O
  C105     1.0000 0.03840  0.23570  0.44120  Biso   1.000  C
  C106     1.0000 0.96160  0.23570  0.05880  Biso   1.000  C
  C107     1.0000 0.53840  0.73570  0.44120  Biso   1.000  C
  C108     1.0000 0.46160  0.73570  0.05880  Biso   1.000  C
  C109     1.0000 0.96160  0.76430  0.55880  Biso   1.000  C
  C110     1.0000 0.03840  0.76430  0.94120  Biso   1.000  C
  C111     1.0000 0.46160  0.26430  0.55880  Biso   1.000  C
  C112     1.0000 0.53840  0.26430  0.94120  Biso   1.000  C
  O49      1.0000 0.14860  0.12090  0.90870  Biso   1.000  O
  O50      1.0000 0.85140  0.12090  0.59130  Biso   1.000  O
  O51      1.0000 0.64860  0.62090  0.90870  Biso   1.000  O
  O52      1.0000 0.35140  0.62090  0.59130  Biso   1.000  O
  O53      1.0000 0.85140  0.87910  0.09130  Biso   1.000  O
  O54      1.0000 0.14860  0.87910  0.40870  Biso   1.000  O
  O55      1.0000 0.35140  0.37910  0.09130  Biso   1.000  O
  O56      1.0000 0.64860  0.37910  0.40870  Biso   1.000  O
  C113     1.0000 0.10290  0.07010  0.90880  Biso   1.000  C
  C114     1.0000 0.89710  0.07010  0.59120  Biso   1.000  C
  C115     1.0000 0.60290  0.57010  0.90880  Biso   1.000  C
  C116     1.0000 0.39710  0.57010  0.59120  Biso   1.000  C
  C117     1.0000 0.89710  0.92990  0.09120  Biso   1.000  C
  C118     1.0000 0.10290  0.92990  0.40880  Biso   1.000  C
  C119     1.0000 0.39710  0.42990  0.09120  Biso   1.000  C
  C120     1.0000 0.60290  0.42990  0.40880  Biso   1.000  C
  H1       1.0000 0.34710  0.08340  0.76830  Biso   1.000  H
  H2       1.0000 0.65290  0.08340  0.73170  Biso   1.000  H
  H3       1.0000 0.84710  0.58340  0.76830  Biso   1.000  H
  H4       1.0000 0.15290  0.58340  0.73170  Biso   1.000  H
  H5       1.0000 0.65290  0.91660  0.23170  Biso   1.000  H
  H6       1.0000 0.34710  0.91660  0.26830  Biso   1.000  H
  H7       1.0000 0.15290  0.41660  0.23170  Biso   1.000  H
  H8       1.0000 0.84710  0.41660  0.26830  Biso   1.000  H
  H9       1.0000 0.35220  0.15590  0.68040  Biso   1.000  H
  H10      1.0000 0.64780  0.15590  0.81960  Biso   1.000  H
  H11      1.0000 0.85220  0.65590  0.68040  Biso   1.000  H
  H12      1.0000 0.14780  0.65590  0.81960  Biso   1.000  H
  H13      1.0000 0.64780  0.84410  0.31960  Biso   1.000  H
  H14      1.0000 0.35220  0.84410  0.18040  Biso   1.000  H
  H15      1.0000 0.14780  0.34410  0.31960  Biso   1.000  H
  H16      1.0000 0.85220  0.34410  0.18040  Biso   1.000  H
  H17      1.0000 0.38910  0.26640  0.78490  Biso   1.000  H
  H18      1.0000 0.61090  0.26640  0.71510  Biso   1.000  H
  H19      1.0000 0.88910  0.76640  0.78490  Biso   1.000  H
  H20      1.0000 0.11090  0.76640  0.71510  Biso   1.000  H
  H21      1.0000 0.61090  0.73360  0.21510  Biso   1.000  H
  H22      1.0000 0.38910  0.73360  0.28490  Biso   1.000  H
  H23      1.0000 0.11090  0.23360  0.21510  Biso   1.000  H
  H24      1.0000 0.88910  0.23360  0.28490  Biso   1.000  H
  H25      1.0000 0.37480  0.19800  0.87940  Biso   1.000  H
  H26      1.0000 0.62520  0.19800  0.62060  Biso   1.000  H
  H27      1.0000 0.87480  0.69800  0.87940  Biso   1.000  H
  H28      1.0000 0.12520  0.69800  0.62060  Biso   1.000  H
  H29      1.0000 0.62520  0.80200  0.12060  Biso   1.000  H
  H30      1.0000 0.37480  0.80200  0.37940  Biso   1.000  H
  H31      1.0000 0.12520  0.30200  0.12060  Biso   1.000  H
  H32      1.0000 0.87480  0.30200  0.37940  Biso   1.000  H
  H33      1.0000 0.26050  0.31120  0.89040  Biso   1.000  H
  H34      1.0000 0.73950  0.31120  0.60960  Biso   1.000  H
  H35      1.0000 0.76050  0.81120  0.89040  Biso   1.000  H
  H36      1.0000 0.23950  0.81120  0.60960  Biso   1.000  H
  H37      1.0000 0.73950  0.68880  0.10960  Biso   1.000  H
  H38      1.0000 0.26050  0.68880  0.39040  Biso   1.000  H
  H39      1.0000 0.23950  0.18880  0.10960  Biso   1.000  H
  H40      1.0000 0.76050  0.18880  0.39040  Biso   1.000  H
  H41      1.0000 0.28870  0.21480  0.91950  Biso   1.000  H
  H42      1.0000 0.71130  0.21480  0.58050  Biso   1.000  H
  H43      1.0000 0.78870  0.71480  0.91950  Biso   1.000  H
  H44      1.0000 0.21130  0.71480  0.58050  Biso   1.000  H
  H45      1.0000 0.71130  0.78520  0.08050  Biso   1.000  H
  H46      1.0000 0.28870  0.78520  0.41950  Biso   1.000  H
  H47      1.0000 0.21130  0.28520  0.08050  Biso   1.000  H
  H48      1.0000 0.78870  0.28520  0.41950  Biso   1.000  H
  H49      1.0000 0.33870  0.35740  0.89740  Biso   1.000  H
  H50      1.0000 0.66130  0.35740  0.60260  Biso   1.000  H
  H51      1.0000 0.83870  0.85740  0.89740  Biso   1.000  H
  H52      1.0000 0.16130  0.85740  0.60260  Biso   1.000  H
  H53      1.0000 0.66130  0.64260  0.10260  Biso   1.000  H
  H54      1.0000 0.33870  0.64260  0.39740  Biso   1.000  H
  H55      1.0000 0.16130  0.14260  0.10260  Biso   1.000  H
  H56      1.0000 0.83870  0.14260  0.39740  Biso   1.000  H
  H57      1.0000 0.30110  0.30140  0.62230  Biso   1.000  H
  H58      1.0000 0.69890  0.30140  0.87770  Biso   1.000  H
  H59      1.0000 0.80110  0.80140  0.62230  Biso   1.000  H
  H60      1.0000 0.19890  0.80140  0.87770  Biso   1.000  H
  H61      1.0000 0.69890  0.69860  0.37770  Biso   1.000  H
  H62      1.0000 0.30110  0.69860  0.12230  Biso   1.000  H
  H63      1.0000 0.19890  0.19860  0.37770  Biso   1.000  H
  H64      1.0000 0.80110  0.19860  0.12230  Biso   1.000  H
  H65      1.0000 0.25670  0.36000  0.64060  Biso   1.000  H
  H66      1.0000 0.74330  0.36000  0.85940  Biso   1.000  H
  H67      1.0000 0.75670  0.86000  0.64060  Biso   1.000  H
  H68      1.0000 0.24330  0.86000  0.85940  Biso   1.000  H
  H69      1.0000 0.74330  0.64000  0.35940  Biso   1.000  H
  H70      1.0000 0.25670  0.64000  0.14060  Biso   1.000  H
  H71      1.0000 0.24330  0.14000  0.35940  Biso   1.000  H
  H72      1.0000 0.75670  0.14000  0.14060  Biso   1.000  H
  H73      1.0000 0.33840  0.41720  0.71730  Biso   1.000  H
  H74      1.0000 0.66160  0.41720  0.78270  Biso   1.000  H
  H75      1.0000 0.83840  0.91720  0.71730  Biso   1.000  H
  H76      1.0000 0.16160  0.91720  0.78270  Biso   1.000  H
  H77      1.0000 0.66160  0.58280  0.28270  Biso   1.000  H
  H78      1.0000 0.33840  0.58280  0.21730  Biso   1.000  H
  H79      1.0000 0.16160  0.08280  0.28270  Biso   1.000  H
  H80      1.0000 0.83840  0.08280  0.21730  Biso   1.000  H
  H81      1.0000 0.24570  0.53120  0.64990  Biso   1.000  H
  H82      1.0000 0.75430  0.53120  0.85010  Biso   1.000  H
  H83      1.0000 0.74570  0.03120  0.64990  Biso   1.000  H
  H84      1.0000 0.25430  0.03120  0.85010  Biso   1.000  H
  H85      1.0000 0.75430  0.46880  0.35010  Biso   1.000  H
  H86      1.0000 0.24570  0.46880  0.14990  Biso   1.000  H
  H87      1.0000 0.25430  0.96880  0.35010  Biso   1.000  H
  H88      1.0000 0.74570  0.96880  0.14990  Biso   1.000  H
  H89      1.0000 0.29590  0.57020  0.66510  Biso   1.000  H
  H90      1.0000 0.70410  0.57020  0.83490  Biso   1.000  H
  H91      1.0000 0.79590  0.07020  0.66510  Biso   1.000  H
  H92      1.0000 0.20410  0.07020  0.83490  Biso   1.000  H
  H93      1.0000 0.70410  0.42980  0.33490  Biso   1.000  H
  H94      1.0000 0.29590  0.42980  0.16510  Biso   1.000  H
  H95      1.0000 0.20410  0.92980  0.33490  Biso   1.000  H
  H96      1.0000 0.79590  0.92980  0.16510  Biso   1.000  H
  H97      1.0000 0.24760  0.45140  0.80090  Biso   1.000  H
  H98      1.0000 0.75240  0.45140  0.69910  Biso   1.000  H
  H99      1.0000 0.74760  0.95140  0.80090  Biso   1.000  H
  H100     1.0000 0.25240  0.95140  0.69910  Biso   1.000  H
  H101     1.0000 0.75240  0.54860  0.19910  Biso   1.000  H
  H102     1.0000 0.24760  0.54860  0.30090  Biso   1.000  H
  H103     1.0000 0.25240  0.04860  0.19910  Biso   1.000  H
  H104     1.0000 0.74760  0.04860  0.30090  Biso   1.000  H
  H105     1.0000 0.29070  0.68430  0.92540  Biso   1.000  H
  H106     1.0000 0.70930  0.68430  0.57460  Biso   1.000  H
  H107     1.0000 0.79070  0.18430  0.92540  Biso   1.000  H
  H108     1.0000 0.20930  0.18430  0.57460  Biso   1.000  H
  H109     1.0000 0.70930  0.31570  0.07460  Biso   1.000  H
  H110     1.0000 0.29070  0.31570  0.42540  Biso   1.000  H
  H111     1.0000 0.20930  0.81570  0.07460  Biso   1.000  H
  H112     1.0000 0.79070  0.81570  0.42540  Biso   1.000  H
  H113     1.0000 0.24860  0.61390  0.92980  Biso   1.000  H
  H114     1.0000 0.75140  0.61390  0.57020  Biso   1.000  H
  H115     1.0000 0.74860  0.11390  0.92980  Biso   1.000  H
  H116     1.0000 0.25140  0.11390  0.57020  Biso   1.000  H
  H117     1.0000 0.75140  0.38610  0.07020  Biso   1.000  H
  H118     1.0000 0.24860  0.38610  0.42980  Biso   1.000  H
  H119     1.0000 0.25140  0.88610  0.07020  Biso   1.000  H
  H120     1.0000 0.74860  0.88610  0.42980  Biso   1.000  H
  H121     1.0000 0.30720  0.49760  0.93120  Biso   1.000  H
  H122     1.0000 0.69280  0.49760  0.56880  Biso   1.000  H
  H123     1.0000 0.80720  0.99760  0.93120  Biso   1.000  H
  H124     1.0000 0.19280  0.99760  0.56880  Biso   1.000  H
  H125     1.0000 0.69280  0.50240  0.06880  Biso   1.000  H
  H126     1.0000 0.30720  0.50240  0.43120  Biso   1.000  H
  H127     1.0000 0.19280  0.00240  0.06880  Biso   1.000  H
  H128     1.0000 0.80720  0.00240  0.43120  Biso   1.000  H
  H129     1.0000 0.33500  0.56640  0.85310  Biso   1.000  H
  H130     1.0000 0.66500  0.56640  0.64690  Biso   1.000  H
  H131     1.0000 0.83500  0.06640  0.85310  Biso   1.000  H
  H132     1.0000 0.16500  0.06640  0.64690  Biso   1.000  H
  H133     1.0000 0.66500  0.43360  0.14690  Biso   1.000  H
  H134     1.0000 0.33500  0.43360  0.35310  Biso   1.000  H
  H135     1.0000 0.16500  0.93360  0.14690  Biso   1.000  H
  H136     1.0000 0.83500  0.93360  0.35310  Biso   1.000  H
  H137     1.0000 0.10540  0.50320  0.44560  Biso   1.000  H
  H138     1.0000 0.89460  0.50320  0.05440  Biso   1.000  H
  H139     1.0000 0.60540  0.00320  0.44560  Biso   1.000  H
  H140     1.0000 0.39460  0.00320  0.05440  Biso   1.000  H
  H141     1.0000 0.89460  0.49680  0.55440  Biso   1.000  H
  H142     1.0000 0.10540  0.49680  0.94560  Biso   1.000  H
  H143     1.0000 0.39460  0.99680  0.55440  Biso   1.000  H
  H144     1.0000 0.60540  0.99680  0.94560  Biso   1.000  H
  H145     1.0000 0.03740  0.58470  0.50220  Biso   1.000  H
  H146     1.0000 0.96260  0.58470  0.99780  Biso   1.000  H
  H147     1.0000 0.53740  0.08470  0.50220  Biso   1.000  H
  H148     1.0000 0.46260  0.08470  0.99780  Biso   1.000  H
  H149     1.0000 0.96260  0.41530  0.49780  Biso   1.000  H
  H150     1.0000 0.03740  0.41530  0.00220  Biso   1.000  H
  H151     1.0000 0.46260  0.91530  0.49780  Biso   1.000  H
  H152     1.0000 0.53740  0.91530  0.00220  Biso   1.000  H
  H153     1.0000 0.01370  0.54900  0.66160  Biso   1.000  H
  H154     1.0000 0.98630  0.54900  0.83840  Biso   1.000  H
  H155     1.0000 0.51370  0.04900  0.66160  Biso   1.000  H
  H156     1.0000 0.48630  0.04900  0.83840  Biso   1.000  H
  H157     1.0000 0.98630  0.45100  0.33840  Biso   1.000  H
  H158     1.0000 0.01370  0.45100  0.16160  Biso   1.000  H
  H159     1.0000 0.48630  0.95100  0.33840  Biso   1.000  H
  H160     1.0000 0.51370  0.95100  0.16160  Biso   1.000  H
  H161     1.0000 0.05750  0.43260  0.76950  Biso   1.000  H
  H162     1.0000 0.94250  0.43260  0.73050  Biso   1.000  H
  H163     1.0000 0.55750  0.93260  0.76950  Biso   1.000  H
  H164     1.0000 0.44250  0.93260  0.73050  Biso   1.000  H
  H165     1.0000 0.94250  0.56740  0.23050  Biso   1.000  H
  H166     1.0000 0.05750  0.56740  0.26950  Biso   1.000  H
  H167     1.0000 0.44250  0.06740  0.23050  Biso   1.000  H
  H168     1.0000 0.55750  0.06740  0.26950  Biso   1.000  H
