data_image0
_cell_length_a       7.955
_cell_length_b       11.4
_cell_length_c       3.872
_cell_angle_alpha    98.27
_cell_angle_beta     91.54
_cell_angle_gamma    98.28

_symmetry_space_group_name_H-M    "P 1"
_symmetry_int_tables_number       1

loop_
  _symmetry_equiv_pos_as_xyz
  'x, y, z'

loop_
  _atom_site_label
  _atom_site_occupancy
  _atom_site_fract_x
  _atom_site_fract_y
  _atom_site_fract_z
  _atom_site_thermal_displace_type
  _atom_site_B_iso_or_equiv
  _atom_site_type_symbol
  Cu1      1.0000 0.00000  0.00000  0.00000  Biso   1.000  Cu
  Cl1      1.0000 0.83120  0.07940  0.65800  Biso   1.000  Cl
  Cl2      1.0000 0.16880  0.92060  0.34200  Biso   1.000  Cl
  S1       1.0000 0.25360  0.51020  0.29220  Biso   1.000  S
  S2       1.0000 0.74640  0.48980  0.70780  Biso   1.000  S
  S3       1.0000 0.96290  0.31200  0.25970  Biso   1.000  S
  S4       1.0000 0.03710  0.68800  0.74030  Biso   1.000  S
  N1       1.0000 0.18200  0.15680  0.04400  Biso   1.000  N
  N2       1.0000 0.81800  0.84320  0.95600  Biso   1.000  N
  N3       1.0000 0.44400  0.34860  0.03400  Biso   1.000  N
  N4       1.0000 0.55600  0.65140  0.96600  Biso   1.000  N
  C1       1.0000 0.15800  0.27100  0.13800  Biso   1.000  C
  C2       1.0000 0.84200  0.72900  0.86200  Biso   1.000  C
  C3       1.0000 0.29300  0.36520  0.14300  Biso   1.000  C
  C4       1.0000 0.70700  0.63480  0.85700  Biso   1.000  C
  C5       1.0000 0.04600  0.46330  0.40600  Biso   1.000  C
  C6       1.0000 0.95400  0.53670  0.59400  Biso   1.000  C
  C7       1.0000 0.33900  0.14000  0.95100  Biso   1.000  C
  C8       1.0000 0.66100  0.86000  0.04900  Biso   1.000  C
  C9       1.0000 0.46500  0.23300  0.93900  Biso   1.000  C
  C10      1.0000 0.53500  0.76700  0.06100  Biso   1.000  C
  H1       1.0000 0.37930  0.06630  0.95560  Biso   1.000  H
  H2       1.0000 0.62070  0.93370  0.04440  Biso   1.000  H
  H3       1.0000 0.56060  0.22470  0.89840  Biso   1.000  H
  H4       1.0000 0.43940  0.77530  0.10160  Biso   1.000  H
