data_image0
_cell_length_a       7.5787
_cell_length_b       10.9481
_cell_length_c       12.2977
_cell_angle_alpha    69.444
_cell_angle_beta     85.697
_cell_angle_gamma    79.898

_symmetry_space_group_name_H-M    "P 1"
_symmetry_int_tables_number       1

loop_
  _symmetry_equiv_pos_as_xyz
  'x, y, z'

loop_
  _atom_site_label
  _atom_site_occupancy
  _atom_site_fract_x
  _atom_site_fract_y
  _atom_site_fract_z
  _atom_site_thermal_displace_type
  _atom_site_B_iso_or_equiv
  _atom_site_type_symbol
  Cu1      1.0000 0.31330  0.15341  0.26241  Biso   1.000  Cu
  Cu2      1.0000 0.68670  0.84659  0.73759  Biso   1.000  Cu
  Mo1      1.0000 0.79982  0.30628  0.01228  Biso   1.000  Mo
  Mo2      1.0000 0.20018  0.69372  0.98772  Biso   1.000  Mo
  Mo3      1.0000 0.49138  0.45797  0.15479  Biso   1.000  Mo
  Mo4      1.0000 0.50862  0.54203  0.84521  Biso   1.000  Mo
  Mo5      1.0000 0.98897  0.46026  0.15311  Biso   1.000  Mo
  Mo6      1.0000 0.01103  0.53974  0.84689  Biso   1.000  Mo
  N1       1.0000 0.29270  0.09310  0.43380  Biso   1.000  N
  N2       1.0000 0.70730  0.90690  0.56620  Biso   1.000  N
  N3       1.0000 0.24590  0.96340  0.61360  Biso   1.000  N
  N4       1.0000 0.75410  0.03660  0.38640  Biso   1.000  N
  H1       1.0000 0.22150  0.89530  0.67030  Biso   1.000  H
  H2       1.0000 0.77850  0.10470  0.32970  Biso   1.000  H
  N5       1.0000 0.15940  0.79620  0.31020  Biso   1.000  N
  N6       1.0000 0.84060  0.20380  0.68980  Biso   1.000  N
  H3       1.0000 0.15530  0.80850  0.23740  Biso   1.000  H
  H4       1.0000 0.84470  0.19150  0.76260  Biso   1.000  H
  O1       1.0000 0.21120  0.00560  0.25780  Biso   1.000  O
  O2       1.0000 0.78880  0.99440  0.74220  Biso   1.000  O
  O3       1.0000 0.19400  0.06090  0.98660  Biso   1.000  O
  O4       1.0000 0.80600  0.93910  0.01340  Biso   1.000  O
  O5       1.0000 0.35480  0.17950  0.09800  Biso   1.000  O
  O6       1.0000 0.64520  0.82050  0.90200  Biso   1.000  O
  H5       1.0000 0.25000  0.20800  0.07200  Biso   1.000  H
  H6       1.0000 0.75000  0.79200  0.92800  Biso   1.000  H
  H7       1.0000 0.42100  0.23700  0.06700  Biso   1.000  H
  H8       1.0000 0.57900  0.76300  0.93300  Biso   1.000  H
  O7       1.0000 0.06190  0.30270  0.24730  Biso   1.000  O
  O8       1.0000 0.93810  0.69730  0.75270  Biso   1.000  O
  O9       1.0000 0.80690  0.18120  0.14450  Biso   1.000  O
  O10      1.0000 0.19310  0.81880  0.85550  Biso   1.000  O
  O11      1.0000 0.46270  0.29530  0.23990  Biso   1.000  O
  O12      1.0000 0.53730  0.70470  0.76010  Biso   1.000  O
  O13      1.0000 0.83590  0.22630  0.91270  Biso   1.000  O
  O14      1.0000 0.16410  0.77370  0.08730  Biso   1.000  O
  O15      1.0000 0.92210  0.54910  0.24260  Biso   1.000  O
  O16      1.0000 0.07790  0.45090  0.75740  Biso   1.000  O
  O17      1.0000 0.74490  0.44080  0.12340  Biso   1.000  O
  O18      1.0000 0.25510  0.55920  0.87660  Biso   1.000  O
  O19      1.0000 0.48470  0.53350  0.25430  Biso   1.000  O
  O20      1.0000 0.51530  0.46650  0.74570  Biso   1.000  O
  O21      1.0000 0.54130  0.37680  0.99790  Biso   1.000  O
  O22      1.0000 0.45870  0.62320  0.00210  Biso   1.000  O
  O23      1.0000 0.23430  0.49720  0.11860  Biso   1.000  O
  O24      1.0000 0.76570  0.50280  0.88140  Biso   1.000  O
  O25      1.0000 0.02120  0.37350  0.00820  Biso   1.000  O
  O26      1.0000 0.97880  0.62650  0.99180  Biso   1.000  O
  C1       1.0000 0.31910  0.15890  0.50820  Biso   1.000  C
  C2       1.0000 0.68090  0.84110  0.49180  Biso   1.000  C
  C3       1.0000 0.36000  0.28230  0.48960  Biso   1.000  C
  C4       1.0000 0.64000  0.71770  0.51040  Biso   1.000  C
  H9       1.0000 0.37300  0.34100  0.41470  Biso   1.000  H
  H10      1.0000 0.62700  0.65900  0.58530  Biso   1.000  H
  C5       1.0000 0.38150  0.31730  0.58630  Biso   1.000  C
  C6       1.0000 0.61850  0.68270  0.41370  Biso   1.000  C
  H11      1.0000 0.41260  0.39930  0.57560  Biso   1.000  H
  H12      1.0000 0.58740  0.60070  0.42440  Biso   1.000  H
  C7       1.0000 0.35670  0.23040  0.69890  Biso   1.000  C
  C8       1.0000 0.64330  0.76960  0.30110  Biso   1.000  C
  H13      1.0000 0.37160  0.25660  0.76140  Biso   1.000  H
  H14      1.0000 0.62840  0.74340  0.23860  Biso   1.000  H
  C9       1.0000 0.31110  0.10800  0.72070  Biso   1.000  C
  C10      1.0000 0.68890  0.89200  0.27930  Biso   1.000  C
  H15      1.0000 0.29560  0.05010  0.79570  Biso   1.000  H
  H16      1.0000 0.70440  0.94990  0.20430  Biso   1.000  H
  C11      1.0000 0.29000  0.07680  0.62380  Biso   1.000  C
  C12      1.0000 0.71000  0.92320  0.37620  Biso   1.000  C
  C13      1.0000 0.24760  0.97790  0.49920  Biso   1.000  C
  C14      1.0000 0.75240  0.02210  0.50080  Biso   1.000  C
  C15      1.0000 0.20600  0.87350  0.46190  Biso   1.000  C
  C16      1.0000 0.79400  0.12650  0.53810  Biso   1.000  C
  C17      1.0000 0.19360  0.89860  0.33960  Biso   1.000  C
  C18      1.0000 0.80640  0.10140  0.66040  Biso   1.000  C
  C19      1.0000 0.13170  0.67770  0.38530  Biso   1.000  C
  C20      1.0000 0.86830  0.32230  0.61470  Biso   1.000  C
  H17      1.0000 0.10360  0.61410  0.35830  Biso   1.000  H
  H18      1.0000 0.89640  0.38590  0.64170  Biso   1.000  H
  C21      1.0000 0.14510  0.65130  0.50260  Biso   1.000  C
  C22      1.0000 0.85490  0.34870  0.49740  Biso   1.000  C
  H19      1.0000 0.12820  0.56950  0.55620  Biso   1.000  H
  H20      1.0000 0.87180  0.43050  0.44380  Biso   1.000  H
  C23      1.0000 0.18450  0.74970  0.53870  Biso   1.000  C
  C24      1.0000 0.81550  0.25030  0.46130  Biso   1.000  C
  H21      1.0000 0.19710  0.73180  0.61770  Biso   1.000  H
  H22      1.0000 0.80290  0.26820  0.38230  Biso   1.000  H
