data_image0
_cell_length_a       8.234
_cell_length_b       9.245
_cell_length_c       9.574
_cell_angle_alpha    81.271
_cell_angle_beta     67.963
_cell_angle_gamma    76.994

_symmetry_space_group_name_H-M    "P 1"
_symmetry_int_tables_number       1

loop_
  _symmetry_equiv_pos_as_xyz
  'x, y, z'

loop_
  _atom_site_label
  _atom_site_occupancy
  _atom_site_fract_x
  _atom_site_fract_y
  _atom_site_fract_z
  _atom_site_thermal_displace_type
  _atom_site_B_iso_or_equiv
  _atom_site_type_symbol
  Cu1      1.0000 0.50000  0.50000  0.00000  Biso   1.000  Cu
  Cl1      1.0000 0.24339  0.27924  0.42866  Biso   1.000  Cl
  Cl2      1.0000 0.75661  0.72076  0.57134  Biso   1.000  Cl
  O1       1.0000 0.73080  0.38930  0.99470  Biso   1.000  O
  O2       1.0000 0.26920  0.61070  0.00530  Biso   1.000  O
  O3       1.0000 0.53930  0.67090  0.06930  Biso   1.000  O
  O4       1.0000 0.46070  0.32910  0.93070  Biso   1.000  O
  N1       1.0000 0.41690  0.79500  0.07460  Biso   1.000  N
  N2       1.0000 0.58310  0.20500  0.92540  Biso   1.000  N
  N3       1.0000 0.86050  0.44840  0.99930  Biso   1.000  N
  N4       1.0000 0.13950  0.55160  0.00070  Biso   1.000  N
  C1       1.0000 0.87360  0.45830  0.13400  Biso   1.000  C
  C2       1.0000 0.12640  0.54170  0.86600  Biso   1.000  C
  N5       1.0000 0.16200  0.04030  0.07590  Biso   1.000  N
  N6       1.0000 0.83800  0.95970  0.92410  Biso   1.000  N
  O5       1.0000 0.03620  0.15070  0.07730  Biso   1.000  O
  O6       1.0000 0.96380  0.84930  0.92270  Biso   1.000  O
  C3       1.0000 0.98290  0.48820  0.86820  Biso   1.000  C
  C4       1.0000 0.01710  0.51180  0.13180  Biso   1.000  C
  H1       1.0000 0.97010  0.47940  0.77750  Biso   1.000  H
  H2       1.0000 0.02990  0.52060  0.22250  Biso   1.000  H
  C5       1.0000 0.28890  0.99640  0.94170  Biso   1.000  C
  C6       1.0000 0.71110  0.00360  0.05830  Biso   1.000  C
  C7       1.0000 0.29600  0.83880  0.20810  Biso   1.000  C
  C8       1.0000 0.70400  0.16120  0.79190  Biso   1.000  C
  C9       1.0000 0.41410  0.87390  0.94440  Biso   1.000  C
  C10      1.0000 0.58590  0.12610  0.05560  Biso   1.000  C
  H3       1.0000 0.50090  0.84300  0.85370  Biso   1.000  H
  H4       1.0000 0.49910  0.15700  0.14630  Biso   1.000  H
  C11      1.0000 0.73630  0.40860  0.27480  Biso   1.000  C
  C12      1.0000 0.26370  0.59140  0.72520  Biso   1.000  C
  H5       1.0000 0.73320  0.30600  0.27160  Biso   1.000  H
  H6       1.0000 0.26680  0.69400  0.72840  Biso   1.000  H
  H7       1.0000 0.62180  0.46820  0.28340  Biso   1.000  H
  H8       1.0000 0.37820  0.53180  0.71660  Biso   1.000  H
  H9       1.0000 0.76530  0.41940  0.36050  Biso   1.000  H
  H10      1.0000 0.23470  0.58060  0.63950  Biso   1.000  H
  C13      1.0000 0.16930  0.96350  0.20680  Biso   1.000  C
  C14      1.0000 0.83070  0.03650  0.79320  Biso   1.000  C
  H11      1.0000 0.08610  0.99640  0.29820  Biso   1.000  H
  H12      1.0000 0.91390  0.00360  0.70180  Biso   1.000  H
  C15      1.0000 0.30140  0.75040  0.35060  Biso   1.000  C
  C16      1.0000 0.69860  0.24960  0.64940  Biso   1.000  C
  H13      1.0000 0.41070  0.75300  0.36360  Biso   1.000  H
  H14      1.0000 0.58930  0.24700  0.63640  Biso   1.000  H
  H15      1.0000 0.29460  0.64920  0.34520  Biso   1.000  H
  H16      1.0000 0.70540  0.35080  0.65480  Biso   1.000  H
  H17      1.0000 0.20230  0.79200  0.43460  Biso   1.000  H
  H18      1.0000 0.79770  0.20800  0.56540  Biso   1.000  H
  C17      1.0000 0.27760  0.08390  0.80060  Biso   1.000  C
  C18      1.0000 0.72240  0.91610  0.19940  Biso   1.000  C
  H19      1.0000 0.36800  0.03720  0.71470  Biso   1.000  H
  H20      1.0000 0.63200  0.96280  0.28530  Biso   1.000  H
  H21      1.0000 0.29500  0.18310  0.80050  Biso   1.000  H
  H22      1.0000 0.70500  0.81690  0.19950  Biso   1.000  H
  H23      1.0000 0.16230  0.08780  0.79580  Biso   1.000  H
  H24      1.0000 0.83770  0.91220  0.20420  Biso   1.000  H
  O7       1.0000 0.29690  0.37750  0.29690  Biso   1.000  O
  O8       1.0000 0.70310  0.62250  0.70310  Biso   1.000  O
  O9       1.0000 0.26700  0.34800  0.54200  Biso   1.000  O
  O10      1.0000 0.73300  0.65200  0.45800  Biso   1.000  O
  O11      1.0000 0.12620  0.33510  0.56220  Biso   1.000  O
  O12      1.0000 0.87380  0.66490  0.43780  Biso   1.000  O
  O13      1.0000 0.41900  0.22050  0.44610  Biso   1.000  O
  O14      1.0000 0.58100  0.77950  0.55390  Biso   1.000  O
  O15      1.0000 0.36670  0.14460  0.40790  Biso   1.000  O
  O16      1.0000 0.63330  0.85540  0.59210  Biso   1.000  O
  O17      1.0000 0.10600  0.25000  0.37650  Biso   1.000  O
  O18      1.0000 0.89400  0.75000  0.62350  Biso   1.000  O
  O19      1.0000 0.19700  0.14600  0.43800  Biso   1.000  O
  O20      1.0000 0.80300  0.85400  0.56200  Biso   1.000  O
