data_image0
_cell_length_a       17.6348
_cell_length_b       16.9383
_cell_length_c       19.9934
_cell_angle_alpha    90
_cell_angle_beta     107.77
_cell_angle_gamma    90

_symmetry_space_group_name_H-M    "P 1"
_symmetry_int_tables_number       1

loop_
  _symmetry_equiv_pos_as_xyz
  'x, y, z'

loop_
  _atom_site_label
  _atom_site_occupancy
  _atom_site_fract_x
  _atom_site_fract_y
  _atom_site_fract_z
  _atom_site_thermal_displace_type
  _atom_site_B_iso_or_equiv
  _atom_site_type_symbol
  Cu1      1.0000 0.50000  0.93937  0.25000  Biso   1.000  Cu
  Cu2      1.0000 0.00000  0.43937  0.25000  Biso   1.000  Cu
  Cu3      1.0000 0.50000  0.06063  0.75000  Biso   1.000  Cu
  Cu4      1.0000 0.00000  0.56063  0.75000  Biso   1.000  Cu
  Dy1      1.0000 0.47504  0.43827  0.08381  Biso   1.000  Dy
  Dy2      1.0000 0.52496  0.43827  0.41619  Biso   1.000  Dy
  Dy3      1.0000 0.97504  0.93827  0.08381  Biso   1.000  Dy
  Dy4      1.0000 0.02496  0.93827  0.41619  Biso   1.000  Dy
  Dy5      1.0000 0.52496  0.56173  0.91619  Biso   1.000  Dy
  Dy6      1.0000 0.47504  0.56173  0.58381  Biso   1.000  Dy
  Dy7      1.0000 0.02496  0.06173  0.91619  Biso   1.000  Dy
  Dy8      1.0000 0.97504  0.06173  0.58381  Biso   1.000  Dy
  C1       1.0000 0.48910  0.28070  0.12330  Biso   1.000  C
  C2       1.0000 0.51090  0.28070  0.37670  Biso   1.000  C
  C3       1.0000 0.98910  0.78070  0.12330  Biso   1.000  C
  C4       1.0000 0.01090  0.78070  0.37670  Biso   1.000  C
  C5       1.0000 0.51090  0.71930  0.87670  Biso   1.000  C
  C6       1.0000 0.48910  0.71930  0.62330  Biso   1.000  C
  C7       1.0000 0.01090  0.21930  0.87670  Biso   1.000  C
  C8       1.0000 0.98910  0.21930  0.62330  Biso   1.000  C
  C9       1.0000 0.49580  0.19300  0.13980  Biso   1.000  C
  C10      1.0000 0.50420  0.19300  0.36020  Biso   1.000  C
  C11      1.0000 0.99580  0.69300  0.13980  Biso   1.000  C
  C12      1.0000 0.00420  0.69300  0.36020  Biso   1.000  C
  C13      1.0000 0.50420  0.80700  0.86020  Biso   1.000  C
  C14      1.0000 0.49580  0.80700  0.63980  Biso   1.000  C
  C15      1.0000 0.00420  0.30700  0.86020  Biso   1.000  C
  C16      1.0000 0.99580  0.30700  0.63980  Biso   1.000  C
  C17      1.0000 0.42960  0.14830  0.13190  Biso   1.000  C
  C18      1.0000 0.57040  0.14830  0.36810  Biso   1.000  C
  C19      1.0000 0.92960  0.64830  0.13190  Biso   1.000  C
  C20      1.0000 0.07040  0.64830  0.36810  Biso   1.000  C
  C21      1.0000 0.57040  0.85170  0.86810  Biso   1.000  C
  C22      1.0000 0.42960  0.85170  0.63190  Biso   1.000  C
  C23      1.0000 0.07040  0.35170  0.86810  Biso   1.000  C
  C24      1.0000 0.92960  0.35170  0.63190  Biso   1.000  C
  H1       1.0000 0.37930  0.17030  0.11300  Biso   1.000  H
  H2       1.0000 0.62070  0.17030  0.38700  Biso   1.000  H
  H3       1.0000 0.87930  0.67030  0.11300  Biso   1.000  H
  H4       1.0000 0.12070  0.67030  0.38700  Biso   1.000  H
  H5       1.0000 0.62070  0.82970  0.88700  Biso   1.000  H
  H6       1.0000 0.37930  0.82970  0.61300  Biso   1.000  H
  H7       1.0000 0.12070  0.32970  0.88700  Biso   1.000  H
  H8       1.0000 0.87930  0.32970  0.61300  Biso   1.000  H
  C25      1.0000 0.43770  0.06930  0.15240  Biso   1.000  C
  C26      1.0000 0.56230  0.06930  0.34760  Biso   1.000  C
  C27      1.0000 0.93770  0.56930  0.15240  Biso   1.000  C
  C28      1.0000 0.06230  0.56930  0.34760  Biso   1.000  C
  C29      1.0000 0.56230  0.93070  0.84760  Biso   1.000  C
  C30      1.0000 0.43770  0.93070  0.65240  Biso   1.000  C
  C31      1.0000 0.06230  0.43070  0.84760  Biso   1.000  C
  C32      1.0000 0.93770  0.43070  0.65240  Biso   1.000  C
  C33      1.0000 0.57370  0.07750  0.18120  Biso   1.000  C
  C34      1.0000 0.42630  0.07750  0.31880  Biso   1.000  C
  C35      1.0000 0.07370  0.57750  0.18120  Biso   1.000  C
  C36      1.0000 0.92630  0.57750  0.31880  Biso   1.000  C
  C37      1.0000 0.42630  0.92250  0.81880  Biso   1.000  C
  C38      1.0000 0.57370  0.92250  0.68120  Biso   1.000  C
  C39      1.0000 0.92630  0.42250  0.81880  Biso   1.000  C
  C40      1.0000 0.07370  0.42250  0.68120  Biso   1.000  C
  H9       1.0000 0.62300  0.05250  0.19630  Biso   1.000  H
  H10      1.0000 0.37700  0.05250  0.30370  Biso   1.000  H
  H11      1.0000 0.12300  0.55250  0.19630  Biso   1.000  H
  H12      1.0000 0.87700  0.55250  0.30370  Biso   1.000  H
  H13      1.0000 0.37700  0.94750  0.80370  Biso   1.000  H
  H14      1.0000 0.62300  0.94750  0.69630  Biso   1.000  H
  H15      1.0000 0.87700  0.44750  0.80370  Biso   1.000  H
  H16      1.0000 0.12300  0.44750  0.69630  Biso   1.000  H
  C41      1.0000 0.57050  0.15610  0.16220  Biso   1.000  C
  C42      1.0000 0.42950  0.15610  0.33780  Biso   1.000  C
  C43      1.0000 0.07050  0.65610  0.16220  Biso   1.000  C
  C44      1.0000 0.92950  0.65610  0.33780  Biso   1.000  C
  C45      1.0000 0.42950  0.84390  0.83780  Biso   1.000  C
  C46      1.0000 0.57050  0.84390  0.66220  Biso   1.000  C
  C47      1.0000 0.92950  0.34390  0.83780  Biso   1.000  C
  C48      1.0000 0.07050  0.34390  0.66220  Biso   1.000  C
  H17      1.0000 0.61670  0.18380  0.16410  Biso   1.000  H
  H18      1.0000 0.38330  0.18380  0.33590  Biso   1.000  H
  H19      1.0000 0.11670  0.68380  0.16410  Biso   1.000  H
  H20      1.0000 0.88330  0.68380  0.33590  Biso   1.000  H
  H21      1.0000 0.38330  0.81620  0.83590  Biso   1.000  H
  H22      1.0000 0.61670  0.81620  0.66410  Biso   1.000  H
  H23      1.0000 0.88330  0.31620  0.83590  Biso   1.000  H
  H24      1.0000 0.11670  0.31620  0.66410  Biso   1.000  H
  C49      1.0000 0.37110  0.01720  0.14840  Biso   1.000  C
  C50      1.0000 0.62890  0.01720  0.35160  Biso   1.000  C
  C51      1.0000 0.87110  0.51720  0.14840  Biso   1.000  C
  C52      1.0000 0.12890  0.51720  0.35160  Biso   1.000  C
  C53      1.0000 0.62890  0.98280  0.85160  Biso   1.000  C
  C54      1.0000 0.37110  0.98280  0.64840  Biso   1.000  C
  C55      1.0000 0.12890  0.48280  0.85160  Biso   1.000  C
  C56      1.0000 0.87110  0.48280  0.64840  Biso   1.000  C
  C57      1.0000 0.29530  0.03260  0.10290  Biso   1.000  C
  C58      1.0000 0.70470  0.03260  0.39710  Biso   1.000  C
  C59      1.0000 0.79530  0.53260  0.10290  Biso   1.000  C
  C60      1.0000 0.20470  0.53260  0.39710  Biso   1.000  C
  C61      1.0000 0.70470  0.96740  0.89710  Biso   1.000  C
  C62      1.0000 0.29530  0.96740  0.60290  Biso   1.000  C
  C63      1.0000 0.20470  0.46740  0.89710  Biso   1.000  C
  C64      1.0000 0.79530  0.46740  0.60290  Biso   1.000  C
  H25      1.0000 0.28720  0.07600  0.07310  Biso   1.000  H
  H26      1.0000 0.71280  0.07600  0.42690  Biso   1.000  H
  H27      1.0000 0.78720  0.57600  0.07310  Biso   1.000  H
  H28      1.0000 0.21280  0.57600  0.42690  Biso   1.000  H
  H29      1.0000 0.71280  0.92400  0.92690  Biso   1.000  H
  H30      1.0000 0.28720  0.92400  0.57310  Biso   1.000  H
  H31      1.0000 0.21280  0.42400  0.92690  Biso   1.000  H
  H32      1.0000 0.78720  0.42400  0.57310  Biso   1.000  H
  C65      1.0000 0.23140  0.98360  0.10150  Biso   1.000  C
  C66      1.0000 0.76860  0.98360  0.39850  Biso   1.000  C
  C67      1.0000 0.73140  0.48360  0.10150  Biso   1.000  C
  C68      1.0000 0.26860  0.48360  0.39850  Biso   1.000  C
  C69      1.0000 0.76860  0.01640  0.89850  Biso   1.000  C
  C70      1.0000 0.23140  0.01640  0.60150  Biso   1.000  C
  C71      1.0000 0.26860  0.51640  0.89850  Biso   1.000  C
  C72      1.0000 0.73140  0.51640  0.60150  Biso   1.000  C
  C73      1.0000 0.24810  0.91870  0.14800  Biso   1.000  C
  C74      1.0000 0.75190  0.91870  0.35200  Biso   1.000  C
  C75      1.0000 0.74810  0.41870  0.14800  Biso   1.000  C
  C76      1.0000 0.25190  0.41870  0.35200  Biso   1.000  C
  C77      1.0000 0.75190  0.08130  0.85200  Biso   1.000  C
  C78      1.0000 0.24810  0.08130  0.64800  Biso   1.000  C
  C79      1.0000 0.25190  0.58130  0.85200  Biso   1.000  C
  C80      1.0000 0.74810  0.58130  0.64800  Biso   1.000  C
  H33      1.0000 0.20790  0.88420  0.15020  Biso   1.000  H
  H34      1.0000 0.79210  0.88420  0.34980  Biso   1.000  H
  H35      1.0000 0.70790  0.38420  0.15020  Biso   1.000  H
  H36      1.0000 0.29210  0.38420  0.34980  Biso   1.000  H
  H37      1.0000 0.79210  0.11580  0.84980  Biso   1.000  H
  H38      1.0000 0.20790  0.11580  0.65020  Biso   1.000  H
  H39      1.0000 0.29210  0.61580  0.84980  Biso   1.000  H
  H40      1.0000 0.70790  0.61580  0.65020  Biso   1.000  H
  C81      1.0000 0.32560  0.90750  0.19010  Biso   1.000  C
  C82      1.0000 0.67440  0.90750  0.30990  Biso   1.000  C
  C83      1.0000 0.82560  0.40750  0.19010  Biso   1.000  C
  C84      1.0000 0.17440  0.40750  0.30990  Biso   1.000  C
  C85      1.0000 0.67440  0.09250  0.80990  Biso   1.000  C
  C86      1.0000 0.32560  0.09250  0.69010  Biso   1.000  C
  C87      1.0000 0.17440  0.59250  0.80990  Biso   1.000  C
  C88      1.0000 0.82560  0.59250  0.69010  Biso   1.000  C
  H41      1.0000 0.33680  0.86380  0.21960  Biso   1.000  H
  H42      1.0000 0.66320  0.86380  0.28040  Biso   1.000  H
  H43      1.0000 0.83680  0.36380  0.21960  Biso   1.000  H
  H44      1.0000 0.16320  0.36380  0.28040  Biso   1.000  H
  H45      1.0000 0.66320  0.13620  0.78040  Biso   1.000  H
  H46      1.0000 0.33680  0.13620  0.71960  Biso   1.000  H
  H47      1.0000 0.16320  0.63620  0.78040  Biso   1.000  H
  H48      1.0000 0.83680  0.63620  0.71960  Biso   1.000  H
  C89      1.0000 0.14980  0.99920  0.05290  Biso   1.000  C
  C90      1.0000 0.85020  0.99920  0.44710  Biso   1.000  C
  C91      1.0000 0.64980  0.49920  0.05290  Biso   1.000  C
  C92      1.0000 0.35020  0.49920  0.44710  Biso   1.000  C
  C93      1.0000 0.85020  0.00080  0.94710  Biso   1.000  C
  C94      1.0000 0.14980  0.00080  0.55290  Biso   1.000  C
  C95      1.0000 0.35020  0.50080  0.94710  Biso   1.000  C
  C96      1.0000 0.64980  0.50080  0.55290  Biso   1.000  C
  N1       1.0000 0.38410  0.95500  0.19050  Biso   1.000  N
  N2       1.0000 0.61590  0.95500  0.30950  Biso   1.000  N
  N3       1.0000 0.88410  0.45500  0.19050  Biso   1.000  N
  N4       1.0000 0.11590  0.45500  0.30950  Biso   1.000  N
  N5       1.0000 0.61590  0.04500  0.80950  Biso   1.000  N
  N6       1.0000 0.38410  0.04500  0.69050  Biso   1.000  N
  N7       1.0000 0.11590  0.54500  0.80950  Biso   1.000  N
  N8       1.0000 0.88410  0.54500  0.69050  Biso   1.000  N
  N9       1.0000 0.50900  0.03660  0.17870  Biso   1.000  N
  N10      1.0000 0.49100  0.03660  0.32130  Biso   1.000  N
  N11      1.0000 0.00900  0.53660  0.17870  Biso   1.000  N
  N12      1.0000 0.99100  0.53660  0.32130  Biso   1.000  N
  N13      1.0000 0.49100  0.96340  0.82130  Biso   1.000  N
  N14      1.0000 0.50900  0.96340  0.67870  Biso   1.000  N
  N15      1.0000 0.99100  0.46340  0.82130  Biso   1.000  N
  N16      1.0000 0.00900  0.46340  0.67870  Biso   1.000  N
  O1       1.0000 0.55800  0.31510  0.12390  Biso   1.000  O
  O2       1.0000 0.44200  0.31510  0.37610  Biso   1.000  O
  O3       1.0000 0.05800  0.81510  0.12390  Biso   1.000  O
  O4       1.0000 0.94200  0.81510  0.37610  Biso   1.000  O
  O5       1.0000 0.44200  0.68490  0.87610  Biso   1.000  O
  O6       1.0000 0.55800  0.68490  0.62390  Biso   1.000  O
  O7       1.0000 0.94200  0.18490  0.87610  Biso   1.000  O
  O8       1.0000 0.05800  0.18490  0.62390  Biso   1.000  O
  O9       1.0000 0.42030  0.31020  0.09940  Biso   1.000  O
  O10      1.0000 0.57970  0.31020  0.40060  Biso   1.000  O
  O11      1.0000 0.92030  0.81020  0.09940  Biso   1.000  O
  O12      1.0000 0.07970  0.81020  0.40060  Biso   1.000  O
  O13      1.0000 0.57970  0.68980  0.90060  Biso   1.000  O
  O14      1.0000 0.42030  0.68980  0.59940  Biso   1.000  O
  O15      1.0000 0.07970  0.18980  0.90060  Biso   1.000  O
  O16      1.0000 0.92030  0.18980  0.59940  Biso   1.000  O
  O17      1.0000 0.09420  0.97010  0.08540  Biso   1.000  O
  O18      1.0000 0.90580  0.97010  0.41460  Biso   1.000  O
  O19      1.0000 0.59420  0.47010  0.08540  Biso   1.000  O
  O20      1.0000 0.40580  0.47010  0.41460  Biso   1.000  O
  O21      1.0000 0.90580  0.02990  0.91460  Biso   1.000  O
  O22      1.0000 0.09420  0.02990  0.58540  Biso   1.000  O
  O23      1.0000 0.40580  0.52990  0.91460  Biso   1.000  O
  O24      1.0000 0.59420  0.52990  0.58540  Biso   1.000  O
  O25      1.0000 0.57110  0.46300  0.20210  Biso   1.000  O
  O26      1.0000 0.42890  0.46300  0.29790  Biso   1.000  O
  O27      1.0000 0.07110  0.96300  0.20210  Biso   1.000  O
  O28      1.0000 0.92890  0.96300  0.29790  Biso   1.000  O
  O29      1.0000 0.42890  0.53700  0.79790  Biso   1.000  O
  O30      1.0000 0.57110  0.53700  0.70210  Biso   1.000  O
  O31      1.0000 0.92890  0.03700  0.79790  Biso   1.000  O
  O32      1.0000 0.07110  0.03700  0.70210  Biso   1.000  O
  O33      1.0000 0.14630  0.04210  0.00240  Biso   1.000  O
  O34      1.0000 0.85370  0.04210  0.49760  Biso   1.000  O
  O35      1.0000 0.64630  0.54210  0.00240  Biso   1.000  O
  O36      1.0000 0.35370  0.54210  0.49760  Biso   1.000  O
  O37      1.0000 0.85370  0.95790  0.99760  Biso   1.000  O
  O38      1.0000 0.14630  0.95790  0.50240  Biso   1.000  O
  O39      1.0000 0.35370  0.45790  0.99760  Biso   1.000  O
  O40      1.0000 0.64630  0.45790  0.50240  Biso   1.000  O
  C97      1.0000 0.49840  0.63610  0.06120  Biso   1.000  C
  C98      1.0000 0.50160  0.63610  0.43880  Biso   1.000  C
  C99      1.0000 0.99840  0.13610  0.06120  Biso   1.000  C
  C100     1.0000 0.00160  0.13610  0.43880  Biso   1.000  C
  C101     1.0000 0.50160  0.36390  0.93880  Biso   1.000  C
  C102     1.0000 0.49840  0.36390  0.56120  Biso   1.000  C
  C103     1.0000 0.00160  0.86390  0.93880  Biso   1.000  C
  C104     1.0000 0.99840  0.86390  0.56120  Biso   1.000  C
  C105     1.0000 0.50340  0.70780  0.10630  Biso   1.000  C
  C106     1.0000 0.49660  0.70780  0.39370  Biso   1.000  C
  C107     1.0000 0.00340  0.20780  0.10630  Biso   1.000  C
  C108     1.0000 0.99660  0.20780  0.39370  Biso   1.000  C
  C109     1.0000 0.49660  0.29220  0.89370  Biso   1.000  C
  C110     1.0000 0.50340  0.29220  0.60630  Biso   1.000  C
  C111     1.0000 0.99660  0.79220  0.89370  Biso   1.000  C
  C112     1.0000 0.00340  0.79220  0.60630  Biso   1.000  C
  C113     1.0000 0.49620  0.70400  0.17240  Biso   1.000  C
  C114     1.0000 0.50380  0.70400  0.32760  Biso   1.000  C
  C115     1.0000 0.99620  0.20400  0.17240  Biso   1.000  C
  C116     1.0000 0.00380  0.20400  0.32760  Biso   1.000  C
  C117     1.0000 0.50380  0.29600  0.82760  Biso   1.000  C
  C118     1.0000 0.49620  0.29600  0.67240  Biso   1.000  C
  C119     1.0000 0.00380  0.79600  0.82760  Biso   1.000  C
  C120     1.0000 0.99620  0.79600  0.67240  Biso   1.000  C
  H49      1.0000 0.48710  0.65540  0.19020  Biso   1.000  H
  H50      1.0000 0.51290  0.65540  0.30980  Biso   1.000  H
  H51      1.0000 0.98710  0.15540  0.19020  Biso   1.000  H
  H52      1.0000 0.01290  0.15540  0.30980  Biso   1.000  H
  H53      1.0000 0.51290  0.34460  0.80980  Biso   1.000  H
  H54      1.0000 0.48710  0.34460  0.69020  Biso   1.000  H
  H55      1.0000 0.01290  0.84460  0.80980  Biso   1.000  H
  H56      1.0000 0.98710  0.84460  0.69020  Biso   1.000  H
  C121     1.0000 0.50250  0.77250  0.21440  Biso   1.000  C
  C122     1.0000 0.49750  0.77250  0.28560  Biso   1.000  C
  C123     1.0000 0.00250  0.27250  0.21440  Biso   1.000  C
  C124     1.0000 0.99750  0.27250  0.28560  Biso   1.000  C
  C125     1.0000 0.49750  0.22750  0.78560  Biso   1.000  C
  C126     1.0000 0.50250  0.22750  0.71440  Biso   1.000  C
  C127     1.0000 0.99750  0.72750  0.78560  Biso   1.000  C
  C128     1.0000 0.00250  0.72750  0.71440  Biso   1.000  C
  C129     1.0000 0.51870  0.84700  0.12260  Biso   1.000  C
  C130     1.0000 0.48130  0.84700  0.37740  Biso   1.000  C
  C131     1.0000 0.01870  0.34700  0.12260  Biso   1.000  C
  C132     1.0000 0.98130  0.34700  0.37740  Biso   1.000  C
  C133     1.0000 0.48130  0.15300  0.87740  Biso   1.000  C
  C134     1.0000 0.51870  0.15300  0.62260  Biso   1.000  C
  C135     1.0000 0.98130  0.65300  0.87740  Biso   1.000  C
  C136     1.0000 0.01870  0.65300  0.62260  Biso   1.000  C
  H57      1.0000 0.52380  0.89630  0.10410  Biso   1.000  H
  H58      1.0000 0.47620  0.89630  0.39590  Biso   1.000  H
  H59      1.0000 0.02380  0.39630  0.10410  Biso   1.000  H
  H60      1.0000 0.97620  0.39630  0.39590  Biso   1.000  H
  H61      1.0000 0.47620  0.10370  0.89590  Biso   1.000  H
  H62      1.0000 0.52380  0.10370  0.60410  Biso   1.000  H
  H63      1.0000 0.97620  0.60370  0.89590  Biso   1.000  H
  H64      1.0000 0.02380  0.60370  0.60410  Biso   1.000  H
  C137     1.0000 0.51620  0.78080  0.08130  Biso   1.000  C
  C138     1.0000 0.48380  0.78080  0.41870  Biso   1.000  C
  C139     1.0000 0.01620  0.28080  0.08130  Biso   1.000  C
  C140     1.0000 0.98380  0.28080  0.41870  Biso   1.000  C
  C141     1.0000 0.48380  0.21920  0.91870  Biso   1.000  C
  C142     1.0000 0.51620  0.21920  0.58130  Biso   1.000  C
  C143     1.0000 0.98380  0.71920  0.91870  Biso   1.000  C
  C144     1.0000 0.01620  0.71920  0.58130  Biso   1.000  C
  H65      1.0000 0.52300  0.78570  0.03710  Biso   1.000  H
  H66      1.0000 0.47700  0.78570  0.46290  Biso   1.000  H
  H67      1.0000 0.02300  0.28570  0.03710  Biso   1.000  H
  H68      1.0000 0.97700  0.28570  0.46290  Biso   1.000  H
  H69      1.0000 0.47700  0.21430  0.96290  Biso   1.000  H
  H70      1.0000 0.52300  0.21430  0.53710  Biso   1.000  H
  H71      1.0000 0.97700  0.71430  0.96290  Biso   1.000  H
  H72      1.0000 0.02300  0.71430  0.53710  Biso   1.000  H
  N17      1.0000 0.51400  0.84300  0.18840  Biso   1.000  N
  N18      1.0000 0.48600  0.84300  0.31160  Biso   1.000  N
  N19      1.0000 0.01400  0.34300  0.18840  Biso   1.000  N
  N20      1.0000 0.98600  0.34300  0.31160  Biso   1.000  N
  N21      1.0000 0.48600  0.15700  0.81160  Biso   1.000  N
  N22      1.0000 0.51400  0.15700  0.68840  Biso   1.000  N
  N23      1.0000 0.98600  0.65700  0.81160  Biso   1.000  N
  N24      1.0000 0.01400  0.65700  0.68840  Biso   1.000  N
  O41      1.0000 0.47110  0.57330  0.08600  Biso   1.000  O
  O42      1.0000 0.52890  0.57330  0.41400  Biso   1.000  O
  O43      1.0000 0.97110  0.07330  0.08600  Biso   1.000  O
  O44      1.0000 0.02890  0.07330  0.41400  Biso   1.000  O
  O45      1.0000 0.52890  0.42670  0.91400  Biso   1.000  O
  O46      1.0000 0.47110  0.42670  0.58600  Biso   1.000  O
  O47      1.0000 0.02890  0.92670  0.91400  Biso   1.000  O
  O48      1.0000 0.97110  0.92670  0.58600  Biso   1.000  O
  O49      1.0000 0.51980  0.63930  0.00970  Biso   1.000  O
  O50      1.0000 0.48020  0.63930  0.49030  Biso   1.000  O
  O51      1.0000 0.01980  0.13930  0.00970  Biso   1.000  O
  O52      1.0000 0.98020  0.13930  0.49030  Biso   1.000  O
  O53      1.0000 0.48020  0.36070  0.99030  Biso   1.000  O
  O54      1.0000 0.51980  0.36070  0.50970  Biso   1.000  O
  O55      1.0000 0.98020  0.86070  0.99030  Biso   1.000  O
  O56      1.0000 0.01980  0.86070  0.50970  Biso   1.000  O
  O57      1.0000 0.35770  0.46520  0.12650  Biso   1.000  O
  O58      1.0000 0.64230  0.46520  0.37350  Biso   1.000  O
  O59      1.0000 0.85770  0.96520  0.12650  Biso   1.000  O
  O60      1.0000 0.14230  0.96520  0.37350  Biso   1.000  O
  O61      1.0000 0.64230  0.53480  0.87350  Biso   1.000  O
  O62      1.0000 0.35770  0.53480  0.62650  Biso   1.000  O
  O63      1.0000 0.14230  0.03480  0.87350  Biso   1.000  O
  O64      1.0000 0.85770  0.03480  0.62650  Biso   1.000  O
  O65      1.0000 0.54200  0.32900  0.15070  Biso   1.000  O
  O66      1.0000 0.45800  0.32900  0.34930  Biso   1.000  O
  O67      1.0000 0.04200  0.82900  0.15070  Biso   1.000  O
  O68      1.0000 0.95800  0.82900  0.34930  Biso   1.000  O
  O69      1.0000 0.45800  0.67100  0.84930  Biso   1.000  O
  O70      1.0000 0.54200  0.67100  0.65070  Biso   1.000  O
  O71      1.0000 0.95800  0.17100  0.84930  Biso   1.000  O
  O72      1.0000 0.04200  0.17100  0.65070  Biso   1.000  O
  O73      1.0000 0.50580  0.47150  0.20540  Biso   1.000  O
  O74      1.0000 0.49420  0.47150  0.29460  Biso   1.000  O
  O75      1.0000 0.00580  0.97150  0.20540  Biso   1.000  O
  O76      1.0000 0.99420  0.97150  0.29460  Biso   1.000  O
  O77      1.0000 0.49420  0.52850  0.79460  Biso   1.000  O
  O78      1.0000 0.50580  0.52850  0.70540  Biso   1.000  O
  O79      1.0000 0.99420  0.02850  0.79460  Biso   1.000  O
  O80      1.0000 0.00580  0.02850  0.70540  Biso   1.000  O
  O81      1.0000 0.09260  0.97460  0.05030  Biso   1.000  O
  O82      1.0000 0.90740  0.97460  0.44970  Biso   1.000  O
  O83      1.0000 0.59260  0.47460  0.05030  Biso   1.000  O
  O84      1.0000 0.40740  0.47460  0.44970  Biso   1.000  O
  O85      1.0000 0.90740  0.02540  0.94970  Biso   1.000  O
  O86      1.0000 0.09260  0.02540  0.55030  Biso   1.000  O
  O87      1.0000 0.40740  0.52540  0.94970  Biso   1.000  O
  O88      1.0000 0.59260  0.52540  0.55030  Biso   1.000  O
  O89      1.0000 0.40620  0.45260  0.16530  Biso   1.000  O
  O90      1.0000 0.59380  0.45260  0.33470  Biso   1.000  O
  O91      1.0000 0.90620  0.95260  0.16530  Biso   1.000  O
  O92      1.0000 0.09380  0.95260  0.33470  Biso   1.000  O
  O93      1.0000 0.59380  0.54740  0.83470  Biso   1.000  O
  O94      1.0000 0.40620  0.54740  0.66530  Biso   1.000  O
  O95      1.0000 0.09380  0.04740  0.83470  Biso   1.000  O
  O96      1.0000 0.90620  0.04740  0.66530  Biso   1.000  O
