data_image0
_cell_length_a       21.6096
_cell_length_b       12.532
_cell_length_c       24.0555
_cell_angle_alpha    90
_cell_angle_beta     116.147
_cell_angle_gamma    90

_symmetry_space_group_name_H-M    "P 1"
_symmetry_int_tables_number       1

loop_
  _symmetry_equiv_pos_as_xyz
  'x, y, z'

loop_
  _atom_site_label
  _atom_site_occupancy
  _atom_site_fract_x
  _atom_site_fract_y
  _atom_site_fract_z
  _atom_site_thermal_displace_type
  _atom_site_B_iso_or_equiv
  _atom_site_type_symbol
  Dy1      1.0000 0.19123  0.23722  0.86001  Biso   1.000  Dy
  Dy2      1.0000 0.80877  0.23722  0.63999  Biso   1.000  Dy
  Dy3      1.0000 0.69123  0.73722  0.86001  Biso   1.000  Dy
  Dy4      1.0000 0.30877  0.73722  0.63999  Biso   1.000  Dy
  Dy5      1.0000 0.80877  0.76278  0.13999  Biso   1.000  Dy
  Dy6      1.0000 0.19123  0.76278  0.36001  Biso   1.000  Dy
  Dy7      1.0000 0.30877  0.26278  0.13999  Biso   1.000  Dy
  Dy8      1.0000 0.69123  0.26278  0.36001  Biso   1.000  Dy
  Cu1      1.0000 0.93277  0.27584  0.07894  Biso   1.000  Cu
  Cu2      1.0000 0.06723  0.27584  0.42106  Biso   1.000  Cu
  Cu3      1.0000 0.43277  0.77584  0.07894  Biso   1.000  Cu
  Cu4      1.0000 0.56723  0.77584  0.42106  Biso   1.000  Cu
  Cu5      1.0000 0.06723  0.72416  0.92106  Biso   1.000  Cu
  Cu6      1.0000 0.93277  0.72416  0.57894  Biso   1.000  Cu
  Cu7      1.0000 0.56723  0.22416  0.92106  Biso   1.000  Cu
  Cu8      1.0000 0.43277  0.22416  0.57894  Biso   1.000  Cu
  C1       1.0000 0.11600  0.26110  0.93020  Biso   1.000  C
  C2       1.0000 0.88400  0.26110  0.56980  Biso   1.000  C
  C3       1.0000 0.61600  0.76110  0.93020  Biso   1.000  C
  C4       1.0000 0.38400  0.76110  0.56980  Biso   1.000  C
  C5       1.0000 0.88400  0.73890  0.06980  Biso   1.000  C
  C6       1.0000 0.11600  0.73890  0.43020  Biso   1.000  C
  C7       1.0000 0.38400  0.23890  0.06980  Biso   1.000  C
  C8       1.0000 0.61600  0.23890  0.43020  Biso   1.000  C
  C9       1.0000 0.07380  0.27220  0.96550  Biso   1.000  C
  C10      1.0000 0.92620  0.27220  0.53450  Biso   1.000  C
  C11      1.0000 0.57380  0.77220  0.96550  Biso   1.000  C
  C12      1.0000 0.42620  0.77220  0.53450  Biso   1.000  C
  C13      1.0000 0.92620  0.72780  0.03450  Biso   1.000  C
  C14      1.0000 0.07380  0.72780  0.46550  Biso   1.000  C
  C15      1.0000 0.42620  0.22780  0.03450  Biso   1.000  C
  C16      1.0000 0.57380  0.22780  0.46550  Biso   1.000  C
  C17      1.0000 0.08380  0.35640  0.00590  Biso   1.000  C
  C18      1.0000 0.91620  0.35640  0.49410  Biso   1.000  C
  C19      1.0000 0.58380  0.85640  0.00590  Biso   1.000  C
  C20      1.0000 0.41620  0.85640  0.49410  Biso   1.000  C
  C21      1.0000 0.91620  0.64360  0.99410  Biso   1.000  C
  C22      1.0000 0.08380  0.64360  0.50590  Biso   1.000  C
  C23      1.0000 0.41620  0.14360  0.99410  Biso   1.000  C
  C24      1.0000 0.58380  0.14360  0.50590  Biso   1.000  C
  H1       1.0000 0.11640  0.40890  0.01150  Biso   1.000  H
  H2       1.0000 0.88360  0.40890  0.48850  Biso   1.000  H
  H3       1.0000 0.61640  0.90890  0.01150  Biso   1.000  H
  H4       1.0000 0.38360  0.90890  0.48850  Biso   1.000  H
  H5       1.0000 0.88360  0.59110  0.98850  Biso   1.000  H
  H6       1.0000 0.11640  0.59110  0.51150  Biso   1.000  H
  H7       1.0000 0.38360  0.09110  0.98850  Biso   1.000  H
  H8       1.0000 0.61640  0.09110  0.51150  Biso   1.000  H
  C25      1.0000 0.04400  0.36050  0.03780  Biso   1.000  C
  C26      1.0000 0.95600  0.36050  0.46220  Biso   1.000  C
  C27      1.0000 0.54400  0.86050  0.03780  Biso   1.000  C
  C28      1.0000 0.45600  0.86050  0.46220  Biso   1.000  C
  C29      1.0000 0.95600  0.63950  0.96220  Biso   1.000  C
  C30      1.0000 0.04400  0.63950  0.53780  Biso   1.000  C
  C31      1.0000 0.45600  0.13950  0.96220  Biso   1.000  C
  C32      1.0000 0.54400  0.13950  0.53780  Biso   1.000  C
  H9       1.0000 0.05070  0.41680  0.06510  Biso   1.000  H
  H10      1.0000 0.94930  0.41680  0.43490  Biso   1.000  H
  H11      1.0000 0.55070  0.91680  0.06510  Biso   1.000  H
  H12      1.0000 0.44930  0.91680  0.43490  Biso   1.000  H
  H13      1.0000 0.94930  0.58320  0.93490  Biso   1.000  H
  H14      1.0000 0.05070  0.58320  0.56510  Biso   1.000  H
  H15      1.0000 0.44930  0.08320  0.93490  Biso   1.000  H
  H16      1.0000 0.55070  0.08320  0.56510  Biso   1.000  H
  C33      1.0000 0.02340  0.19680  0.95790  Biso   1.000  C
  C34      1.0000 0.97660  0.19680  0.54210  Biso   1.000  C
  C35      1.0000 0.52340  0.69680  0.95790  Biso   1.000  C
  C36      1.0000 0.47660  0.69680  0.54210  Biso   1.000  C
  C37      1.0000 0.97660  0.80320  0.04210  Biso   1.000  C
  C38      1.0000 0.02340  0.80320  0.45790  Biso   1.000  C
  C39      1.0000 0.47660  0.30320  0.04210  Biso   1.000  C
  C40      1.0000 0.52340  0.30320  0.45790  Biso   1.000  C
  H17      1.0000 0.01530  0.14020  0.93060  Biso   1.000  H
  H18      1.0000 0.98470  0.14020  0.56940  Biso   1.000  H
  H19      1.0000 0.51530  0.64020  0.93060  Biso   1.000  H
  H20      1.0000 0.48470  0.64020  0.56940  Biso   1.000  H
  H21      1.0000 0.98470  0.85980  0.06940  Biso   1.000  H
  H22      1.0000 0.01530  0.85980  0.43060  Biso   1.000  H
  H23      1.0000 0.48470  0.35980  0.06940  Biso   1.000  H
  H24      1.0000 0.51530  0.35980  0.43060  Biso   1.000  H
  C41      1.0000 0.98560  0.20690  0.99110  Biso   1.000  C
  C42      1.0000 0.01440  0.20690  0.50890  Biso   1.000  C
  C43      1.0000 0.48560  0.70690  0.99110  Biso   1.000  C
  C44      1.0000 0.51440  0.70690  0.50890  Biso   1.000  C
  C45      1.0000 0.01440  0.79310  0.00890  Biso   1.000  C
  C46      1.0000 0.98560  0.79310  0.49110  Biso   1.000  C
  C47      1.0000 0.51440  0.29310  0.00890  Biso   1.000  C
  C48      1.0000 0.48560  0.29310  0.49110  Biso   1.000  C
  C49      1.0000 0.92970  0.13150  0.98540  Biso   1.000  C
  C50      1.0000 0.07030  0.13150  0.51460  Biso   1.000  C
  C51      1.0000 0.42970  0.63150  0.98540  Biso   1.000  C
  C52      1.0000 0.57030  0.63150  0.51460  Biso   1.000  C
  C53      1.0000 0.07030  0.86850  0.01460  Biso   1.000  C
  C54      1.0000 0.92970  0.86850  0.48540  Biso   1.000  C
  C55      1.0000 0.57030  0.36850  0.01460  Biso   1.000  C
  C56      1.0000 0.42970  0.36850  0.48540  Biso   1.000  C
  C57      1.0000 0.91020  0.04250  0.94700  Biso   1.000  C
  C58      1.0000 0.08980  0.04250  0.55300  Biso   1.000  C
  C59      1.0000 0.41020  0.54250  0.94700  Biso   1.000  C
  C60      1.0000 0.58980  0.54250  0.55300  Biso   1.000  C
  C61      1.0000 0.08980  0.95750  0.05300  Biso   1.000  C
  C62      1.0000 0.91020  0.95750  0.44700  Biso   1.000  C
  C63      1.0000 0.58980  0.45750  0.05300  Biso   1.000  C
  C64      1.0000 0.41020  0.45750  0.44700  Biso   1.000  C
  H25      1.0000 0.93310  0.02560  0.92320  Biso   1.000  H
  H26      1.0000 0.06690  0.02560  0.57680  Biso   1.000  H
  H27      1.0000 0.43310  0.52560  0.92320  Biso   1.000  H
  H28      1.0000 0.56690  0.52560  0.57680  Biso   1.000  H
  H29      1.0000 0.06690  0.97440  0.07680  Biso   1.000  H
  H30      1.0000 0.93310  0.97440  0.42320  Biso   1.000  H
  H31      1.0000 0.56690  0.47440  0.07680  Biso   1.000  H
  H32      1.0000 0.43310  0.47440  0.42320  Biso   1.000  H
  C65      1.0000 0.82280  0.00810  0.97850  Biso   1.000  C
  C66      1.0000 0.17720  0.00810  0.52150  Biso   1.000  C
  C67      1.0000 0.32280  0.50810  0.97850  Biso   1.000  C
  C68      1.0000 0.67720  0.50810  0.52150  Biso   1.000  C
  C69      1.0000 0.17720  0.99190  0.02150  Biso   1.000  C
  C70      1.0000 0.82280  0.99190  0.47850  Biso   1.000  C
  C71      1.0000 0.67720  0.49190  0.02150  Biso   1.000  C
  C72      1.0000 0.32280  0.49190  0.47850  Biso   1.000  C
  H33      1.0000 0.78570  0.96790  0.97650  Biso   1.000  H
  H34      1.0000 0.21430  0.96790  0.52350  Biso   1.000  H
  H35      1.0000 0.28570  0.46790  0.97650  Biso   1.000  H
  H36      1.0000 0.71430  0.46790  0.52350  Biso   1.000  H
  H37      1.0000 0.21430  0.03210  0.02350  Biso   1.000  H
  H38      1.0000 0.78570  0.03210  0.47650  Biso   1.000  H
  H39      1.0000 0.71430  0.53210  0.02350  Biso   1.000  H
  H40      1.0000 0.28570  0.53210  0.47650  Biso   1.000  H
  C73      1.0000 0.85670  0.97950  0.94440  Biso   1.000  C
  C74      1.0000 0.14330  0.97950  0.55560  Biso   1.000  C
  C75      1.0000 0.35670  0.47950  0.94440  Biso   1.000  C
  C76      1.0000 0.64330  0.47950  0.55560  Biso   1.000  C
  C77      1.0000 0.14330  0.02050  0.05560  Biso   1.000  C
  C78      1.0000 0.85670  0.02050  0.44440  Biso   1.000  C
  C79      1.0000 0.64330  0.52050  0.05560  Biso   1.000  C
  C80      1.0000 0.35670  0.52050  0.44440  Biso   1.000  C
  C81      1.0000 0.84390  0.09580  0.01550  Biso   1.000  C
  C82      1.0000 0.15610  0.09580  0.48450  Biso   1.000  C
  C83      1.0000 0.34390  0.59580  0.01550  Biso   1.000  C
  C84      1.0000 0.65610  0.59580  0.48450  Biso   1.000  C
  C85      1.0000 0.15610  0.90420  0.98450  Biso   1.000  C
  C86      1.0000 0.84390  0.90420  0.51550  Biso   1.000  C
  C87      1.0000 0.65610  0.40420  0.98450  Biso   1.000  C
  C88      1.0000 0.34390  0.40420  0.51550  Biso   1.000  C
  H41      1.0000 0.82030  0.11470  0.03840  Biso   1.000  H
  H42      1.0000 0.17970  0.11470  0.46160  Biso   1.000  H
  H43      1.0000 0.32030  0.61470  0.03840  Biso   1.000  H
  H44      1.0000 0.67970  0.61470  0.46160  Biso   1.000  H
  H45      1.0000 0.17970  0.88530  0.96160  Biso   1.000  H
  H46      1.0000 0.82030  0.88530  0.53840  Biso   1.000  H
  H47      1.0000 0.67970  0.38530  0.96160  Biso   1.000  H
  H48      1.0000 0.32030  0.38530  0.53840  Biso   1.000  H
  C89      1.0000 0.83440  0.88000  0.90420  Biso   1.000  C
  C90      1.0000 0.16560  0.88000  0.59580  Biso   1.000  C
  C91      1.0000 0.33440  0.38000  0.90420  Biso   1.000  C
  C92      1.0000 0.66560  0.38000  0.59580  Biso   1.000  C
  C93      1.0000 0.16560  0.12000  0.09580  Biso   1.000  C
  C94      1.0000 0.83440  0.12000  0.40420  Biso   1.000  C
  C95      1.0000 0.66560  0.62000  0.09580  Biso   1.000  C
  C96      1.0000 0.33440  0.62000  0.40420  Biso   1.000  C
  C97      1.0000 0.14720  0.01420  0.31170  Biso   1.000  C
  C98      1.0000 0.85280  0.01420  0.18830  Biso   1.000  C
  C99      1.0000 0.64720  0.51420  0.31170  Biso   1.000  C
  C100     1.0000 0.35280  0.51420  0.18830  Biso   1.000  C
  C101     1.0000 0.85280  0.98580  0.68830  Biso   1.000  C
  C102     1.0000 0.14720  0.98580  0.81170  Biso   1.000  C
  C103     1.0000 0.35280  0.48580  0.68830  Biso   1.000  C
  C104     1.0000 0.64720  0.48580  0.81170  Biso   1.000  C
  C105     1.0000 0.09410  0.07180  0.25440  Biso   1.000  C
  C106     1.0000 0.90590  0.07180  0.24560  Biso   1.000  C
  C107     1.0000 0.59410  0.57180  0.25440  Biso   1.000  C
  C108     1.0000 0.40590  0.57180  0.24560  Biso   1.000  C
  C109     1.0000 0.90590  0.92820  0.74560  Biso   1.000  C
  C110     1.0000 0.09410  0.92820  0.75440  Biso   1.000  C
  C111     1.0000 0.40590  0.42820  0.74560  Biso   1.000  C
  C112     1.0000 0.59410  0.42820  0.75440  Biso   1.000  C
  C113     1.0000 0.09240  0.18290  0.25180  Biso   1.000  C
  C114     1.0000 0.90760  0.18290  0.24820  Biso   1.000  C
  C115     1.0000 0.59240  0.68290  0.25180  Biso   1.000  C
  C116     1.0000 0.40760  0.68290  0.24820  Biso   1.000  C
  C117     1.0000 0.90760  0.81710  0.74820  Biso   1.000  C
  C118     1.0000 0.09240  0.81710  0.75180  Biso   1.000  C
  C119     1.0000 0.40760  0.31710  0.74820  Biso   1.000  C
  C120     1.0000 0.59240  0.31710  0.75180  Biso   1.000  C
  H49      1.0000 0.12440  0.22320  0.28420  Biso   1.000  H
  H50      1.0000 0.87560  0.22320  0.21580  Biso   1.000  H
  H51      1.0000 0.62440  0.72320  0.28420  Biso   1.000  H
  H52      1.0000 0.37560  0.72320  0.21580  Biso   1.000  H
  H53      1.0000 0.87560  0.77680  0.71580  Biso   1.000  H
  H54      1.0000 0.12440  0.77680  0.78420  Biso   1.000  H
  H55      1.0000 0.37560  0.27680  0.71580  Biso   1.000  H
  H56      1.0000 0.62440  0.27680  0.78420  Biso   1.000  H
  C121     1.0000 0.04230  0.23200  0.20030  Biso   1.000  C
  C122     1.0000 0.95770  0.23200  0.29970  Biso   1.000  C
  C123     1.0000 0.54230  0.73200  0.20030  Biso   1.000  C
  C124     1.0000 0.45770  0.73200  0.29970  Biso   1.000  C
  C125     1.0000 0.95770  0.76800  0.79970  Biso   1.000  C
  C126     1.0000 0.04230  0.76800  0.70030  Biso   1.000  C
  C127     1.0000 0.45770  0.26800  0.79970  Biso   1.000  C
  C128     1.0000 0.54230  0.26800  0.70030  Biso   1.000  C
  C129     1.0000 0.99740  0.07040  0.15550  Biso   1.000  C
  C130     1.0000 0.00260  0.07040  0.34450  Biso   1.000  C
  C131     1.0000 0.49740  0.57040  0.15550  Biso   1.000  C
  C132     1.0000 0.50260  0.57040  0.34450  Biso   1.000  C
  C133     1.0000 0.00260  0.92960  0.84450  Biso   1.000  C
  C134     1.0000 0.99740  0.92960  0.65550  Biso   1.000  C
  C135     1.0000 0.50260  0.42960  0.84450  Biso   1.000  C
  C136     1.0000 0.49740  0.42960  0.65550  Biso   1.000  C
  H57      1.0000 0.96500  0.03160  0.12260  Biso   1.000  H
  H58      1.0000 0.03500  0.03160  0.37740  Biso   1.000  H
  H59      1.0000 0.46500  0.53160  0.12260  Biso   1.000  H
  H60      1.0000 0.53500  0.53160  0.37740  Biso   1.000  H
  H61      1.0000 0.03500  0.96840  0.87740  Biso   1.000  H
  H62      1.0000 0.96500  0.96840  0.62260  Biso   1.000  H
  H63      1.0000 0.53500  0.46840  0.87740  Biso   1.000  H
  H64      1.0000 0.46500  0.46840  0.62260  Biso   1.000  H
  C137     1.0000 0.04570  0.01550  0.20530  Biso   1.000  C
  C138     1.0000 0.95430  0.01550  0.29470  Biso   1.000  C
  C139     1.0000 0.54570  0.51550  0.20530  Biso   1.000  C
  C140     1.0000 0.45430  0.51550  0.29470  Biso   1.000  C
  C141     1.0000 0.95430  0.98450  0.79470  Biso   1.000  C
  C142     1.0000 0.04570  0.98450  0.70530  Biso   1.000  C
  C143     1.0000 0.45430  0.48450  0.79470  Biso   1.000  C
  C144     1.0000 0.54570  0.48450  0.70530  Biso   1.000  C
  H65      1.0000 0.04560  0.94130  0.20580  Biso   1.000  H
  H66      1.0000 0.95440  0.94130  0.29420  Biso   1.000  H
  H67      1.0000 0.54560  0.44130  0.20580  Biso   1.000  H
  H68      1.0000 0.45440  0.44130  0.29420  Biso   1.000  H
  H69      1.0000 0.95440  0.05870  0.79420  Biso   1.000  H
  H70      1.0000 0.04560  0.05870  0.70580  Biso   1.000  H
  H71      1.0000 0.45440  0.55870  0.79420  Biso   1.000  H
  H72      1.0000 0.54560  0.55870  0.70580  Biso   1.000  H
  C145     1.0000 0.03560  0.35060  0.19460  Biso   1.000  C
  C146     1.0000 0.96440  0.35060  0.30540  Biso   1.000  C
  C147     1.0000 0.53560  0.85060  0.19460  Biso   1.000  C
  C148     1.0000 0.46440  0.85060  0.30540  Biso   1.000  C
  C149     1.0000 0.96440  0.64940  0.80540  Biso   1.000  C
  C150     1.0000 0.03560  0.64940  0.69460  Biso   1.000  C
  C151     1.0000 0.46440  0.14940  0.80540  Biso   1.000  C
  C152     1.0000 0.53560  0.14940  0.69460  Biso   1.000  C
  C153     1.0000 0.07940  0.42110  0.23820  Biso   1.000  C
  C154     1.0000 0.92060  0.42110  0.26180  Biso   1.000  C
  C155     1.0000 0.57940  0.92110  0.23820  Biso   1.000  C
  C156     1.0000 0.42060  0.92110  0.26180  Biso   1.000  C
  C157     1.0000 0.92060  0.57890  0.76180  Biso   1.000  C
  C158     1.0000 0.07940  0.57890  0.73820  Biso   1.000  C
  C159     1.0000 0.42060  0.07890  0.76180  Biso   1.000  C
  C160     1.0000 0.57940  0.07890  0.73820  Biso   1.000  C
  H73      1.0000 0.11690  0.39600  0.27330  Biso   1.000  H
  H74      1.0000 0.88310  0.39600  0.22670  Biso   1.000  H
  H75      1.0000 0.61690  0.89600  0.27330  Biso   1.000  H
  H76      1.0000 0.38310  0.89600  0.22670  Biso   1.000  H
  H77      1.0000 0.88310  0.60400  0.72670  Biso   1.000  H
  H78      1.0000 0.11690  0.60400  0.77330  Biso   1.000  H
  H79      1.0000 0.38310  0.10400  0.72670  Biso   1.000  H
  H80      1.0000 0.61690  0.10400  0.77330  Biso   1.000  H
  C161     1.0000 0.06700  0.52920  0.22930  Biso   1.000  C
  C162     1.0000 0.93300  0.52920  0.27070  Biso   1.000  C
  C163     1.0000 0.56700  0.02920  0.22930  Biso   1.000  C
  C164     1.0000 0.43300  0.02920  0.27070  Biso   1.000  C
  C165     1.0000 0.93300  0.47080  0.77070  Biso   1.000  C
  C166     1.0000 0.06700  0.47080  0.72930  Biso   1.000  C
  C167     1.0000 0.43300  0.97080  0.77070  Biso   1.000  C
  C168     1.0000 0.56700  0.97080  0.72930  Biso   1.000  C
  C169     1.0000 0.01060  0.56490  0.17640  Biso   1.000  C
  C170     1.0000 0.98940  0.56490  0.32360  Biso   1.000  C
  C171     1.0000 0.51060  0.06490  0.17640  Biso   1.000  C
  C172     1.0000 0.48940  0.06490  0.32360  Biso   1.000  C
  C173     1.0000 0.98940  0.43510  0.82360  Biso   1.000  C
  C174     1.0000 0.01060  0.43510  0.67640  Biso   1.000  C
  C175     1.0000 0.48940  0.93510  0.82360  Biso   1.000  C
  C176     1.0000 0.51060  0.93510  0.67640  Biso   1.000  C
  H81      1.0000 0.00130  0.63740  0.16940  Biso   1.000  H
  H82      1.0000 0.99870  0.63740  0.33060  Biso   1.000  H
  H83      1.0000 0.50130  0.13740  0.16940  Biso   1.000  H
  H84      1.0000 0.49870  0.13740  0.33060  Biso   1.000  H
  H85      1.0000 0.99870  0.36260  0.83060  Biso   1.000  H
  H86      1.0000 0.00130  0.36260  0.66940  Biso   1.000  H
  H87      1.0000 0.49870  0.86260  0.83060  Biso   1.000  H
  H88      1.0000 0.50130  0.86260  0.66940  Biso   1.000  H
  C177     1.0000 0.96910  0.49100  0.13490  Biso   1.000  C
  C178     1.0000 0.03090  0.49100  0.36510  Biso   1.000  C
  C179     1.0000 0.46910  0.99100  0.13490  Biso   1.000  C
  C180     1.0000 0.53090  0.99100  0.36510  Biso   1.000  C
  C181     1.0000 0.03090  0.50900  0.86510  Biso   1.000  C
  C182     1.0000 0.96910  0.50900  0.63490  Biso   1.000  C
  C183     1.0000 0.53090  0.00900  0.86510  Biso   1.000  C
  C184     1.0000 0.46910  0.00900  0.63490  Biso   1.000  C
  H89      1.0000 0.93100  0.51470  0.09990  Biso   1.000  H
  H90      1.0000 0.06900  0.51470  0.40010  Biso   1.000  H
  H91      1.0000 0.43100  0.01470  0.09990  Biso   1.000  H
  H92      1.0000 0.56900  0.01470  0.40010  Biso   1.000  H
  H93      1.0000 0.06900  0.48530  0.90010  Biso   1.000  H
  H94      1.0000 0.93100  0.48530  0.59990  Biso   1.000  H
  H95      1.0000 0.56900  0.98530  0.90010  Biso   1.000  H
  H96      1.0000 0.43100  0.98530  0.59990  Biso   1.000  H
  C185     1.0000 0.11300  0.60920  0.27620  Biso   1.000  C
  C186     1.0000 0.88700  0.60920  0.22380  Biso   1.000  C
  C187     1.0000 0.61300  0.10920  0.27620  Biso   1.000  C
  C188     1.0000 0.38700  0.10920  0.22380  Biso   1.000  C
  C189     1.0000 0.88700  0.39080  0.72380  Biso   1.000  C
  C190     1.0000 0.11300  0.39080  0.77620  Biso   1.000  C
  C191     1.0000 0.38700  0.89080  0.72380  Biso   1.000  C
  C192     1.0000 0.61300  0.89080  0.77620  Biso   1.000  C
  N1       1.0000 0.99620  0.28750  0.03130  Biso   1.000  N
  N2       1.0000 0.00380  0.28750  0.46870  Biso   1.000  N
  N3       1.0000 0.49620  0.78750  0.03130  Biso   1.000  N
  N4       1.0000 0.50380  0.78750  0.46870  Biso   1.000  N
  N5       1.0000 0.00380  0.71250  0.96870  Biso   1.000  N
  N6       1.0000 0.99620  0.71250  0.53130  Biso   1.000  N
  N7       1.0000 0.50380  0.21250  0.96870  Biso   1.000  N
  N8       1.0000 0.49620  0.21250  0.53130  Biso   1.000  N
  N9       1.0000 0.89700  0.15580  0.02025  Biso   1.000  N
  N10      1.0000 0.10300  0.15580  0.47975  Biso   1.000  N
  N11      1.0000 0.39700  0.65580  0.02025  Biso   1.000  N
  N12      1.0000 0.60300  0.65580  0.47975  Biso   1.000  N
  N13      1.0000 0.10300  0.84420  0.97975  Biso   1.000  N
  N14      1.0000 0.89700  0.84420  0.52025  Biso   1.000  N
  N15      1.0000 0.60300  0.34420  0.97975  Biso   1.000  N
  N16      1.0000 0.39700  0.34420  0.52025  Biso   1.000  N
  N17      1.0000 0.99510  0.17800  0.15223  Biso   1.000  N
  N18      1.0000 0.00490  0.17800  0.34777  Biso   1.000  N
  N19      1.0000 0.49510  0.67800  0.15223  Biso   1.000  N
  N20      1.0000 0.50490  0.67800  0.34777  Biso   1.000  N
  N21      1.0000 0.00490  0.82200  0.84777  Biso   1.000  N
  N22      1.0000 0.99510  0.82200  0.65223  Biso   1.000  N
  N23      1.0000 0.50490  0.32200  0.84777  Biso   1.000  N
  N24      1.0000 0.49510  0.32200  0.65223  Biso   1.000  N
  N25      1.0000 0.98120  0.38560  0.14277  Biso   1.000  N
  N26      1.0000 0.01880  0.38560  0.35723  Biso   1.000  N
  N27      1.0000 0.48120  0.88560  0.14277  Biso   1.000  N
  N28      1.0000 0.51880  0.88560  0.35723  Biso   1.000  N
  N29      1.0000 0.01880  0.61440  0.85723  Biso   1.000  N
  N30      1.0000 0.98120  0.61440  0.64277  Biso   1.000  N
  N31      1.0000 0.51880  0.11440  0.85723  Biso   1.000  N
  N32      1.0000 0.48120  0.11440  0.64277  Biso   1.000  N
  O1       1.0000 0.16886  0.31900  0.94426  Biso   1.000  O
  O2       1.0000 0.83114  0.31900  0.55574  Biso   1.000  O
  O3       1.0000 0.66886  0.81900  0.94426  Biso   1.000  O
  O4       1.0000 0.33114  0.81900  0.55574  Biso   1.000  O
  O5       1.0000 0.83114  0.68100  0.05574  Biso   1.000  O
  O6       1.0000 0.16886  0.68100  0.44426  Biso   1.000  O
  O7       1.0000 0.33114  0.18100  0.05574  Biso   1.000  O
  O8       1.0000 0.66886  0.18100  0.44426  Biso   1.000  O
  O9       1.0000 0.09750  0.19480  0.88680  Biso   1.000  O
  O10      1.0000 0.90250  0.19480  0.61320  Biso   1.000  O
  O11      1.0000 0.59750  0.69480  0.88680  Biso   1.000  O
  O12      1.0000 0.40250  0.69480  0.61320  Biso   1.000  O
  O13      1.0000 0.90250  0.80520  0.11320  Biso   1.000  O
  O14      1.0000 0.09750  0.80520  0.38680  Biso   1.000  O
  O15      1.0000 0.40250  0.30520  0.11320  Biso   1.000  O
  O16      1.0000 0.59750  0.30520  0.38680  Biso   1.000  O
  O17      1.0000 0.85760  0.86300  0.86700  Biso   1.000  O
  O18      1.0000 0.14240  0.86300  0.63300  Biso   1.000  O
  O19      1.0000 0.35760  0.36300  0.86700  Biso   1.000  O
  O20      1.0000 0.64240  0.36300  0.63300  Biso   1.000  O
  O21      1.0000 0.14240  0.13700  0.13300  Biso   1.000  O
  O22      1.0000 0.85760  0.13700  0.36700  Biso   1.000  O
  O23      1.0000 0.64240  0.63700  0.13300  Biso   1.000  O
  O24      1.0000 0.35760  0.63700  0.36700  Biso   1.000  O
  O25      1.0000 0.79235  0.82150  0.91382  Biso   1.000  O
  O26      1.0000 0.20765  0.82150  0.58618  Biso   1.000  O
  O27      1.0000 0.29235  0.32150  0.91382  Biso   1.000  O
  O28      1.0000 0.70765  0.32150  0.58618  Biso   1.000  O
  O29      1.0000 0.20765  0.17850  0.08618  Biso   1.000  O
  O30      1.0000 0.79235  0.17850  0.41382  Biso   1.000  O
  O31      1.0000 0.70765  0.67850  0.08618  Biso   1.000  O
  O32      1.0000 0.29235  0.67850  0.41382  Biso   1.000  O
  O33      1.0000 0.25380  0.22210  0.80130  Biso   1.000  O
  O34      1.0000 0.74620  0.22210  0.69870  Biso   1.000  O
  O35      1.0000 0.75380  0.72210  0.80130  Biso   1.000  O
  O36      1.0000 0.24620  0.72210  0.69870  Biso   1.000  O
  O37      1.0000 0.74620  0.77790  0.19870  Biso   1.000  O
  O38      1.0000 0.25380  0.77790  0.30130  Biso   1.000  O
  O39      1.0000 0.24620  0.27790  0.19870  Biso   1.000  O
  O40      1.0000 0.75380  0.27790  0.30130  Biso   1.000  O
  H97      1.0000 0.22710  0.23260  0.76160  Biso   1.000  H
  H98      1.0000 0.77290  0.23260  0.73840  Biso   1.000  H
  H99      1.0000 0.72710  0.73260  0.76160  Biso   1.000  H
  H100     1.0000 0.27290  0.73260  0.73840  Biso   1.000  H
  H101     1.0000 0.77290  0.76740  0.23840  Biso   1.000  H
  H102     1.0000 0.22710  0.76740  0.26160  Biso   1.000  H
  H103     1.0000 0.27290  0.26740  0.23840  Biso   1.000  H
  H104     1.0000 0.72710  0.26740  0.26160  Biso   1.000  H
  H105     1.0000 0.28680  0.27010  0.81330  Biso   1.000  H
  H106     1.0000 0.71320  0.27010  0.68670  Biso   1.000  H
  H107     1.0000 0.78680  0.77010  0.81330  Biso   1.000  H
  H108     1.0000 0.21320  0.77010  0.68670  Biso   1.000  H
  H109     1.0000 0.71320  0.72990  0.18670  Biso   1.000  H
  H110     1.0000 0.28680  0.72990  0.31330  Biso   1.000  H
  H111     1.0000 0.21320  0.22990  0.18670  Biso   1.000  H
  H112     1.0000 0.78680  0.22990  0.31330  Biso   1.000  H
  O41      1.0000 0.24835  0.10680  0.93479  Biso   1.000  O
  O42      1.0000 0.75165  0.10680  0.56521  Biso   1.000  O
  O43      1.0000 0.74835  0.60680  0.93479  Biso   1.000  O
  O44      1.0000 0.25165  0.60680  0.56521  Biso   1.000  O
  O45      1.0000 0.75165  0.89320  0.06521  Biso   1.000  O
  O46      1.0000 0.24835  0.89320  0.43479  Biso   1.000  O
  O47      1.0000 0.25165  0.39320  0.06521  Biso   1.000  O
  O48      1.0000 0.74835  0.39320  0.43479  Biso   1.000  O
  H113     1.0000 0.26940  0.13640  0.97020  Biso   1.000  H
  H114     1.0000 0.73060  0.13640  0.52980  Biso   1.000  H
  H115     1.0000 0.76940  0.63640  0.97020  Biso   1.000  H
  H116     1.0000 0.23060  0.63640  0.52980  Biso   1.000  H
  H117     1.0000 0.73060  0.86360  0.02980  Biso   1.000  H
  H118     1.0000 0.26940  0.86360  0.47020  Biso   1.000  H
  H119     1.0000 0.23060  0.36360  0.02980  Biso   1.000  H
  H120     1.0000 0.76940  0.36360  0.47020  Biso   1.000  H
  H121     1.0000 0.21910  0.06210  0.93590  Biso   1.000  H
  H122     1.0000 0.78090  0.06210  0.56410  Biso   1.000  H
  H123     1.0000 0.71910  0.56210  0.93590  Biso   1.000  H
  H124     1.0000 0.28090  0.56210  0.56410  Biso   1.000  H
  H125     1.0000 0.78090  0.93790  0.06410  Biso   1.000  H
  H126     1.0000 0.21910  0.93790  0.43590  Biso   1.000  H
  H127     1.0000 0.28090  0.43790  0.06410  Biso   1.000  H
  H128     1.0000 0.71910  0.43790  0.43590  Biso   1.000  H
  O49      1.0000 0.15110  0.91610  0.30570  Biso   1.000  O
  O50      1.0000 0.84890  0.91610  0.19430  Biso   1.000  O
  O51      1.0000 0.65110  0.41610  0.30570  Biso   1.000  O
  O52      1.0000 0.34890  0.41610  0.19430  Biso   1.000  O
  O53      1.0000 0.84890  0.08390  0.69430  Biso   1.000  O
  O54      1.0000 0.15110  0.08390  0.80570  Biso   1.000  O
  O55      1.0000 0.34890  0.58390  0.69430  Biso   1.000  O
  O56      1.0000 0.65110  0.58390  0.80570  Biso   1.000  O
  O57      1.0000 0.18120  0.06670  0.35880  Biso   1.000  O
  O58      1.0000 0.81880  0.06670  0.14120  Biso   1.000  O
  O59      1.0000 0.68120  0.56670  0.35880  Biso   1.000  O
  O60      1.0000 0.31880  0.56670  0.14120  Biso   1.000  O
  O61      1.0000 0.81880  0.93330  0.64120  Biso   1.000  O
  O62      1.0000 0.18120  0.93330  0.85880  Biso   1.000  O
  O63      1.0000 0.31880  0.43330  0.64120  Biso   1.000  O
  O64      1.0000 0.68120  0.43330  0.85880  Biso   1.000  O
  O65      1.0000 0.16360  0.57830  0.32280  Biso   1.000  O
  O66      1.0000 0.83640  0.57830  0.17720  Biso   1.000  O
  O67      1.0000 0.66360  0.07830  0.32280  Biso   1.000  O
  O68      1.0000 0.33640  0.07830  0.17720  Biso   1.000  O
  O69      1.0000 0.83640  0.42170  0.67720  Biso   1.000  O
  O70      1.0000 0.16360  0.42170  0.82280  Biso   1.000  O
  O71      1.0000 0.33640  0.92170  0.67720  Biso   1.000  O
  O72      1.0000 0.66360  0.92170  0.82280  Biso   1.000  O
  O73      1.0000 0.09790  0.70550  0.26680  Biso   1.000  O
  O74      1.0000 0.90210  0.70550  0.23320  Biso   1.000  O
  O75      1.0000 0.59790  0.20550  0.26680  Biso   1.000  O
  O76      1.0000 0.40210  0.20550  0.23320  Biso   1.000  O
  O77      1.0000 0.90210  0.29450  0.73320  Biso   1.000  O
  O78      1.0000 0.09790  0.29450  0.76680  Biso   1.000  O
  O79      1.0000 0.40210  0.79450  0.73320  Biso   1.000  O
  O80      1.0000 0.59790  0.79450  0.76680  Biso   1.000  O
  Cl1      1.0000 0.83410  0.37285  0.02581  Biso   1.000  Cl
  Cl2      1.0000 0.16590  0.37285  0.47419  Biso   1.000  Cl
  Cl3      1.0000 0.33410  0.87285  0.02581  Biso   1.000  Cl
  Cl4      1.0000 0.66590  0.87285  0.47419  Biso   1.000  Cl
  Cl5      1.0000 0.16590  0.62715  0.97419  Biso   1.000  Cl
  Cl6      1.0000 0.83410  0.62715  0.52581  Biso   1.000  Cl
  Cl7      1.0000 0.66590  0.12715  0.97419  Biso   1.000  Cl
  Cl8      1.0000 0.33410  0.12715  0.52581  Biso   1.000  Cl
  Cl9      1.0000 0.83130  0.34630  0.06600  Biso   1.000  Cl
  Cl10     1.0000 0.16870  0.34630  0.43400  Biso   1.000  Cl
  Cl11     1.0000 0.33130  0.84630  0.06600  Biso   1.000  Cl
  Cl12     1.0000 0.66870  0.84630  0.43400  Biso   1.000  Cl
  Cl13     1.0000 0.16870  0.65370  0.93400  Biso   1.000  Cl
  Cl14     1.0000 0.83130  0.65370  0.56600  Biso   1.000  Cl
  Cl15     1.0000 0.66870  0.15370  0.93400  Biso   1.000  Cl
  Cl16     1.0000 0.33130  0.15370  0.56600  Biso   1.000  Cl
  O81      1.0000 0.22230  0.29870  0.37470  Biso   1.000  O
  O82      1.0000 0.77770  0.29870  0.12530  Biso   1.000  O
  O83      1.0000 0.72230  0.79870  0.37470  Biso   1.000  O
  O84      1.0000 0.27770  0.79870  0.12530  Biso   1.000  O
  O85      1.0000 0.77770  0.70130  0.62530  Biso   1.000  O
  O86      1.0000 0.22230  0.70130  0.87470  Biso   1.000  O
  O87      1.0000 0.27770  0.20130  0.62530  Biso   1.000  O
  O88      1.0000 0.72230  0.20130  0.87470  Biso   1.000  O
  O89      1.0000 0.23800  0.09990  0.70330  Biso   1.000  O
  O90      1.0000 0.76200  0.09990  0.79670  Biso   1.000  O
  O91      1.0000 0.73800  0.59990  0.70330  Biso   1.000  O
  O92      1.0000 0.26200  0.59990  0.79670  Biso   1.000  O
  O93      1.0000 0.76200  0.90010  0.29670  Biso   1.000  O
  O94      1.0000 0.23800  0.90010  0.20330  Biso   1.000  O
  O95      1.0000 0.26200  0.40010  0.29670  Biso   1.000  O
  O96      1.0000 0.73800  0.40010  0.20330  Biso   1.000  O
  O97      1.0000 0.11240  0.78610  0.15890  Biso   1.000  O
  O98      1.0000 0.88760  0.78610  0.34110  Biso   1.000  O
  O99      1.0000 0.61240  0.28610  0.15890  Biso   1.000  O
  O100     1.0000 0.38760  0.28610  0.34110  Biso   1.000  O
  O101     1.0000 0.88760  0.21390  0.84110  Biso   1.000  O
  O102     1.0000 0.11240  0.21390  0.65890  Biso   1.000  O
  O103     1.0000 0.38760  0.71390  0.84110  Biso   1.000  O
  O104     1.0000 0.61240  0.71390  0.65890  Biso   1.000  O
  O105     1.0000 0.13440  0.59630  0.10670  Biso   1.000  O
  O106     1.0000 0.86560  0.59630  0.39330  Biso   1.000  O
  O107     1.0000 0.63440  0.09630  0.10670  Biso   1.000  O
  O108     1.0000 0.36560  0.09630  0.39330  Biso   1.000  O
  O109     1.0000 0.86560  0.40370  0.89330  Biso   1.000  O
  O110     1.0000 0.13440  0.40370  0.60670  Biso   1.000  O
  O111     1.0000 0.36560  0.90370  0.89330  Biso   1.000  O
  O112     1.0000 0.63440  0.90370  0.60670  Biso   1.000  O
