data_image0
_cell_length_a       13.273
_cell_length_b       6.579
_cell_length_c       13.931
_cell_angle_alpha    90
_cell_angle_beta     115.111
_cell_angle_gamma    90

_symmetry_space_group_name_H-M    "P 1"
_symmetry_int_tables_number       1

loop_
  _symmetry_equiv_pos_as_xyz
  'x, y, z'

loop_
  _atom_site_label
  _atom_site_occupancy
  _atom_site_fract_x
  _atom_site_fract_y
  _atom_site_fract_z
  _atom_site_thermal_displace_type
  _atom_site_B_iso_or_equiv
  _atom_site_type_symbol
  Cu1      1.0000 0.00292  0.77682  0.24818  Biso   1.000  Cu
  Cu2      1.0000 0.99708  0.27682  0.25182  Biso   1.000  Cu
  Cu3      1.0000 0.99708  0.22318  0.75182  Biso   1.000  Cu
  Cu4      1.0000 0.00292  0.72318  0.74818  Biso   1.000  Cu
  N1       1.0000 0.14552  0.92860  0.28076  Biso   1.000  N
  N2       1.0000 0.85448  0.42860  0.21924  Biso   1.000  N
  N3       1.0000 0.85448  0.07140  0.71924  Biso   1.000  N
  N4       1.0000 0.14552  0.57140  0.78076  Biso   1.000  N
  N5       1.0000 0.14061  0.13540  0.28658  Biso   1.000  N
  N6       1.0000 0.85939  0.63540  0.21342  Biso   1.000  N
  N7       1.0000 0.85939  0.86460  0.71342  Biso   1.000  N
  N8       1.0000 0.14061  0.36460  0.78658  Biso   1.000  N
  N9       1.0000 0.31272  0.04930  0.32567  Biso   1.000  N
  N10      1.0000 0.68728  0.54930  0.17433  Biso   1.000  N
  N11      1.0000 0.68728  0.95070  0.67433  Biso   1.000  N
  N12      1.0000 0.31272  0.45070  0.82567  Biso   1.000  N
  C1       1.0000 0.43085  0.06350  0.35691  Biso   1.000  C
  C2       1.0000 0.56915  0.56350  0.14309  Biso   1.000  C
  C3       1.0000 0.56915  0.93650  0.64309  Biso   1.000  C
  C4       1.0000 0.43085  0.43650  0.85691  Biso   1.000  C
  C5       1.0000 0.48605  0.23650  0.41115  Biso   1.000  C
  C6       1.0000 0.51395  0.73650  0.08885  Biso   1.000  C
  C7       1.0000 0.51395  0.76350  0.58885  Biso   1.000  C
  C8       1.0000 0.48605  0.26350  0.91115  Biso   1.000  C
  H1       1.0000 0.44770  0.33840  0.42800  Biso   1.000  H
  H2       1.0000 0.55230  0.83840  0.07200  Biso   1.000  H
  H3       1.0000 0.55230  0.66160  0.57200  Biso   1.000  H
  H4       1.0000 0.44770  0.16160  0.92800  Biso   1.000  H
  C9       1.0000 0.60063  0.25460  0.44004  Biso   1.000  C
  C10      1.0000 0.39937  0.75460  0.05996  Biso   1.000  C
  C11      1.0000 0.39937  0.74540  0.55996  Biso   1.000  C
  C12      1.0000 0.60063  0.24540  0.94004  Biso   1.000  C
  C13      1.0000 0.65649  0.09640  0.41760  Biso   1.000  C
  C14      1.0000 0.34351  0.59640  0.08240  Biso   1.000  C
  C15      1.0000 0.34351  0.90360  0.58240  Biso   1.000  C
  C16      1.0000 0.65649  0.40360  0.91760  Biso   1.000  C
  H5       1.0000 0.73270  0.10620  0.43750  Biso   1.000  H
  H6       1.0000 0.26730  0.60620  0.06250  Biso   1.000  H
  H7       1.0000 0.26730  0.89380  0.56250  Biso   1.000  H
  H8       1.0000 0.73270  0.39380  0.93750  Biso   1.000  H
  C17      1.0000 0.60000  0.92640  0.36630  Biso   1.000  C
  C18      1.0000 0.40000  0.42640  0.13370  Biso   1.000  C
  C19      1.0000 0.40000  0.07360  0.63370  Biso   1.000  C
  C20      1.0000 0.60000  0.57360  0.86630  Biso   1.000  C
  H9       1.0000 0.63880  0.82040  0.35300  Biso   1.000  H
  H10      1.0000 0.36120  0.32040  0.14700  Biso   1.000  H
  H11      1.0000 0.36120  0.17960  0.64700  Biso   1.000  H
  H12      1.0000 0.63880  0.67960  0.85300  Biso   1.000  H
  C21      1.0000 0.48593  0.90880  0.33350  Biso   1.000  C
  C22      1.0000 0.51407  0.40880  0.16650  Biso   1.000  C
  C23      1.0000 0.51407  0.09120  0.66650  Biso   1.000  C
  C24      1.0000 0.48593  0.59120  0.83350  Biso   1.000  C
  H13      1.0000 0.44770  0.79460  0.29650  Biso   1.000  H
  H14      1.0000 0.55230  0.29460  0.20350  Biso   1.000  H
  H15      1.0000 0.55230  0.20540  0.70350  Biso   1.000  H
  H16      1.0000 0.44770  0.70540  0.79650  Biso   1.000  H
  C25      1.0000 0.24161  0.20360  0.31350  Biso   1.000  C
  C26      1.0000 0.75839  0.70360  0.18650  Biso   1.000  C
  C27      1.0000 0.75839  0.79640  0.68650  Biso   1.000  C
  C28      1.0000 0.24161  0.29640  0.81350  Biso   1.000  C
  H17      1.0000 0.26160  0.34020  0.32290  Biso   1.000  H
  H18      1.0000 0.73840  0.84020  0.17710  Biso   1.000  H
  H19      1.0000 0.73840  0.65980  0.67710  Biso   1.000  H
  H20      1.0000 0.26160  0.15980  0.82290  Biso   1.000  H
  C29      1.0000 0.24850  0.88230  0.30386  Biso   1.000  C
  C30      1.0000 0.75150  0.38230  0.19614  Biso   1.000  C
  C31      1.0000 0.75150  0.11770  0.69614  Biso   1.000  C
  C32      1.0000 0.24850  0.61770  0.80386  Biso   1.000  C
  H21      1.0000 0.27440  0.75050  0.30510  Biso   1.000  H
  H22      1.0000 0.72560  0.25050  0.19490  Biso   1.000  H
  H23      1.0000 0.72560  0.24950  0.69490  Biso   1.000  H
  H24      1.0000 0.27440  0.74950  0.80510  Biso   1.000  H
  O1       1.0000 0.65113  0.42750  0.49142  Biso   1.000  O
  O2       1.0000 0.34887  0.92750  0.00858  Biso   1.000  O
  O3       1.0000 0.34887  0.57250  0.50858  Biso   1.000  O
  O4       1.0000 0.65113  0.07250  0.99142  Biso   1.000  O
  H25      1.0000 0.70560  0.45110  0.47980  Biso   1.000  H
  H26      1.0000 0.29440  0.95110  0.02020  Biso   1.000  H
  H27      1.0000 0.29440  0.54890  0.52020  Biso   1.000  H
  H28      1.0000 0.70560  0.04890  0.97980  Biso   1.000  H
  F1       1.0000 0.07824  0.52560  0.30664  Biso   1.000  F
  F2       1.0000 0.92176  0.02560  0.19336  Biso   1.000  F
  F3       1.0000 0.92176  0.47440  0.69336  Biso   1.000  F
  F4       1.0000 0.07824  0.97440  0.80664  Biso   1.000  F
  Si1      1.0000 0.00000  0.00000  0.50000  Biso   1.000  Si
  Si2      1.0000 0.00000  0.50000  0.00000  Biso   1.000  Si
  F5       1.0000 0.87656  0.90010  0.41974  Biso   1.000  F
  F6       1.0000 0.12344  0.40010  0.08026  Biso   1.000  F
  F7       1.0000 0.12344  0.09990  0.58026  Biso   1.000  F
  F8       1.0000 0.87656  0.59990  0.91974  Biso   1.000  F
  F9       1.0000 0.97267  0.20370  0.41948  Biso   1.000  F
  F10      1.0000 0.02733  0.70370  0.08052  Biso   1.000  F
  F11      1.0000 0.02733  0.79630  0.58052  Biso   1.000  F
  F12      1.0000 0.97267  0.29630  0.91948  Biso   1.000  F
  F13      1.0000 0.05936  0.87950  0.43153  Biso   1.000  F
  F14      1.0000 0.94064  0.37950  0.06847  Biso   1.000  F
  F15      1.0000 0.94064  0.12050  0.56847  Biso   1.000  F
  F16      1.0000 0.05936  0.62050  0.93153  Biso   1.000  F
  O5       1.0000 0.17055  0.00160  0.04805  Biso   1.000  O
  O6       1.0000 0.82945  0.50160  0.45195  Biso   1.000  O
  O7       1.0000 0.82945  0.99840  0.95195  Biso   1.000  O
  O8       1.0000 0.17055  0.49840  0.54805  Biso   1.000  O
