data_image0
_cell_length_a       13.197
_cell_length_b       14.137
_cell_length_c       9.161
_cell_angle_alpha    90
_cell_angle_beta     94.92
_cell_angle_gamma    90

_symmetry_space_group_name_H-M    "P 1"
_symmetry_int_tables_number       1

loop_
  _symmetry_equiv_pos_as_xyz
  'x, y, z'

loop_
  _atom_site_label
  _atom_site_occupancy
  _atom_site_fract_x
  _atom_site_fract_y
  _atom_site_fract_z
  _atom_site_thermal_displace_type
  _atom_site_B_iso_or_equiv
  _atom_site_type_symbol
  Cu1      1.0000 0.20376  0.80249  0.87450  Biso   1.000  Cu
  Cu2      1.0000 0.79624  0.30249  0.62550  Biso   1.000  Cu
  Cu3      1.0000 0.79624  0.19751  0.12550  Biso   1.000  Cu
  Cu4      1.0000 0.20376  0.69751  0.37450  Biso   1.000  Cu
  O1       1.0000 0.20212  0.78929  0.64080  Biso   1.000  O
  O2       1.0000 0.79788  0.28929  0.85920  Biso   1.000  O
  O3       1.0000 0.79788  0.21071  0.35920  Biso   1.000  O
  O4       1.0000 0.20212  0.71071  0.14080  Biso   1.000  O
  O5       1.0000 0.20158  0.82827  0.41280  Biso   1.000  O
  O6       1.0000 0.79842  0.32827  0.08720  Biso   1.000  O
  O7       1.0000 0.79842  0.17173  0.58720  Biso   1.000  O
  O8       1.0000 0.20158  0.67173  0.91280  Biso   1.000  O
  O9       1.0000 0.20652  0.94123  0.85110  Biso   1.000  O
  O10      1.0000 0.79348  0.44123  0.64890  Biso   1.000  O
  O11      1.0000 0.79348  0.05877  0.14890  Biso   1.000  O
  O12      1.0000 0.20652  0.55877  0.35110  Biso   1.000  O
  O13      1.0000 0.26840  0.06160  0.74470  Biso   1.000  O
  O14      1.0000 0.73160  0.56160  0.75530  Biso   1.000  O
  O15      1.0000 0.73160  0.93840  0.25530  Biso   1.000  O
  O16      1.0000 0.26840  0.43840  0.24470  Biso   1.000  O
  N1       1.0000 0.05170  0.80666  0.88070  Biso   1.000  N
  N2       1.0000 0.94830  0.30666  0.61930  Biso   1.000  N
  N3       1.0000 0.94830  0.19334  0.11930  Biso   1.000  N
  N4       1.0000 0.05170  0.69334  0.38070  Biso   1.000  N
  N5       1.0000 0.35520  0.80180  0.91070  Biso   1.000  N
  N6       1.0000 0.64480  0.30180  0.58930  Biso   1.000  N
  N7       1.0000 0.64480  0.19820  0.08930  Biso   1.000  N
  N8       1.0000 0.35520  0.69820  0.41070  Biso   1.000  N
  C1       1.0000 0.20350  0.85170  0.55030  Biso   1.000  C
  C2       1.0000 0.79650  0.35170  0.94970  Biso   1.000  C
  C3       1.0000 0.79650  0.14830  0.44970  Biso   1.000  C
  C4       1.0000 0.20350  0.64830  0.05030  Biso   1.000  C
  C5       1.0000 0.16710  0.95080  0.58940  Biso   1.000  C
  C6       1.0000 0.83290  0.45080  0.91060  Biso   1.000  C
  C7       1.0000 0.83290  0.04920  0.41060  Biso   1.000  C
  C8       1.0000 0.16710  0.54920  0.08940  Biso   1.000  C
  C9       1.0000 0.25690  0.94650  0.59670  Biso   1.000  C
  C10      1.0000 0.74310  0.44650  0.90330  Biso   1.000  C
  C11      1.0000 0.74310  0.05350  0.40330  Biso   1.000  C
  C12      1.0000 0.25690  0.55350  0.09670  Biso   1.000  C
  C13      1.0000 0.22930  0.98150  0.73990  Biso   1.000  C
  C14      1.0000 0.77070  0.48150  0.76010  Biso   1.000  C
  C15      1.0000 0.77070  0.01850  0.26010  Biso   1.000  C
  C16      1.0000 0.22930  0.51850  0.23990  Biso   1.000  C
  C17      1.0000 0.15960  0.02430  0.46430  Biso   1.000  C
  C18      1.0000 0.84040  0.52430  0.03570  Biso   1.000  C
  C19      1.0000 0.84040  0.97570  0.53570  Biso   1.000  C
  C20      1.0000 0.15960  0.47570  0.96430  Biso   1.000  C
  C21      1.0000 0.24150  0.02360  0.48060  Biso   1.000  C
  C22      1.0000 0.75850  0.52360  0.01940  Biso   1.000  C
  C23      1.0000 0.75850  0.97640  0.51940  Biso   1.000  C
  C24      1.0000 0.24150  0.47640  0.98060  Biso   1.000  C
  C25      1.0000 0.03320  0.00930  0.45650  Biso   1.000  C
  C26      1.0000 0.96680  0.50930  0.04350  Biso   1.000  C
  C27      1.0000 0.96680  0.99070  0.54350  Biso   1.000  C
  C28      1.0000 0.03320  0.49070  0.95650  Biso   1.000  C
  C29      1.0000 0.36150  0.00290  0.45180  Biso   1.000  C
  C30      1.0000 0.63850  0.50290  0.04820  Biso   1.000  C
  C31      1.0000 0.63850  0.99710  0.54820  Biso   1.000  C
  C32      1.0000 0.36150  0.49710  0.95180  Biso   1.000  C
  C33      1.0000 0.04550  0.95840  0.59230  Biso   1.000  C
  C34      1.0000 0.95450  0.45840  0.90770  Biso   1.000  C
  C35      1.0000 0.95450  0.04160  0.40770  Biso   1.000  C
  C36      1.0000 0.04550  0.54160  0.09230  Biso   1.000  C
  C37      1.0000 0.37310  0.95060  0.58370  Biso   1.000  C
  C38      1.0000 0.62690  0.45060  0.91630  Biso   1.000  C
  C39      1.0000 0.62690  0.04940  0.41630  Biso   1.000  C
  C40      1.0000 0.37310  0.54940  0.08370  Biso   1.000  C
  C41      1.0000 0.40890  0.86900  0.98510  Biso   1.000  C
  C42      1.0000 0.59110  0.36900  0.51490  Biso   1.000  C
  C43      1.0000 0.59110  0.13100  0.01490  Biso   1.000  C
  C44      1.0000 0.40890  0.63100  0.48510  Biso   1.000  C
  H1       1.0000 0.37510  0.91900  0.02570  Biso   1.000  H
  H2       1.0000 0.62490  0.41900  0.47430  Biso   1.000  H
  H3       1.0000 0.62490  0.08100  0.97430  Biso   1.000  H
  H4       1.0000 0.37510  0.58100  0.52570  Biso   1.000  H
  C45      1.0000 0.51180  0.86540  0.00230  Biso   1.000  C
  C46      1.0000 0.48820  0.36540  0.49770  Biso   1.000  C
  C47      1.0000 0.48820  0.13460  0.99770  Biso   1.000  C
  C48      1.0000 0.51180  0.63460  0.50230  Biso   1.000  C
  H5       1.0000 0.54560  0.91300  0.05690  Biso   1.000  H
  H6       1.0000 0.45440  0.41300  0.44310  Biso   1.000  H
  H7       1.0000 0.45440  0.08700  0.94310  Biso   1.000  H
  H8       1.0000 0.54560  0.58700  0.55690  Biso   1.000  H
  C49      1.0000 0.57000  0.79580  0.94420  Biso   1.000  C
  C50      1.0000 0.43000  0.29580  0.55580  Biso   1.000  C
  C51      1.0000 0.43000  0.20420  0.05580  Biso   1.000  C
  C52      1.0000 0.57000  0.70420  0.44420  Biso   1.000  C
  C53      1.0000 0.51440  0.73390  0.85580  Biso   1.000  C
  C54      1.0000 0.48560  0.23390  0.64420  Biso   1.000  C
  C55      1.0000 0.48560  0.26610  0.14420  Biso   1.000  C
  C56      1.0000 0.51440  0.76610  0.35580  Biso   1.000  C
  H9       1.0000 0.54700  0.68840  0.80340  Biso   1.000  H
  H10      1.0000 0.45300  0.18840  0.69660  Biso   1.000  H
  H11      1.0000 0.45300  0.31160  0.19660  Biso   1.000  H
  H12      1.0000 0.54700  0.81160  0.30340  Biso   1.000  H
  C57      1.0000 0.41050  0.73890  0.84430  Biso   1.000  C
  C58      1.0000 0.58950  0.23890  0.65570  Biso   1.000  C
  C59      1.0000 0.58950  0.26110  0.15570  Biso   1.000  C
  C60      1.0000 0.41050  0.76110  0.34430  Biso   1.000  C
  H13      1.0000 0.37540  0.69440  0.78480  Biso   1.000  H
  H14      1.0000 0.62460  0.19440  0.71520  Biso   1.000  H
  H15      1.0000 0.62460  0.30560  0.21520  Biso   1.000  H
  H16      1.0000 0.37540  0.80560  0.28480  Biso   1.000  H
  C61      1.0000 0.68080  0.79450  0.96780  Biso   1.000  C
  C62      1.0000 0.31920  0.29450  0.53220  Biso   1.000  C
  C63      1.0000 0.31920  0.20550  0.03220  Biso   1.000  C
  C64      1.0000 0.68080  0.70550  0.46780  Biso   1.000  C
  H17      1.0000 0.70120  0.82640  0.05940  Biso   1.000  H
  H18      1.0000 0.29880  0.32640  0.44060  Biso   1.000  H
  H19      1.0000 0.29880  0.17360  0.94060  Biso   1.000  H
  H20      1.0000 0.70120  0.67360  0.55940  Biso   1.000  H
  H21      1.0000 0.70340  0.72930  0.97740  Biso   1.000  H
  H22      1.0000 0.29660  0.22930  0.52260  Biso   1.000  H
  H23      1.0000 0.29660  0.27070  0.02260  Biso   1.000  H
  H24      1.0000 0.70340  0.77070  0.47740  Biso   1.000  H
  C65      1.0000 0.73150  0.83900  0.85160  Biso   1.000  C
  C66      1.0000 0.26850  0.33900  0.64840  Biso   1.000  C
  C67      1.0000 0.26850  0.16100  0.14840  Biso   1.000  C
  C68      1.0000 0.73150  0.66100  0.35160  Biso   1.000  C
  H25      1.0000 0.71700  0.90630  0.85170  Biso   1.000  H
  H26      1.0000 0.28300  0.40630  0.64830  Biso   1.000  H
  H27      1.0000 0.28300  0.09370  0.14830  Biso   1.000  H
  H28      1.0000 0.71700  0.59370  0.35170  Biso   1.000  H
  H29      1.0000 0.70360  0.81370  0.75830  Biso   1.000  H
  H30      1.0000 0.29640  0.31370  0.74170  Biso   1.000  H
  H31      1.0000 0.29640  0.18630  0.24170  Biso   1.000  H
  H32      1.0000 0.70360  0.68630  0.25830  Biso   1.000  H
  C69      1.0000 0.84140  0.82560  0.86450  Biso   1.000  C
  C70      1.0000 0.15860  0.32560  0.63550  Biso   1.000  C
  C71      1.0000 0.15860  0.17440  0.13550  Biso   1.000  C
  C72      1.0000 0.84140  0.67440  0.36450  Biso   1.000  C
  C73      1.0000 0.90220  0.88660  0.94990  Biso   1.000  C
  C74      1.0000 0.09780  0.38660  0.55010  Biso   1.000  C
  C75      1.0000 0.09780  0.11340  0.05010  Biso   1.000  C
  C76      1.0000 0.90220  0.61340  0.44990  Biso   1.000  C
  H33      1.0000 0.87330  0.93530  0.00060  Biso   1.000  H
  H34      1.0000 0.12670  0.43530  0.49940  Biso   1.000  H
  H35      1.0000 0.12670  0.06470  0.99940  Biso   1.000  H
  H36      1.0000 0.87330  0.56470  0.50060  Biso   1.000  H
  C77      1.0000 0.00950  0.87470  0.95990  Biso   1.000  C
  C78      1.0000 0.99050  0.37470  0.54010  Biso   1.000  C
  C79      1.0000 0.99050  0.12530  0.04010  Biso   1.000  C
  C80      1.0000 0.00950  0.62530  0.45990  Biso   1.000  C
  H37      1.0000 0.05090  0.91380  0.02100  Biso   1.000  H
  H38      1.0000 0.94910  0.41380  0.47900  Biso   1.000  H
  H39      1.0000 0.94910  0.08620  0.97900  Biso   1.000  H
  H40      1.0000 0.05090  0.58620  0.52100  Biso   1.000  H
  C81      1.0000 0.99350  0.74710  0.79950  Biso   1.000  C
  C82      1.0000 0.00650  0.24710  0.70050  Biso   1.000  C
  C83      1.0000 0.00650  0.25290  0.20050  Biso   1.000  C
  C84      1.0000 0.99350  0.75290  0.29950  Biso   1.000  C
  H41      1.0000 0.02280  0.69890  0.74830  Biso   1.000  H
  H42      1.0000 0.97720  0.19890  0.75170  Biso   1.000  H
  H43      1.0000 0.97720  0.30110  0.25170  Biso   1.000  H
  H44      1.0000 0.02280  0.80110  0.24830  Biso   1.000  H
  C85      1.0000 0.88930  0.75680  0.79110  Biso   1.000  C
  C86      1.0000 0.11070  0.25680  0.70890  Biso   1.000  C
  C87      1.0000 0.11070  0.24320  0.20890  Biso   1.000  C
  C88      1.0000 0.88930  0.74320  0.29110  Biso   1.000  C
  H45      1.0000 0.84970  0.71470  0.73280  Biso   1.000  H
  H46      1.0000 0.15030  0.21470  0.76720  Biso   1.000  H
  H47      1.0000 0.15030  0.28530  0.26720  Biso   1.000  H
  H48      1.0000 0.84970  0.78530  0.23280  Biso   1.000  H
