data_image0
_cell_length_a       17.291
_cell_length_b       11.131
_cell_length_c       17.307
_cell_angle_alpha    90
_cell_angle_beta     117.841
_cell_angle_gamma    90

_symmetry_space_group_name_H-M    "P 1"
_symmetry_int_tables_number       1

loop_
  _symmetry_equiv_pos_as_xyz
  'x, y, z'

loop_
  _atom_site_label
  _atom_site_occupancy
  _atom_site_fract_x
  _atom_site_fract_y
  _atom_site_fract_z
  _atom_site_thermal_displace_type
  _atom_site_B_iso_or_equiv
  _atom_site_type_symbol
  H1       1.0000 0.03450  0.42400  0.44830  Biso   1.000  H
  H2       1.0000 0.46550  0.92400  0.05170  Biso   1.000  H
  H3       1.0000 0.96550  0.57600  0.55170  Biso   1.000  H
  H4       1.0000 0.53450  0.07600  0.94830  Biso   1.000  H
  H5       1.0000 0.02000  0.58700  0.43000  Biso   1.000  H
  H6       1.0000 0.48000  0.08700  0.07000  Biso   1.000  H
  H7       1.0000 0.98000  0.41300  0.57000  Biso   1.000  H
  H8       1.0000 0.52000  0.91300  0.93000  Biso   1.000  H
  H9       1.0000 0.45100  0.65500  0.75500  Biso   1.000  H
  H10      1.0000 0.04900  0.15500  0.74500  Biso   1.000  H
  H11      1.0000 0.54900  0.34500  0.24500  Biso   1.000  H
  H12      1.0000 0.95100  0.84500  0.25500  Biso   1.000  H
  H13      1.0000 0.44680  0.82100  0.52960  Biso   1.000  H
  H14      1.0000 0.05320  0.32100  0.97040  Biso   1.000  H
  H15      1.0000 0.55320  0.17900  0.47040  Biso   1.000  H
  H16      1.0000 0.94680  0.67900  0.02960  Biso   1.000  H
  H17      1.0000 0.45500  0.02900  0.53500  Biso   1.000  H
  H18      1.0000 0.04500  0.52900  0.96500  Biso   1.000  H
  H19      1.0000 0.54500  0.97100  0.46500  Biso   1.000  H
  H20      1.0000 0.95500  0.47100  0.03500  Biso   1.000  H
  Cu1      1.0000 0.16512  0.20812  0.46725  Biso   1.000  Cu
  Cu2      1.0000 0.33488  0.70812  0.03275  Biso   1.000  Cu
  Cu3      1.0000 0.83488  0.79188  0.53275  Biso   1.000  Cu
  Cu4      1.0000 0.66512  0.29188  0.96725  Biso   1.000  Cu
  Cu5      1.0000 0.46809  0.23826  0.66543  Biso   1.000  Cu
  Cu6      1.0000 0.03191  0.73826  0.83457  Biso   1.000  Cu
  Cu7      1.0000 0.53191  0.76174  0.33457  Biso   1.000  Cu
  Cu8      1.0000 0.96809  0.26174  0.16543  Biso   1.000  Cu
  O1       1.0000 0.11055  0.20625  0.54137  Biso   1.000  O
  O2       1.0000 0.38945  0.70625  0.95863  Biso   1.000  O
  O3       1.0000 0.88945  0.79375  0.45863  Biso   1.000  O
  O4       1.0000 0.61055  0.29375  0.04137  Biso   1.000  O
  O5       1.0000 0.10999  0.28630  0.65775  Biso   1.000  O
  O6       1.0000 0.39001  0.78630  0.84225  Biso   1.000  O
  O7       1.0000 0.89001  0.71370  0.34225  Biso   1.000  O
  O8       1.0000 0.60999  0.21370  0.15775  Biso   1.000  O
  O9       1.0000 0.29266  0.20743  0.57788  Biso   1.000  O
  O10      1.0000 0.20734  0.70743  0.92212  Biso   1.000  O
  O11      1.0000 0.70734  0.79257  0.42212  Biso   1.000  O
  O12      1.0000 0.79266  0.29257  0.07788  Biso   1.000  O
  O13      1.0000 0.38481  0.23659  0.71457  Biso   1.000  O
  O14      1.0000 0.11519  0.73659  0.78543  Biso   1.000  O
  O15      1.0000 0.61519  0.76341  0.28543  Biso   1.000  O
  O16      1.0000 0.88481  0.26341  0.21457  Biso   1.000  O
  O17      1.0000 0.04370  0.25639  0.11090  Biso   1.000  O
  O18      1.0000 0.45630  0.75639  0.38910  Biso   1.000  O
  O19      1.0000 0.95630  0.74361  0.88910  Biso   1.000  O
  O20      1.0000 0.54370  0.24361  0.61090  Biso   1.000  O
  O21      1.0000 0.07715  0.25090  0.29305  Biso   1.000  O
  O22      1.0000 0.42285  0.75090  0.20695  Biso   1.000  O
  O23      1.0000 0.92285  0.74910  0.70695  Biso   1.000  O
  O24      1.0000 0.57715  0.24910  0.79305  Biso   1.000  O
  O25      1.0000 0.16072  0.18670  0.10989  Biso   1.000  O
  O26      1.0000 0.33928  0.68670  0.39011  Biso   1.000  O
  O27      1.0000 0.83928  0.81330  0.89011  Biso   1.000  O
  O28      1.0000 0.66072  0.31330  0.60989  Biso   1.000  O
  O29      1.0000 0.21530  0.21940  0.38422  Biso   1.000  O
  O30      1.0000 0.28470  0.71940  0.11578  Biso   1.000  O
  O31      1.0000 0.78470  0.78060  0.61578  Biso   1.000  O
  O32      1.0000 0.71530  0.28060  0.88422  Biso   1.000  O
  N1       1.0000 0.15525  0.39300  0.46647  Biso   1.000  N
  N2       1.0000 0.34475  0.89300  0.03353  Biso   1.000  N
  N3       1.0000 0.84475  0.60700  0.53353  Biso   1.000  N
  N4       1.0000 0.65525  0.10700  0.96647  Biso   1.000  N
  N5       1.0000 0.15064  0.02570  0.45244  Biso   1.000  N
  N6       1.0000 0.34936  0.52570  0.04756  Biso   1.000  N
  N7       1.0000 0.84936  0.97430  0.54756  Biso   1.000  N
  N8       1.0000 0.65064  0.47430  0.95244  Biso   1.000  N
  N9       1.0000 0.45806  0.42060  0.65368  Biso   1.000  N
  N10      1.0000 0.04194  0.92060  0.84632  Biso   1.000  N
  N11      1.0000 0.54194  0.57940  0.34632  Biso   1.000  N
  N12      1.0000 0.95806  0.07940  0.15368  Biso   1.000  N
  N13      1.0000 0.46310  0.05619  0.65587  Biso   1.000  N
  N14      1.0000 0.03690  0.55619  0.84413  Biso   1.000  N
  N15      1.0000 0.53690  0.94381  0.34413  Biso   1.000  N
  N16      1.0000 0.96310  0.44381  0.15587  Biso   1.000  N
  C1       1.0000 0.08583  0.45140  0.45579  Biso   1.000  C
  C2       1.0000 0.41417  0.95140  0.04421  Biso   1.000  C
  C3       1.0000 0.91417  0.54860  0.54421  Biso   1.000  C
  C4       1.0000 0.58583  0.04860  0.95579  Biso   1.000  C
  C5       1.0000 0.08237  0.57630  0.45424  Biso   1.000  C
  C6       1.0000 0.41763  0.07630  0.04576  Biso   1.000  C
  C7       1.0000 0.91763  0.42370  0.54576  Biso   1.000  C
  C8       1.0000 0.58237  0.92370  0.95424  Biso   1.000  C
  C9       1.0000 0.15300  0.64360  0.46291  Biso   1.000  C
  C10      1.0000 0.34700  0.14360  0.03709  Biso   1.000  C
  C11      1.0000 0.84700  0.35640  0.53709  Biso   1.000  C
  C12      1.0000 0.65300  0.85640  0.96291  Biso   1.000  C
  C13      1.0000 0.22687  0.57940  0.47530  Biso   1.000  C
  C14      1.0000 0.27313  0.07940  0.02470  Biso   1.000  C
  C15      1.0000 0.77313  0.42060  0.52470  Biso   1.000  C
  C16      1.0000 0.72687  0.92060  0.97530  Biso   1.000  C
  H21      1.0000 0.27690  0.61990  0.48260  Biso   1.000  H
  H22      1.0000 0.22310  0.11990  0.01740  Biso   1.000  H
  H23      1.0000 0.72310  0.38010  0.51740  Biso   1.000  H
  H24      1.0000 0.77690  0.88010  0.98260  Biso   1.000  H
  C17      1.0000 0.22594  0.45950  0.47660  Biso   1.000  C
  C18      1.0000 0.27406  0.95950  0.02340  Biso   1.000  C
  C19      1.0000 0.77406  0.54050  0.52340  Biso   1.000  C
  C20      1.0000 0.72594  0.04050  0.97660  Biso   1.000  C
  H25      1.0000 0.27620  0.41880  0.48480  Biso   1.000  H
  H26      1.0000 0.22380  0.91880  0.01520  Biso   1.000  H
  H27      1.0000 0.72380  0.58120  0.51520  Biso   1.000  H
  H28      1.0000 0.77620  0.08120  0.98480  Biso   1.000  H
  C21      1.0000 0.15121  0.77590  0.45957  Biso   1.000  C
  C22      1.0000 0.34879  0.27590  0.04043  Biso   1.000  C
  C23      1.0000 0.84879  0.22410  0.54043  Biso   1.000  C
  C24      1.0000 0.65121  0.72410  0.95957  Biso   1.000  C
  C25      1.0000 0.21260  0.83970  0.44540  Biso   1.000  C
  C26      1.0000 0.28740  0.33970  0.05460  Biso   1.000  C
  C27      1.0000 0.78740  0.16030  0.55460  Biso   1.000  C
  C28      1.0000 0.71260  0.66030  0.94540  Biso   1.000  C
  H29      1.0000 0.25420  0.79880  0.43580  Biso   1.000  H
  H30      1.0000 0.24580  0.29880  0.06420  Biso   1.000  H
  H31      1.0000 0.74580  0.20120  0.56420  Biso   1.000  H
  H32      1.0000 0.75420  0.70120  0.93580  Biso   1.000  H
  C29      1.0000 0.21190  0.96060  0.44560  Biso   1.000  C
  C30      1.0000 0.28810  0.46060  0.05440  Biso   1.000  C
  C31      1.0000 0.78810  0.03940  0.55440  Biso   1.000  C
  C32      1.0000 0.71190  0.53940  0.94560  Biso   1.000  C
  H33      1.0000 0.25650  0.00090  0.44080  Biso   1.000  H
  H34      1.0000 0.24350  0.50090  0.05920  Biso   1.000  H
  H35      1.0000 0.74350  0.99910  0.55920  Biso   1.000  H
  H36      1.0000 0.75650  0.49910  0.94080  Biso   1.000  H
  C33      1.0000 0.08902  0.96580  0.46240  Biso   1.000  C
  C34      1.0000 0.41098  0.46580  0.03760  Biso   1.000  C
  C35      1.0000 0.91098  0.03420  0.53760  Biso   1.000  C
  C36      1.0000 0.58902  0.53420  0.96240  Biso   1.000  C
  H37      1.0000 0.04550  0.00950  0.46710  Biso   1.000  H
  H38      1.0000 0.45450  0.50950  0.03290  Biso   1.000  H
  H39      1.0000 0.95450  0.99050  0.53290  Biso   1.000  H
  H40      1.0000 0.54550  0.49050  0.96710  Biso   1.000  H
  C37      1.0000 0.08674  0.84260  0.46620  Biso   1.000  C
  C38      1.0000 0.41326  0.34260  0.03380  Biso   1.000  C
  C39      1.0000 0.91326  0.15740  0.53380  Biso   1.000  C
  C40      1.0000 0.58674  0.65740  0.96620  Biso   1.000  C
  H41      1.0000 0.04250  0.80430  0.47310  Biso   1.000  H
  H42      1.0000 0.45750  0.30430  0.02690  Biso   1.000  H
  H43      1.0000 0.95750  0.19570  0.52690  Biso   1.000  H
  H44      1.0000 0.54250  0.69570  0.97310  Biso   1.000  H
  C41      1.0000 0.14823  0.23250  0.62440  Biso   1.000  C
  C42      1.0000 0.35177  0.73250  0.87560  Biso   1.000  C
  C43      1.0000 0.85177  0.76750  0.37560  Biso   1.000  C
  C44      1.0000 0.64823  0.26750  0.12440  Biso   1.000  C
  C45      1.0000 0.24017  0.18130  0.68383  Biso   1.000  C
  C46      1.0000 0.25983  0.68130  0.81617  Biso   1.000  C
  C47      1.0000 0.75983  0.81870  0.31617  Biso   1.000  C
  C48      1.0000 0.74017  0.31870  0.18383  Biso   1.000  C
  C49      1.0000 0.30803  0.21080  0.65475  Biso   1.000  C
  C50      1.0000 0.19197  0.71080  0.84525  Biso   1.000  C
  C51      1.0000 0.69197  0.78920  0.34525  Biso   1.000  C
  C52      1.0000 0.80803  0.28920  0.15475  Biso   1.000  C
  C53      1.0000 0.23890  0.04160  0.69530  Biso   1.000  C
  C54      1.0000 0.26110  0.54160  0.80470  Biso   1.000  C
  C55      1.0000 0.76110  0.95840  0.30470  Biso   1.000  C
  C56      1.0000 0.73890  0.45840  0.19530  Biso   1.000  C
  H45      1.0000 0.18050  0.00820  0.67240  Biso   1.000  H
  H46      1.0000 0.31950  0.50820  0.82760  Biso   1.000  H
  H47      1.0000 0.81950  0.99180  0.32760  Biso   1.000  H
  H48      1.0000 0.68050  0.49180  0.17240  Biso   1.000  H
  H49      1.0000 0.27330  0.99780  0.67370  Biso   1.000  H
  H50      1.0000 0.22670  0.49780  0.82630  Biso   1.000  H
  H51      1.0000 0.72670  0.00220  0.32630  Biso   1.000  H
  H52      1.0000 0.77330  0.50220  0.17370  Biso   1.000  H
  C57      1.0000 0.28520  0.05810  0.79520  Biso   1.000  C
  C58      1.0000 0.21480  0.55810  0.70480  Biso   1.000  C
  C59      1.0000 0.71480  0.94190  0.20480  Biso   1.000  C
  C60      1.0000 0.78520  0.44190  0.29520  Biso   1.000  C
  H53      1.0000 0.25470  0.02100  0.82390  Biso   1.000  H
  H54      1.0000 0.24530  0.52100  0.67610  Biso   1.000  H
  H55      1.0000 0.74530  0.97900  0.17610  Biso   1.000  H
  H56      1.0000 0.75470  0.47900  0.32390  Biso   1.000  H
  H57      1.0000 0.34630  0.03460  0.82300  Biso   1.000  H
  H58      1.0000 0.15370  0.53460  0.67700  Biso   1.000  H
  H59      1.0000 0.65370  0.96540  0.17700  Biso   1.000  H
  H60      1.0000 0.84630  0.46540  0.32300  Biso   1.000  H
  C61      1.0000 0.27130  0.19340  0.78340  Biso   1.000  C
  C62      1.0000 0.22870  0.69340  0.71660  Biso   1.000  C
  C63      1.0000 0.72870  0.80660  0.21660  Biso   1.000  C
  C64      1.0000 0.77130  0.30660  0.28340  Biso   1.000  C
  H61      1.0000 0.32480  0.23950  0.81390  Biso   1.000  H
  H62      1.0000 0.17520  0.73950  0.68610  Biso   1.000  H
  H63      1.0000 0.67520  0.76050  0.18610  Biso   1.000  H
  H64      1.0000 0.82480  0.26050  0.31390  Biso   1.000  H
  H65      1.0000 0.22640  0.22310  0.79710  Biso   1.000  H
  H66      1.0000 0.27360  0.72310  0.70290  Biso   1.000  H
  H67      1.0000 0.77360  0.77690  0.20290  Biso   1.000  H
  H68      1.0000 0.72640  0.27690  0.29710  Biso   1.000  H
  C65      1.0000 0.45170  0.48610  0.71580  Biso   1.000  C
  C66      1.0000 0.04830  0.98610  0.78420  Biso   1.000  C
  C67      1.0000 0.54830  0.51390  0.28420  Biso   1.000  C
  C68      1.0000 0.95170  0.01390  0.21580  Biso   1.000  C
  H69      1.0000 0.44710  0.44560  0.76060  Biso   1.000  H
  H70      1.0000 0.05290  0.94560  0.73940  Biso   1.000  H
  H71      1.0000 0.55290  0.55440  0.23940  Biso   1.000  H
  H72      1.0000 0.94710  0.05440  0.26060  Biso   1.000  H
  C69      1.0000 0.45150  0.60780  0.71660  Biso   1.000  C
  C70      1.0000 0.04850  0.10780  0.78340  Biso   1.000  C
  C71      1.0000 0.54850  0.39220  0.28340  Biso   1.000  C
  C72      1.0000 0.95150  0.89220  0.21660  Biso   1.000  C
  C73      1.0000 0.45979  0.67540  0.65184  Biso   1.000  C
  C74      1.0000 0.04021  0.17540  0.84816  Biso   1.000  C
  C75      1.0000 0.54021  0.32460  0.34816  Biso   1.000  C
  C76      1.0000 0.95979  0.82460  0.15184  Biso   1.000  C
  C77      1.0000 0.46500  0.60210  0.58805  Biso   1.000  C
  C78      1.0000 0.03500  0.10210  0.91195  Biso   1.000  C
  C79      1.0000 0.53500  0.39790  0.41195  Biso   1.000  C
  C80      1.0000 0.96500  0.89790  0.08805  Biso   1.000  C
  H73      1.0000 0.46940  0.63890  0.54200  Biso   1.000  H
  H74      1.0000 0.03060  0.13890  0.95800  Biso   1.000  H
  H75      1.0000 0.53060  0.36110  0.45800  Biso   1.000  H
  H76      1.0000 0.96940  0.86110  0.04200  Biso   1.000  H
  C81      1.0000 0.46396  0.48180  0.59080  Biso   1.000  C
  C82      1.0000 0.03604  0.98180  0.90920  Biso   1.000  C
  C83      1.0000 0.53604  0.51820  0.40920  Biso   1.000  C
  C84      1.0000 0.96396  0.01820  0.09080  Biso   1.000  C
  H77      1.0000 0.46750  0.43900  0.54640  Biso   1.000  H
  H78      1.0000 0.03250  0.93900  0.95360  Biso   1.000  H
  H79      1.0000 0.53250  0.56100  0.45360  Biso   1.000  H
  H80      1.0000 0.96750  0.06100  0.04640  Biso   1.000  H
  C85      1.0000 0.46188  0.80840  0.65240  Biso   1.000  C
  C86      1.0000 0.03812  0.30840  0.84760  Biso   1.000  C
  C87      1.0000 0.53812  0.19160  0.34760  Biso   1.000  C
  C88      1.0000 0.96188  0.69160  0.15240  Biso   1.000  C
  C89      1.0000 0.45420  0.87180  0.58150  Biso   1.000  C
  C90      1.0000 0.04580  0.37180  0.91850  Biso   1.000  C
  C91      1.0000 0.54580  0.12820  0.41850  Biso   1.000  C
  C92      1.0000 0.95420  0.62820  0.08150  Biso   1.000  C
  C93      1.0000 0.45430  0.99210  0.58510  Biso   1.000  C
  C94      1.0000 0.04570  0.49210  0.91490  Biso   1.000  C
  C95      1.0000 0.54570  0.00790  0.41490  Biso   1.000  C
  C96      1.0000 0.95430  0.50790  0.08510  Biso   1.000  C
  C97      1.0000 0.47150  0.99110  0.72441  Biso   1.000  C
  C98      1.0000 0.02850  0.49110  0.77559  Biso   1.000  C
  C99      1.0000 0.52850  0.00890  0.27559  Biso   1.000  C
  C100     1.0000 0.97150  0.50890  0.22441  Biso   1.000  C
  H81      1.0000 0.47740  0.03140  0.77400  Biso   1.000  H
  H82      1.0000 0.02260  0.53140  0.72600  Biso   1.000  H
  H83      1.0000 0.52260  0.96860  0.22600  Biso   1.000  H
  H84      1.0000 0.97740  0.46860  0.27400  Biso   1.000  H
  C101     1.0000 0.47180  0.86970  0.72490  Biso   1.000  C
  C102     1.0000 0.02820  0.36970  0.77510  Biso   1.000  C
  C103     1.0000 0.52820  0.13030  0.27510  Biso   1.000  C
  C104     1.0000 0.97180  0.63030  0.22490  Biso   1.000  C
  H85      1.0000 0.47860  0.82810  0.77430  Biso   1.000  H
  H86      1.0000 0.02140  0.32810  0.72570  Biso   1.000  H
  H87      1.0000 0.52140  0.17190  0.22570  Biso   1.000  H
  H88      1.0000 0.97860  0.67190  0.27430  Biso   1.000  H
  C105     1.0000 0.15477  0.24510  0.30936  Biso   1.000  C
  C106     1.0000 0.34523  0.74510  0.19064  Biso   1.000  C
  C107     1.0000 0.84523  0.75490  0.69064  Biso   1.000  C
  C108     1.0000 0.65477  0.25490  0.80936  Biso   1.000  C
  C109     1.0000 0.12490  0.23420  0.14816  Biso   1.000  C
  C110     1.0000 0.37510  0.73420  0.35184  Biso   1.000  C
  C111     1.0000 0.87510  0.76580  0.85184  Biso   1.000  C
  C112     1.0000 0.62490  0.26580  0.64816  Biso   1.000  C
  C113     1.0000 0.18375  0.28070  0.24190  Biso   1.000  C
  C114     1.0000 0.31625  0.78070  0.25810  Biso   1.000  C
  C115     1.0000 0.81625  0.71930  0.75810  Biso   1.000  C
  C116     1.0000 0.68375  0.21930  0.74190  Biso   1.000  C
  C117     1.0000 0.19510  0.42110  0.24320  Biso   1.000  C
  C118     1.0000 0.30490  0.92110  0.25680  Biso   1.000  C
  C119     1.0000 0.80490  0.57890  0.75680  Biso   1.000  C
  C120     1.0000 0.69510  0.07890  0.74320  Biso   1.000  C
  H89      1.0000 0.17410  0.46240  0.27920  Biso   1.000  H
  H90      1.0000 0.32590  0.96240  0.22080  Biso   1.000  H
  H91      1.0000 0.82590  0.53760  0.72080  Biso   1.000  H
  H92      1.0000 0.67410  0.03760  0.77920  Biso   1.000  H
  H93      1.0000 0.17060  0.45660  0.18540  Biso   1.000  H
  H94      1.0000 0.32940  0.95660  0.31460  Biso   1.000  H
  H95      1.0000 0.82940  0.54340  0.81460  Biso   1.000  H
  H96      1.0000 0.67060  0.04340  0.68540  Biso   1.000  H
  C121     1.0000 0.29470  0.40840  0.28700  Biso   1.000  C
  C122     1.0000 0.20530  0.90840  0.21300  Biso   1.000  C
  C123     1.0000 0.70530  0.59160  0.71300  Biso   1.000  C
  C124     1.0000 0.79470  0.09160  0.78700  Biso   1.000  C
  H97      1.0000 0.32370  0.43390  0.34760  Biso   1.000  H
  H98      1.0000 0.17630  0.93390  0.15240  Biso   1.000  H
  H99      1.0000 0.67630  0.56610  0.65240  Biso   1.000  H
  H100     1.0000 0.82370  0.06610  0.84760  Biso   1.000  H
  H101     1.0000 0.32130  0.44560  0.25450  Biso   1.000  H
  H102     1.0000 0.17870  0.94560  0.24550  Biso   1.000  H
  H103     1.0000 0.67870  0.55440  0.74550  Biso   1.000  H
  H104     1.0000 0.82130  0.05440  0.75450  Biso   1.000  H
  C125     1.0000 0.28550  0.27620  0.27590  Biso   1.000  C
  C126     1.0000 0.21450  0.77620  0.22410  Biso   1.000  C
  C127     1.0000 0.71450  0.72380  0.72410  Biso   1.000  C
  C128     1.0000 0.78550  0.22380  0.77590  Biso   1.000  C
  H105     1.0000 0.30140  0.24590  0.23270  Biso   1.000  H
  H106     1.0000 0.19860  0.74590  0.26730  Biso   1.000  H
  H107     1.0000 0.69860  0.75410  0.76730  Biso   1.000  H
  H108     1.0000 0.80140  0.25410  0.73270  Biso   1.000  H
  H109     1.0000 0.31640  0.23270  0.33050  Biso   1.000  H
  H110     1.0000 0.18360  0.73270  0.16950  Biso   1.000  H
  H111     1.0000 0.68360  0.76730  0.66950  Biso   1.000  H
  H112     1.0000 0.81640  0.26730  0.83050  Biso   1.000  H
