data_image0
_cell_length_a       8.609
_cell_length_b       9.9309
_cell_length_c       10.3457
_cell_angle_alpha    93.616
_cell_angle_beta     113.762
_cell_angle_gamma    111.153

_symmetry_space_group_name_H-M    "P 1"
_symmetry_int_tables_number       1

loop_
  _symmetry_equiv_pos_as_xyz
  'x, y, z'

loop_
  _atom_site_label
  _atom_site_occupancy
  _atom_site_fract_x
  _atom_site_fract_y
  _atom_site_fract_z
  _atom_site_thermal_displace_type
  _atom_site_B_iso_or_equiv
  _atom_site_type_symbol
  Cu1      1.0000 0.54725  0.62008  0.90674  Biso   1.000  Cu
  Cu2      1.0000 0.45275  0.37992  0.09326  Biso   1.000  Cu
  O1       1.0000 0.67320  0.50790  0.01920  Biso   1.000  O
  O2       1.0000 0.32680  0.49210  0.98080  Biso   1.000  O
  O3       1.0000 0.93220  0.51340  0.19590  Biso   1.000  O
  O4       1.0000 0.06780  0.48660  0.80410  Biso   1.000  O
  O5       1.0000 0.69350  0.79400  0.06840  Biso   1.000  O
  O6       1.0000 0.30650  0.20600  0.93160  Biso   1.000  O
  O7       1.0000 0.96310  0.92910  0.26360  Biso   1.000  O
  O8       1.0000 0.03690  0.07090  0.73640  Biso   1.000  O
  N1       1.0000 0.41620  0.72150  0.77450  Biso   1.000  N
  N2       1.0000 0.58380  0.27850  0.22550  Biso   1.000  N
  N3       1.0000 0.43150  0.47110  0.71710  Biso   1.000  N
  N4       1.0000 0.56850  0.52890  0.28290  Biso   1.000  N
  C1       1.0000 0.41130  0.84880  0.81770  Biso   1.000  C
  C2       1.0000 0.58870  0.15120  0.18230  Biso   1.000  C
  H1       1.0000 0.48170  0.89880  0.91570  Biso   1.000  H
  H2       1.0000 0.51830  0.10120  0.08430  Biso   1.000  H
  C3       1.0000 0.30530  0.90870  0.72210  Biso   1.000  C
  C4       1.0000 0.69470  0.09130  0.27790  Biso   1.000  C
  H3       1.0000 0.30300  0.99700  0.75490  Biso   1.000  H
  H4       1.0000 0.69700  0.00300  0.24510  Biso   1.000  H
  C5       1.0000 0.20270  0.83460  0.57660  Biso   1.000  C
  C6       1.0000 0.79730  0.16540  0.42340  Biso   1.000  C
  H5       1.0000 0.13130  0.87330  0.50970  Biso   1.000  H
  H6       1.0000 0.86870  0.12670  0.49030  Biso   1.000  H
  C7       1.0000 0.20680  0.70290  0.53100  Biso   1.000  C
  C8       1.0000 0.79320  0.29710  0.46900  Biso   1.000  C
  H7       1.0000 0.13860  0.65180  0.43340  Biso   1.000  H
  H8       1.0000 0.86140  0.34820  0.56660  Biso   1.000  H
  C9       1.0000 0.31400  0.64790  0.63310  Biso   1.000  C
  C10      1.0000 0.68600  0.35210  0.36690  Biso   1.000  C
  C11      1.0000 0.32540  0.50610  0.60000  Biso   1.000  C
  C12      1.0000 0.67460  0.49390  0.40000  Biso   1.000  C
  C13      1.0000 0.23310  0.41180  0.46190  Biso   1.000  C
  C14      1.0000 0.76690  0.58820  0.53810  Biso   1.000  C
  H9       1.0000 0.15980  0.43690  0.38190  Biso   1.000  H
  H10      1.0000 0.84020  0.56310  0.61810  Biso   1.000  H
  C15      1.0000 0.25150  0.28030  0.44490  Biso   1.000  C
  C16      1.0000 0.74850  0.71970  0.55510  Biso   1.000  C
  H11      1.0000 0.19020  0.21550  0.35340  Biso   1.000  H
  H12      1.0000 0.80980  0.78450  0.64660  Biso   1.000  H
  C17      1.0000 0.36160  0.24640  0.56510  Biso   1.000  C
  C18      1.0000 0.63840  0.75360  0.43490  Biso   1.000  C
  H13      1.0000 0.37670  0.15880  0.55570  Biso   1.000  H
  H14      1.0000 0.62330  0.84120  0.44430  Biso   1.000  H
  C19      1.0000 0.44890  0.34320  0.69890  Biso   1.000  C
  C20      1.0000 0.55110  0.65680  0.30110  Biso   1.000  C
  H15      1.0000 0.52270  0.31950  0.77980  Biso   1.000  H
  H16      1.0000 0.47730  0.68050  0.22020  Biso   1.000  H
  C21      1.0000 0.85070  0.57400  0.11120  Biso   1.000  C
  C22      1.0000 0.14930  0.42600  0.88880  Biso   1.000  C
  C23      1.0000 0.86790  0.82850  0.15280  Biso   1.000  C
  C24      1.0000 0.13210  0.17150  0.84720  Biso   1.000  C
  C25      1.0000 0.95250  0.73390  0.10750  Biso   1.000  C
  C26      1.0000 0.04750  0.26610  0.89250  Biso   1.000  C
  C27      1.0000 0.16750  0.80000  0.18170  Biso   1.000  C
  C28      1.0000 0.83250  0.20000  0.81830  Biso   1.000  C
  H17      1.0000 0.22710  0.89190  0.25590  Biso   1.000  H
  H18      1.0000 0.77290  0.10810  0.74410  Biso   1.000  H
  H19      1.0000 0.21790  0.72960  0.21850  Biso   1.000  H
  H20      1.0000 0.78210  0.27040  0.78150  Biso   1.000  H
  C29      1.0000 0.16340  0.82320  0.03570  Biso   1.000  C
  C30      1.0000 0.83660  0.17680  0.96430  Biso   1.000  C
  H21      1.0000 0.21460  0.92740  0.03440  Biso   1.000  H
  H22      1.0000 0.78540  0.07260  0.96560  Biso   1.000  H
  H23      1.0000 0.22180  0.77100  0.00280  Biso   1.000  H
  H24      1.0000 0.77820  0.22900  0.99720  Biso   1.000  H
  C31      1.0000 0.95280  0.74810  0.95660  Biso   1.000  C
  C32      1.0000 0.04720  0.25190  0.04340  Biso   1.000  C
  H25      1.0000 0.90260  0.65330  0.88920  Biso   1.000  H
  H26      1.0000 0.09740  0.34670  0.11080  Biso   1.000  H
  H27      1.0000 0.89580  0.81170  0.91020  Biso   1.000  H
  H28      1.0000 0.10420  0.18830  0.08980  Biso   1.000  H
