data_image0
_cell_length_a       13.7315
_cell_length_b       13.7315
_cell_length_c       8.21004
_cell_angle_alpha    90
_cell_angle_beta     90
_cell_angle_gamma    90

_symmetry_space_group_name_H-M    "P 1"
_symmetry_int_tables_number       1

loop_
  _symmetry_equiv_pos_as_xyz
  'x, y, z'

loop_
  _atom_site_label
  _atom_site_occupancy
  _atom_site_fract_x
  _atom_site_fract_y
  _atom_site_fract_z
  _atom_site_thermal_displace_type
  _atom_site_B_iso_or_equiv
  _atom_site_type_symbol
  N1       1.0000 0.00000  0.14897  0.00000  Biso   1.000  N
  N2       1.0000 0.00000  0.85103  0.00000  Biso   1.000  N
  N3       1.0000 0.85103  0.00000  0.00000  Biso   1.000  N
  N4       1.0000 0.14897  0.00000  0.00000  Biso   1.000  N
  N5       1.0000 0.50000  0.64897  0.50000  Biso   1.000  N
  N6       1.0000 0.50000  0.35103  0.50000  Biso   1.000  N
  N7       1.0000 0.35103  0.50000  0.50000  Biso   1.000  N
  N8       1.0000 0.64897  0.50000  0.50000  Biso   1.000  N
  Cu1      1.0000 0.00000  0.00000  0.00000  Biso   1.000  Cu
  Cu2      1.0000 0.50000  0.50000  0.50000  Biso   1.000  Cu
  Si1      1.0000 0.00000  0.00000  0.50000  Biso   1.000  Si
  Si2      1.0000 0.50000  0.50000  0.00000  Biso   1.000  Si
  F1       1.0000 0.00000  0.00000  0.28300  Biso   1.000  F
  F2       1.0000 0.00000  0.00000  0.71700  Biso   1.000  F
  F3       1.0000 0.50000  0.50000  0.78300  Biso   1.000  F
  F4       1.0000 0.50000  0.50000  0.21700  Biso   1.000  F
  F5       1.0000 0.08780  0.08780  0.50000  Biso   1.000  F
  F6       1.0000 0.91220  0.91220  0.50000  Biso   1.000  F
  F7       1.0000 0.91220  0.08780  0.50000  Biso   1.000  F
  F8       1.0000 0.08780  0.91220  0.50000  Biso   1.000  F
  F9       1.0000 0.58780  0.58780  0.00000  Biso   1.000  F
  F10      1.0000 0.41220  0.41220  0.00000  Biso   1.000  F
  F11      1.0000 0.41220  0.58780  0.00000  Biso   1.000  F
  F12      1.0000 0.58780  0.41220  0.00000  Biso   1.000  F
  C1       1.0000 0.00000  0.35274  0.00000  Biso   1.000  C
  C2       1.0000 0.00000  0.64726  0.00000  Biso   1.000  C
  C3       1.0000 0.64726  0.00000  0.00000  Biso   1.000  C
  C4       1.0000 0.35274  0.00000  0.00000  Biso   1.000  C
  C5       1.0000 0.50000  0.85274  0.50000  Biso   1.000  C
  C6       1.0000 0.50000  0.14726  0.50000  Biso   1.000  C
  C7       1.0000 0.14726  0.50000  0.50000  Biso   1.000  C
  C8       1.0000 0.85274  0.50000  0.50000  Biso   1.000  C
  C9       1.0000 0.02503  0.30009  0.14229  Biso   1.000  C
  C10      1.0000 0.97497  0.69991  0.14229  Biso   1.000  C
  C11      1.0000 0.69991  0.02503  0.14229  Biso   1.000  C
  C12      1.0000 0.30009  0.97497  0.14229  Biso   1.000  C
  C13      1.0000 0.97497  0.30009  0.85771  Biso   1.000  C
  C14      1.0000 0.02503  0.69991  0.85771  Biso   1.000  C
  C15      1.0000 0.30009  0.02503  0.85771  Biso   1.000  C
  C16      1.0000 0.69991  0.97497  0.85771  Biso   1.000  C
  C17      1.0000 0.52503  0.80009  0.64229  Biso   1.000  C
  C18      1.0000 0.47497  0.19991  0.64229  Biso   1.000  C
  C19      1.0000 0.19991  0.52503  0.64229  Biso   1.000  C
  C20      1.0000 0.80009  0.47497  0.64229  Biso   1.000  C
  C21      1.0000 0.47497  0.80009  0.35771  Biso   1.000  C
  C22      1.0000 0.52503  0.19991  0.35771  Biso   1.000  C
  C23      1.0000 0.80009  0.52503  0.35771  Biso   1.000  C
  C24      1.0000 0.19991  0.47497  0.35771  Biso   1.000  C
  C25      1.0000 0.97497  0.69991  0.85771  Biso   1.000  C
  C26      1.0000 0.02503  0.30009  0.85771  Biso   1.000  C
  C27      1.0000 0.30009  0.97497  0.85771  Biso   1.000  C
  C28      1.0000 0.69991  0.02503  0.85771  Biso   1.000  C
  C29      1.0000 0.02503  0.69991  0.14229  Biso   1.000  C
  C30      1.0000 0.97497  0.30009  0.14229  Biso   1.000  C
  C31      1.0000 0.69991  0.97497  0.14229  Biso   1.000  C
  C32      1.0000 0.30009  0.02503  0.14229  Biso   1.000  C
  C33      1.0000 0.47497  0.19991  0.35771  Biso   1.000  C
  C34      1.0000 0.52503  0.80009  0.35771  Biso   1.000  C
  C35      1.0000 0.80009  0.47497  0.35771  Biso   1.000  C
  C36      1.0000 0.19991  0.52503  0.35771  Biso   1.000  C
  C37      1.0000 0.52503  0.19991  0.64229  Biso   1.000  C
  C38      1.0000 0.47497  0.80009  0.64229  Biso   1.000  C
  C39      1.0000 0.19991  0.47497  0.64229  Biso   1.000  C
  C40      1.0000 0.80009  0.52503  0.64229  Biso   1.000  C
  H1       1.0000 0.03655  0.33606  0.25900  Biso   1.000  H
  H2       1.0000 0.96345  0.66394  0.25900  Biso   1.000  H
  H3       1.0000 0.66394  0.03655  0.25900  Biso   1.000  H
  H4       1.0000 0.33606  0.96345  0.25900  Biso   1.000  H
  H5       1.0000 0.96345  0.33606  0.74100  Biso   1.000  H
  H6       1.0000 0.03655  0.66394  0.74100  Biso   1.000  H
  H7       1.0000 0.33606  0.03655  0.74100  Biso   1.000  H
  H8       1.0000 0.66394  0.96345  0.74100  Biso   1.000  H
  H9       1.0000 0.53655  0.83606  0.75900  Biso   1.000  H
  H10      1.0000 0.46345  0.16394  0.75900  Biso   1.000  H
  H11      1.0000 0.16394  0.53655  0.75900  Biso   1.000  H
  H12      1.0000 0.83606  0.46345  0.75900  Biso   1.000  H
  H13      1.0000 0.46345  0.83606  0.24100  Biso   1.000  H
  H14      1.0000 0.53655  0.16394  0.24100  Biso   1.000  H
  H15      1.0000 0.83606  0.53655  0.24100  Biso   1.000  H
  H16      1.0000 0.16394  0.46345  0.24100  Biso   1.000  H
  H17      1.0000 0.96345  0.66394  0.74100  Biso   1.000  H
  H18      1.0000 0.03655  0.33606  0.74100  Biso   1.000  H
  H19      1.0000 0.33606  0.96345  0.74100  Biso   1.000  H
  H20      1.0000 0.66394  0.03655  0.74100  Biso   1.000  H
  H21      1.0000 0.03655  0.66394  0.25900  Biso   1.000  H
  H22      1.0000 0.96345  0.33606  0.25900  Biso   1.000  H
  H23      1.0000 0.66394  0.96345  0.25900  Biso   1.000  H
  H24      1.0000 0.33606  0.03655  0.25900  Biso   1.000  H
  H25      1.0000 0.46345  0.16394  0.24100  Biso   1.000  H
  H26      1.0000 0.53655  0.83606  0.24100  Biso   1.000  H
  H27      1.0000 0.83606  0.46345  0.24100  Biso   1.000  H
  H28      1.0000 0.16394  0.53655  0.24100  Biso   1.000  H
  H29      1.0000 0.53655  0.16394  0.75900  Biso   1.000  H
  H30      1.0000 0.46345  0.83606  0.75900  Biso   1.000  H
  H31      1.0000 0.16394  0.46345  0.75900  Biso   1.000  H
  H32      1.0000 0.83606  0.53655  0.75900  Biso   1.000  H
  C41      1.0000 0.00000  0.45581  0.00000  Biso   1.000  C
  C42      1.0000 0.00000  0.54419  0.00000  Biso   1.000  C
  C43      1.0000 0.54419  0.00000  0.00000  Biso   1.000  C
  C44      1.0000 0.45581  0.00000  0.00000  Biso   1.000  C
  C45      1.0000 0.50000  0.95581  0.50000  Biso   1.000  C
  C46      1.0000 0.50000  0.04419  0.50000  Biso   1.000  C
  C47      1.0000 0.04419  0.50000  0.50000  Biso   1.000  C
  C48      1.0000 0.95581  0.50000  0.50000  Biso   1.000  C
  C49      1.0000 0.02267  0.19911  0.13599  Biso   1.000  C
  C50      1.0000 0.97733  0.80089  0.13599  Biso   1.000  C
  C51      1.0000 0.80089  0.02267  0.13599  Biso   1.000  C
  C52      1.0000 0.19911  0.97733  0.13599  Biso   1.000  C
  C53      1.0000 0.97733  0.19911  0.86401  Biso   1.000  C
  C54      1.0000 0.02267  0.80089  0.86401  Biso   1.000  C
  C55      1.0000 0.19911  0.02267  0.86401  Biso   1.000  C
  C56      1.0000 0.80089  0.97733  0.86401  Biso   1.000  C
  C57      1.0000 0.52267  0.69911  0.63599  Biso   1.000  C
  C58      1.0000 0.47733  0.30089  0.63599  Biso   1.000  C
  C59      1.0000 0.30089  0.52267  0.63599  Biso   1.000  C
  C60      1.0000 0.69911  0.47733  0.63599  Biso   1.000  C
  C61      1.0000 0.47733  0.69911  0.36401  Biso   1.000  C
  C62      1.0000 0.52267  0.30089  0.36401  Biso   1.000  C
  C63      1.0000 0.69911  0.52267  0.36401  Biso   1.000  C
  C64      1.0000 0.30089  0.47733  0.36401  Biso   1.000  C
  C65      1.0000 0.97733  0.80089  0.86401  Biso   1.000  C
  C66      1.0000 0.02267  0.19911  0.86401  Biso   1.000  C
  C67      1.0000 0.19911  0.97733  0.86401  Biso   1.000  C
  C68      1.0000 0.80089  0.02267  0.86401  Biso   1.000  C
  C69      1.0000 0.02267  0.80089  0.13599  Biso   1.000  C
  C70      1.0000 0.97733  0.19911  0.13599  Biso   1.000  C
  C71      1.0000 0.80089  0.97733  0.13599  Biso   1.000  C
  C72      1.0000 0.19911  0.02267  0.13599  Biso   1.000  C
  C73      1.0000 0.47733  0.30089  0.36401  Biso   1.000  C
  C74      1.0000 0.52267  0.69911  0.36401  Biso   1.000  C
  C75      1.0000 0.69911  0.47733  0.36401  Biso   1.000  C
  C76      1.0000 0.30089  0.52267  0.36401  Biso   1.000  C
  C77      1.0000 0.52267  0.30089  0.63599  Biso   1.000  C
  C78      1.0000 0.47733  0.69911  0.63599  Biso   1.000  C
  C79      1.0000 0.30089  0.47733  0.63599  Biso   1.000  C
  C80      1.0000 0.69911  0.52267  0.63599  Biso   1.000  C
  H33      1.0000 0.03526  0.15749  0.24709  Biso   1.000  H
  H34      1.0000 0.96474  0.84251  0.24709  Biso   1.000  H
  H35      1.0000 0.84251  0.03526  0.24709  Biso   1.000  H
  H36      1.0000 0.15749  0.96474  0.24709  Biso   1.000  H
  H37      1.0000 0.96474  0.15749  0.75291  Biso   1.000  H
  H38      1.0000 0.03526  0.84251  0.75291  Biso   1.000  H
  H39      1.0000 0.15749  0.03526  0.75291  Biso   1.000  H
  H40      1.0000 0.84251  0.96474  0.75291  Biso   1.000  H
  H41      1.0000 0.53526  0.65749  0.74709  Biso   1.000  H
  H42      1.0000 0.46474  0.34251  0.74709  Biso   1.000  H
  H43      1.0000 0.34251  0.53526  0.74709  Biso   1.000  H
  H44      1.0000 0.65749  0.46474  0.74709  Biso   1.000  H
  H45      1.0000 0.46474  0.65749  0.25291  Biso   1.000  H
  H46      1.0000 0.53526  0.34251  0.25291  Biso   1.000  H
  H47      1.0000 0.65749  0.53526  0.25291  Biso   1.000  H
  H48      1.0000 0.34251  0.46474  0.25291  Biso   1.000  H
  H49      1.0000 0.96474  0.84251  0.75291  Biso   1.000  H
  H50      1.0000 0.03526  0.15749  0.75291  Biso   1.000  H
  H51      1.0000 0.15749  0.96474  0.75291  Biso   1.000  H
  H52      1.0000 0.84251  0.03526  0.75291  Biso   1.000  H
  H53      1.0000 0.03526  0.84251  0.24709  Biso   1.000  H
  H54      1.0000 0.96474  0.15749  0.24709  Biso   1.000  H
  H55      1.0000 0.84251  0.96474  0.24709  Biso   1.000  H
  H56      1.0000 0.15749  0.03526  0.24709  Biso   1.000  H
  H57      1.0000 0.46474  0.34251  0.25291  Biso   1.000  H
  H58      1.0000 0.53526  0.65749  0.25291  Biso   1.000  H
  H59      1.0000 0.65749  0.46474  0.25291  Biso   1.000  H
  H60      1.0000 0.34251  0.53526  0.25291  Biso   1.000  H
  H61      1.0000 0.53526  0.34251  0.74709  Biso   1.000  H
  H62      1.0000 0.46474  0.65749  0.74709  Biso   1.000  H
  H63      1.0000 0.34251  0.46474  0.74709  Biso   1.000  H
  H64      1.0000 0.65749  0.53526  0.74709  Biso   1.000  H
  S1       1.0000 0.19765  0.22777  0.57535  Biso   1.000  S
  S2       1.0000 0.80235  0.77223  0.57535  Biso   1.000  S
  S3       1.0000 0.77223  0.19765  0.57535  Biso   1.000  S
  S4       1.0000 0.22777  0.80235  0.57535  Biso   1.000  S
  S5       1.0000 0.80235  0.22777  0.42465  Biso   1.000  S
  S6       1.0000 0.19765  0.77223  0.42465  Biso   1.000  S
  S7       1.0000 0.22777  0.19765  0.42465  Biso   1.000  S
  S8       1.0000 0.77223  0.80235  0.42465  Biso   1.000  S
  S9       1.0000 0.69765  0.72777  0.07535  Biso   1.000  S
  S10      1.0000 0.30235  0.27223  0.07535  Biso   1.000  S
  S11      1.0000 0.27223  0.69765  0.07535  Biso   1.000  S
  S12      1.0000 0.72777  0.30235  0.07535  Biso   1.000  S
  S13      1.0000 0.30235  0.72777  0.92465  Biso   1.000  S
  S14      1.0000 0.69765  0.27223  0.92465  Biso   1.000  S
  S15      1.0000 0.72777  0.69765  0.92465  Biso   1.000  S
  S16      1.0000 0.27223  0.30235  0.92465  Biso   1.000  S
  S17      1.0000 0.80235  0.77223  0.42465  Biso   1.000  S
  S18      1.0000 0.19765  0.22777  0.42465  Biso   1.000  S
  S19      1.0000 0.22777  0.80235  0.42465  Biso   1.000  S
  S20      1.0000 0.77223  0.19765  0.42465  Biso   1.000  S
  S21      1.0000 0.19765  0.77223  0.57535  Biso   1.000  S
  S22      1.0000 0.80235  0.22777  0.57535  Biso   1.000  S
  S23      1.0000 0.77223  0.80235  0.57535  Biso   1.000  S
  S24      1.0000 0.22777  0.19765  0.57535  Biso   1.000  S
  S25      1.0000 0.30235  0.27223  0.92465  Biso   1.000  S
  S26      1.0000 0.69765  0.72777  0.92465  Biso   1.000  S
  S27      1.0000 0.72777  0.30235  0.92465  Biso   1.000  S
  S28      1.0000 0.27223  0.69765  0.92465  Biso   1.000  S
  S29      1.0000 0.69765  0.27223  0.07535  Biso   1.000  S
  S30      1.0000 0.30235  0.72777  0.07535  Biso   1.000  S
  S31      1.0000 0.27223  0.30235  0.07535  Biso   1.000  S
  S32      1.0000 0.72777  0.69765  0.07535  Biso   1.000  S
  O1       1.0000 0.26019  0.19711  0.44227  Biso   1.000  O
  O2       1.0000 0.73981  0.80289  0.44227  Biso   1.000  O
  O3       1.0000 0.80289  0.26019  0.44227  Biso   1.000  O
  O4       1.0000 0.19711  0.73981  0.44227  Biso   1.000  O
  O5       1.0000 0.73981  0.19711  0.55773  Biso   1.000  O
  O6       1.0000 0.26019  0.80289  0.55773  Biso   1.000  O
  O7       1.0000 0.19711  0.26019  0.55773  Biso   1.000  O
  O8       1.0000 0.80289  0.73981  0.55773  Biso   1.000  O
  O9       1.0000 0.76019  0.69711  0.94227  Biso   1.000  O
  O10      1.0000 0.23981  0.30289  0.94227  Biso   1.000  O
  O11      1.0000 0.30289  0.76019  0.94227  Biso   1.000  O
  O12      1.0000 0.69711  0.23981  0.94227  Biso   1.000  O
  O13      1.0000 0.23981  0.69711  0.05773  Biso   1.000  O
  O14      1.0000 0.76019  0.30289  0.05773  Biso   1.000  O
  O15      1.0000 0.69711  0.76019  0.05773  Biso   1.000  O
  O16      1.0000 0.30289  0.23981  0.05773  Biso   1.000  O
  O17      1.0000 0.73981  0.80289  0.55773  Biso   1.000  O
  O18      1.0000 0.26019  0.19711  0.55773  Biso   1.000  O
  O19      1.0000 0.19711  0.73981  0.55773  Biso   1.000  O
  O20      1.0000 0.80289  0.26019  0.55773  Biso   1.000  O
  O21      1.0000 0.26019  0.80289  0.44227  Biso   1.000  O
  O22      1.0000 0.73981  0.19711  0.44227  Biso   1.000  O
  O23      1.0000 0.80289  0.73981  0.44227  Biso   1.000  O
  O24      1.0000 0.19711  0.26019  0.44227  Biso   1.000  O
  O25      1.0000 0.23981  0.30289  0.05773  Biso   1.000  O
  O26      1.0000 0.76019  0.69711  0.05773  Biso   1.000  O
  O27      1.0000 0.69711  0.23981  0.05773  Biso   1.000  O
  O28      1.0000 0.30289  0.76019  0.05773  Biso   1.000  O
  O29      1.0000 0.76019  0.30289  0.94227  Biso   1.000  O
  O30      1.0000 0.23981  0.69711  0.94227  Biso   1.000  O
  O31      1.0000 0.30289  0.23981  0.94227  Biso   1.000  O
  O32      1.0000 0.69711  0.76019  0.94227  Biso   1.000  O
  O33      1.0000 0.12431  0.30126  0.53996  Biso   1.000  O
  O34      1.0000 0.87569  0.69874  0.53996  Biso   1.000  O
  O35      1.0000 0.69874  0.12431  0.53996  Biso   1.000  O
  O36      1.0000 0.30126  0.87569  0.53996  Biso   1.000  O
  O37      1.0000 0.87569  0.30126  0.46004  Biso   1.000  O
  O38      1.0000 0.12431  0.69874  0.46004  Biso   1.000  O
  O39      1.0000 0.30126  0.12431  0.46004  Biso   1.000  O
  O40      1.0000 0.69874  0.87569  0.46004  Biso   1.000  O
  O41      1.0000 0.62431  0.80126  0.03996  Biso   1.000  O
  O42      1.0000 0.37569  0.19874  0.03996  Biso   1.000  O
  O43      1.0000 0.19874  0.62431  0.03996  Biso   1.000  O
  O44      1.0000 0.80126  0.37569  0.03996  Biso   1.000  O
  O45      1.0000 0.37569  0.80126  0.96004  Biso   1.000  O
  O46      1.0000 0.62431  0.19874  0.96004  Biso   1.000  O
  O47      1.0000 0.80126  0.62431  0.96004  Biso   1.000  O
  O48      1.0000 0.19874  0.37569  0.96004  Biso   1.000  O
  O49      1.0000 0.87569  0.69874  0.46004  Biso   1.000  O
  O50      1.0000 0.12431  0.30126  0.46004  Biso   1.000  O
  O51      1.0000 0.30126  0.87569  0.46004  Biso   1.000  O
  O52      1.0000 0.69874  0.12431  0.46004  Biso   1.000  O
  O53      1.0000 0.12431  0.69874  0.53996  Biso   1.000  O
  O54      1.0000 0.87569  0.30126  0.53996  Biso   1.000  O
  O55      1.0000 0.69874  0.87569  0.53996  Biso   1.000  O
  O56      1.0000 0.30126  0.12431  0.53996  Biso   1.000  O
  O57      1.0000 0.37569  0.19874  0.96004  Biso   1.000  O
  O58      1.0000 0.62431  0.80126  0.96004  Biso   1.000  O
  O59      1.0000 0.80126  0.37569  0.96004  Biso   1.000  O
  O60      1.0000 0.19874  0.62431  0.96004  Biso   1.000  O
  O61      1.0000 0.62431  0.19874  0.03996  Biso   1.000  O
  O62      1.0000 0.37569  0.80126  0.03996  Biso   1.000  O
  O63      1.0000 0.19874  0.37569  0.03996  Biso   1.000  O
  O64      1.0000 0.80126  0.62431  0.03996  Biso   1.000  O
