data_image0
_cell_length_a       11.1348
_cell_length_b       11.1348
_cell_length_c       8.00474
_cell_angle_alpha    90
_cell_angle_beta     90
_cell_angle_gamma    90

_symmetry_space_group_name_H-M    "P 1"
_symmetry_int_tables_number       1

loop_
  _symmetry_equiv_pos_as_xyz
  'x, y, z'

loop_
  _atom_site_label
  _atom_site_occupancy
  _atom_site_fract_x
  _atom_site_fract_y
  _atom_site_fract_z
  _atom_site_thermal_displace_type
  _atom_site_B_iso_or_equiv
  _atom_site_type_symbol
  N1       1.0000 0.00000  0.18296  0.00000  Biso   1.000  N
  N2       1.0000 0.00000  0.81704  0.00000  Biso   1.000  N
  N3       1.0000 0.81704  0.00000  0.00000  Biso   1.000  N
  N4       1.0000 0.18296  0.00000  0.00000  Biso   1.000  N
  C1       1.0000 0.00000  0.43393  0.00000  Biso   1.000  C
  C2       1.0000 0.00000  0.56607  0.00000  Biso   1.000  C
  C3       1.0000 0.56607  0.00000  0.00000  Biso   1.000  C
  C4       1.0000 0.43393  0.00000  0.00000  Biso   1.000  C
  C5       1.0000 0.03427  0.24303  0.13464  Biso   1.000  C
  C6       1.0000 0.96573  0.75697  0.13464  Biso   1.000  C
  C7       1.0000 0.75697  0.03427  0.13464  Biso   1.000  C
  C8       1.0000 0.24303  0.96573  0.13464  Biso   1.000  C
  C9       1.0000 0.96573  0.24303  0.86536  Biso   1.000  C
  C10      1.0000 0.03427  0.75697  0.86536  Biso   1.000  C
  C11      1.0000 0.24303  0.03427  0.86536  Biso   1.000  C
  C12      1.0000 0.75697  0.96573  0.86536  Biso   1.000  C
  C13      1.0000 0.03491  0.36849  0.13817  Biso   1.000  C
  C14      1.0000 0.96509  0.63151  0.13817  Biso   1.000  C
  C15      1.0000 0.63151  0.03491  0.13817  Biso   1.000  C
  C16      1.0000 0.36849  0.96509  0.13817  Biso   1.000  C
  C17      1.0000 0.96509  0.36849  0.86183  Biso   1.000  C
  C18      1.0000 0.03491  0.63151  0.86183  Biso   1.000  C
  C19      1.0000 0.36849  0.03491  0.86183  Biso   1.000  C
  C20      1.0000 0.63151  0.96509  0.86183  Biso   1.000  C
  H1       1.0000 0.06405  0.19281  0.24102  Biso   1.000  H
  H2       1.0000 0.93595  0.80719  0.24102  Biso   1.000  H
  H3       1.0000 0.80719  0.06405  0.24102  Biso   1.000  H
  H4       1.0000 0.19281  0.93595  0.24102  Biso   1.000  H
  H5       1.0000 0.93595  0.19281  0.75898  Biso   1.000  H
  H6       1.0000 0.06405  0.80719  0.75898  Biso   1.000  H
  H7       1.0000 0.19281  0.06405  0.75898  Biso   1.000  H
  H8       1.0000 0.80719  0.93595  0.75898  Biso   1.000  H
  H9       1.0000 0.06545  0.41511  0.24710  Biso   1.000  H
  H10      1.0000 0.93455  0.58489  0.24710  Biso   1.000  H
  H11      1.0000 0.58489  0.06545  0.24710  Biso   1.000  H
  H12      1.0000 0.41511  0.93455  0.24710  Biso   1.000  H
  H13      1.0000 0.93455  0.41511  0.75290  Biso   1.000  H
  H14      1.0000 0.06545  0.58489  0.75290  Biso   1.000  H
  H15      1.0000 0.41511  0.06545  0.75290  Biso   1.000  H
  H16      1.0000 0.58489  0.93455  0.75290  Biso   1.000  H
  Cu1      1.0000 0.00000  0.00000  0.00000  Biso   1.000  Cu
  Si1      1.0000 0.00000  0.00000  0.50000  Biso   1.000  Si
  F1       1.0000 0.00000  0.00000  0.28490  Biso   1.000  F
  F2       1.0000 0.00000  0.00000  0.71510  Biso   1.000  F
  F3       1.0000 0.10630  0.10630  0.50000  Biso   1.000  F
  F4       1.0000 0.89370  0.89370  0.50000  Biso   1.000  F
  F5       1.0000 0.89370  0.10630  0.50000  Biso   1.000  F
  F6       1.0000 0.10630  0.89370  0.50000  Biso   1.000  F
  S1       1.0000 0.28855  0.30438  0.56560  Biso   1.000  S
  S2       1.0000 0.71145  0.69562  0.56560  Biso   1.000  S
  S3       1.0000 0.69562  0.28855  0.56560  Biso   1.000  S
  S4       1.0000 0.30438  0.71145  0.56560  Biso   1.000  S
  S5       1.0000 0.71145  0.30438  0.43440  Biso   1.000  S
  S6       1.0000 0.28855  0.69562  0.43440  Biso   1.000  S
  S7       1.0000 0.30438  0.28855  0.43440  Biso   1.000  S
  S8       1.0000 0.69562  0.71145  0.43440  Biso   1.000  S
  O1       1.0000 0.40425  0.26932  0.49696  Biso   1.000  O
  O2       1.0000 0.59575  0.73068  0.49696  Biso   1.000  O
  O3       1.0000 0.73068  0.40425  0.49696  Biso   1.000  O
  O4       1.0000 0.26932  0.59575  0.49696  Biso   1.000  O
  O5       1.0000 0.59575  0.26932  0.50304  Biso   1.000  O
  O6       1.0000 0.40425  0.73068  0.50304  Biso   1.000  O
  O7       1.0000 0.26932  0.40425  0.50304  Biso   1.000  O
  O8       1.0000 0.73068  0.59575  0.50304  Biso   1.000  O
  O9       1.0000 0.21666  0.39012  0.47061  Biso   1.000  O
  O10      1.0000 0.78334  0.60988  0.47061  Biso   1.000  O
  O11      1.0000 0.60988  0.21666  0.47061  Biso   1.000  O
  O12      1.0000 0.39012  0.78334  0.47061  Biso   1.000  O
  O13      1.0000 0.78334  0.39012  0.52939  Biso   1.000  O
  O14      1.0000 0.21666  0.60988  0.52939  Biso   1.000  O
  O15      1.0000 0.39012  0.21666  0.52939  Biso   1.000  O
  O16      1.0000 0.60988  0.78334  0.52939  Biso   1.000  O
