data_image0
_cell_length_a       15.186
_cell_length_b       15.758
_cell_length_c       6.939
_cell_angle_alpha    90
_cell_angle_beta     103.224
_cell_angle_gamma    90

_symmetry_space_group_name_H-M    "P 1"
_symmetry_int_tables_number       1

loop_
  _symmetry_equiv_pos_as_xyz
  'x, y, z'

loop_
  _atom_site_label
  _atom_site_occupancy
  _atom_site_fract_x
  _atom_site_fract_y
  _atom_site_fract_z
  _atom_site_thermal_displace_type
  _atom_site_B_iso_or_equiv
  _atom_site_type_symbol
  Cu1      1.0000 0.50000  0.18168  0.25000  Biso   1.000  Cu
  Cu2      1.0000 0.00000  0.68168  0.25000  Biso   1.000  Cu
  Cu3      1.0000 0.50000  0.81832  0.75000  Biso   1.000  Cu
  Cu4      1.0000 0.00000  0.31832  0.75000  Biso   1.000  Cu
  S1       1.0000 0.50000  0.12065  0.75000  Biso   1.000  S
  S2       1.0000 0.00000  0.62065  0.75000  Biso   1.000  S
  S3       1.0000 0.50000  0.87935  0.25000  Biso   1.000  S
  S4       1.0000 0.00000  0.37935  0.25000  Biso   1.000  S
  O1       1.0000 0.53170  0.17380  0.60630  Biso   1.000  O
  O2       1.0000 0.46830  0.17380  0.89370  Biso   1.000  O
  O3       1.0000 0.03170  0.67380  0.60630  Biso   1.000  O
  O4       1.0000 0.96830  0.67380  0.89370  Biso   1.000  O
  O5       1.0000 0.46830  0.82620  0.39370  Biso   1.000  O
  O6       1.0000 0.53170  0.82620  0.10630  Biso   1.000  O
  O7       1.0000 0.96830  0.32620  0.39370  Biso   1.000  O
  O8       1.0000 0.03170  0.32620  0.10630  Biso   1.000  O
  O9       1.0000 0.57440  0.06660  0.86030  Biso   1.000  O
  O10      1.0000 0.42560  0.06660  0.63970  Biso   1.000  O
  O11      1.0000 0.07440  0.56660  0.86030  Biso   1.000  O
  O12      1.0000 0.92560  0.56660  0.63970  Biso   1.000  O
  O13      1.0000 0.42560  0.93340  0.13970  Biso   1.000  O
  O14      1.0000 0.57440  0.93340  0.36030  Biso   1.000  O
  O15      1.0000 0.92560  0.43340  0.13970  Biso   1.000  O
  O16      1.0000 0.07440  0.43340  0.36030  Biso   1.000  O
  O17      1.0000 0.40700  0.09350  0.25570  Biso   1.000  O
  O18      1.0000 0.59300  0.09350  0.24430  Biso   1.000  O
  O19      1.0000 0.90700  0.59350  0.25570  Biso   1.000  O
  O20      1.0000 0.09300  0.59350  0.24430  Biso   1.000  O
  O21      1.0000 0.59300  0.90650  0.74430  Biso   1.000  O
  O22      1.0000 0.40700  0.90650  0.75570  Biso   1.000  O
  O23      1.0000 0.09300  0.40650  0.74430  Biso   1.000  O
  O24      1.0000 0.90700  0.40650  0.75570  Biso   1.000  O
  H1       1.0000 0.43240  0.04970  0.31490  Biso   1.000  H
  H2       1.0000 0.56760  0.04970  0.18510  Biso   1.000  H
  H3       1.0000 0.93240  0.54970  0.31490  Biso   1.000  H
  H4       1.0000 0.06760  0.54970  0.18510  Biso   1.000  H
  H5       1.0000 0.56760  0.95030  0.68510  Biso   1.000  H
  H6       1.0000 0.43240  0.95030  0.81490  Biso   1.000  H
  H7       1.0000 0.06760  0.45030  0.68510  Biso   1.000  H
  H8       1.0000 0.93240  0.45030  0.81490  Biso   1.000  H
  H9       1.0000 0.36880  0.11270  0.31720  Biso   1.000  H
  H10      1.0000 0.63120  0.11270  0.18280  Biso   1.000  H
  H11      1.0000 0.86880  0.61270  0.31720  Biso   1.000  H
  H12      1.0000 0.13120  0.61270  0.18280  Biso   1.000  H
  H13      1.0000 0.63120  0.88730  0.68280  Biso   1.000  H
  H14      1.0000 0.36880  0.88730  0.81720  Biso   1.000  H
  H15      1.0000 0.13120  0.38730  0.68280  Biso   1.000  H
  H16      1.0000 0.86880  0.38730  0.81720  Biso   1.000  H
  N1       1.0000 0.40320  0.27000  0.23660  Biso   1.000  N
  N2       1.0000 0.59680  0.27000  0.26340  Biso   1.000  N
  N3       1.0000 0.90320  0.77000  0.23660  Biso   1.000  N
  N4       1.0000 0.09680  0.77000  0.26340  Biso   1.000  N
  N5       1.0000 0.59680  0.73000  0.76340  Biso   1.000  N
  N6       1.0000 0.40320  0.73000  0.73660  Biso   1.000  N
  N7       1.0000 0.09680  0.23000  0.76340  Biso   1.000  N
  N8       1.0000 0.90320  0.23000  0.73660  Biso   1.000  N
  C1       1.0000 0.36800  0.30830  0.06780  Biso   1.000  C
  C2       1.0000 0.63200  0.30830  0.43220  Biso   1.000  C
  C3       1.0000 0.86800  0.80830  0.06780  Biso   1.000  C
  C4       1.0000 0.13200  0.80830  0.43220  Biso   1.000  C
  C5       1.0000 0.63200  0.69170  0.93220  Biso   1.000  C
  C6       1.0000 0.36800  0.69170  0.56780  Biso   1.000  C
  C7       1.0000 0.13200  0.19170  0.93220  Biso   1.000  C
  C8       1.0000 0.86800  0.19170  0.56780  Biso   1.000  C
  H17      1.0000 0.39300  0.29640  0.96020  Biso   1.000  H
  H18      1.0000 0.60700  0.29640  0.53980  Biso   1.000  H
  H19      1.0000 0.89300  0.79640  0.96020  Biso   1.000  H
  H20      1.0000 0.10700  0.79640  0.53980  Biso   1.000  H
  H21      1.0000 0.60700  0.70360  0.03980  Biso   1.000  H
  H22      1.0000 0.39300  0.70360  0.46020  Biso   1.000  H
  H23      1.0000 0.10700  0.20360  0.03980  Biso   1.000  H
  H24      1.0000 0.89300  0.20360  0.46020  Biso   1.000  H
  C9       1.0000 0.29700  0.36470  0.03930  Biso   1.000  C
  C10      1.0000 0.70300  0.36470  0.46070  Biso   1.000  C
  C11      1.0000 0.79700  0.86470  0.03930  Biso   1.000  C
  C12      1.0000 0.20300  0.86470  0.46070  Biso   1.000  C
  C13      1.0000 0.70300  0.63530  0.96070  Biso   1.000  C
  C14      1.0000 0.29700  0.63530  0.53930  Biso   1.000  C
  C15      1.0000 0.20300  0.13530  0.96070  Biso   1.000  C
  C16      1.0000 0.79700  0.13530  0.53930  Biso   1.000  C
  H25      1.0000 0.27430  0.39030  0.91740  Biso   1.000  H
  H26      1.0000 0.72570  0.39030  0.58260  Biso   1.000  H
  H27      1.0000 0.77430  0.89030  0.91740  Biso   1.000  H
  H28      1.0000 0.22570  0.89030  0.58260  Biso   1.000  H
  H29      1.0000 0.72570  0.60970  0.08260  Biso   1.000  H
  H30      1.0000 0.27430  0.60970  0.41740  Biso   1.000  H
  H31      1.0000 0.22570  0.10970  0.08260  Biso   1.000  H
  H32      1.0000 0.77430  0.10970  0.41740  Biso   1.000  H
  C17      1.0000 0.26110  0.38120  0.20200  Biso   1.000  C
  C18      1.0000 0.73890  0.38120  0.29800  Biso   1.000  C
  C19      1.0000 0.76110  0.88120  0.20200  Biso   1.000  C
  C20      1.0000 0.23890  0.88120  0.29800  Biso   1.000  C
  C21      1.0000 0.73890  0.61880  0.79800  Biso   1.000  C
  C22      1.0000 0.26110  0.61880  0.70200  Biso   1.000  C
  C23      1.0000 0.23890  0.11880  0.79800  Biso   1.000  C
  C24      1.0000 0.76110  0.11880  0.70200  Biso   1.000  C
  H33      1.0000 0.21340  0.41930  0.19140  Biso   1.000  H
  H34      1.0000 0.78660  0.41930  0.30860  Biso   1.000  H
  H35      1.0000 0.71340  0.91930  0.19140  Biso   1.000  H
  H36      1.0000 0.28660  0.91930  0.30860  Biso   1.000  H
  H37      1.0000 0.78660  0.58070  0.80860  Biso   1.000  H
  H38      1.0000 0.21340  0.58070  0.69140  Biso   1.000  H
  H39      1.0000 0.28660  0.08070  0.80860  Biso   1.000  H
  H40      1.0000 0.71340  0.08070  0.69140  Biso   1.000  H
  C25      1.0000 0.29420  0.34340  0.37200  Biso   1.000  C
  C26      1.0000 0.70580  0.34340  0.12800  Biso   1.000  C
  C27      1.0000 0.79420  0.84340  0.37200  Biso   1.000  C
  C28      1.0000 0.20580  0.84340  0.12800  Biso   1.000  C
  C29      1.0000 0.70580  0.65660  0.62800  Biso   1.000  C
  C30      1.0000 0.29420  0.65660  0.87200  Biso   1.000  C
  C31      1.0000 0.20580  0.15660  0.62800  Biso   1.000  C
  C32      1.0000 0.79420  0.15660  0.87200  Biso   1.000  C
  H41      1.0000 0.26990  0.35420  0.48120  Biso   1.000  H
  H42      1.0000 0.73010  0.35420  0.01880  Biso   1.000  H
  H43      1.0000 0.76990  0.85420  0.48120  Biso   1.000  H
  H44      1.0000 0.23010  0.85420  0.01880  Biso   1.000  H
  H45      1.0000 0.73010  0.64580  0.51880  Biso   1.000  H
  H46      1.0000 0.26990  0.64580  0.98120  Biso   1.000  H
  H47      1.0000 0.23010  0.14580  0.51880  Biso   1.000  H
  H48      1.0000 0.76990  0.14580  0.98120  Biso   1.000  H
  C33      1.0000 0.36560  0.28730  0.38690  Biso   1.000  C
  C34      1.0000 0.63440  0.28730  0.11310  Biso   1.000  C
  C35      1.0000 0.86560  0.78730  0.38690  Biso   1.000  C
  C36      1.0000 0.13440  0.78730  0.11310  Biso   1.000  C
  C37      1.0000 0.63440  0.71270  0.61310  Biso   1.000  C
  C38      1.0000 0.36560  0.71270  0.88690  Biso   1.000  C
  C39      1.0000 0.13440  0.21270  0.61310  Biso   1.000  C
  C40      1.0000 0.86560  0.21270  0.88690  Biso   1.000  C
  H49      1.0000 0.38820  0.26050  0.50760  Biso   1.000  H
  H50      1.0000 0.61180  0.26050  0.99240  Biso   1.000  H
  H51      1.0000 0.88820  0.76050  0.50760  Biso   1.000  H
  H52      1.0000 0.11180  0.76050  0.99240  Biso   1.000  H
  H53      1.0000 0.61180  0.73950  0.49240  Biso   1.000  H
  H54      1.0000 0.38820  0.73950  0.00760  Biso   1.000  H
  H55      1.0000 0.11180  0.23950  0.49240  Biso   1.000  H
  H56      1.0000 0.88820  0.23950  0.00760  Biso   1.000  H
