data_image0
_cell_length_a       12.0986
_cell_length_b       12.7138
_cell_length_c       13.3209
_cell_angle_alpha    77.309
_cell_angle_beta     81.44
_cell_angle_gamma    74.732

_symmetry_space_group_name_H-M    "P 1"
_symmetry_int_tables_number       1

loop_
  _symmetry_equiv_pos_as_xyz
  'x, y, z'

loop_
  _atom_site_label
  _atom_site_occupancy
  _atom_site_fract_x
  _atom_site_fract_y
  _atom_site_fract_z
  _atom_site_thermal_displace_type
  _atom_site_B_iso_or_equiv
  _atom_site_type_symbol
  Cu1      1.0000 0.07788  0.67031  0.45341  Biso   1.000  Cu
  Cu2      1.0000 0.97143  0.31363  0.04280  Biso   1.000  Cu
  O1       1.0000 0.84390  0.49950  0.40930  Biso   1.000  O
  O2       1.0000 0.18720  0.49420  0.21500  Biso   1.000  O
  O3       1.0000 0.84630  0.51210  0.77180  Biso   1.000  O
  O4       1.0000 0.20050  0.48630  0.86130  Biso   1.000  O
  O5       1.0000 0.83210  0.26290  0.11370  Biso   1.000  O
  N1       1.0000 0.94750  0.60240  0.45350  Biso   1.000  N
  N2       1.0000 0.01550  0.50710  0.31130  Biso   1.000  N
  N3       1.0000 0.16360  0.58310  0.34610  Biso   1.000  N
  N4       1.0000 0.02260  0.71510  0.59310  Biso   1.000  N
  N5       1.0000 0.99490  0.82280  0.59860  Biso   1.000  N
  N6       1.0000 0.98320  0.82580  0.69780  Biso   1.000  N
  N7       1.0000 0.00500  0.82910  0.34970  Biso   1.000  N
  N8       1.0000 0.21650  0.72600  0.46140  Biso   1.000  N
  N9       1.0000 0.10410  0.37750  0.97720  Biso   1.000  N
  N10      1.0000 0.02920  0.47850  0.81710  Biso   1.000  N
  N11      1.0000 0.88240  0.40710  0.92970  Biso   1.000  N
  N12      1.0000 0.03410  0.26720  0.18410  Biso   1.000  N
  N13      1.0000 0.07780  0.16300  0.22370  Biso   1.000  N
  N14      1.0000 0.10490  0.15910  0.31560  Biso   1.000  N
  N15      1.0000 0.03660  0.15870  0.97960  Biso   1.000  N
  C1       1.0000 0.83780  0.62080  0.52260  Biso   1.000  C
  C2       1.0000 0.78480  0.52920  0.50740  Biso   1.000  C
  C3       1.0000 0.93840  0.54050  0.39440  Biso   1.000  C
  C4       1.0000 0.12170  0.53090  0.29500  Biso   1.000  C
  C5       1.0000 0.28940  0.53740  0.20130  Biso   1.000  C
  C6       1.0000 0.28830  0.57500  0.30570  Biso   1.000  C
  C7       1.0000 0.76540  0.74180  0.49280  Biso   1.000  C
  C8       1.0000 0.66110  0.76020  0.57750  Biso   1.000  C
  C9       1.0000 0.72620  0.76650  0.38330  Biso   1.000  C
  C10      1.0000 0.36860  0.49430  0.38100  Biso   1.000  C
  C11      1.0000 0.35700  0.37910  0.40650  Biso   1.000  C
  C12      1.0000 0.49440  0.49870  0.33710  Biso   1.000  C
  C13      1.0000 0.00010  0.72400  0.75860  Biso   1.000  C
  C14      1.0000 0.02620  0.65240  0.69120  Biso   1.000  C
  C15      1.0000 0.95120  0.93760  0.73160  Biso   1.000  C
  C16      1.0000 0.82330  0.98620  0.74170  Biso   1.000  C
  C17      1.0000 0.74170  0.94100  0.71450  Biso   1.000  C
  C18      1.0000 0.62380  0.99520  0.72280  Biso   1.000  C
  C19      1.0000 0.59040  0.09480  0.75240  Biso   1.000  C
  C20      1.0000 0.66810  0.14270  0.77850  Biso   1.000  C
  C21      1.0000 0.78490  0.08780  0.77480  Biso   1.000  C
  C22      1.0000 0.06190  0.52770  0.70840  Biso   1.000  C
  C23      1.0000 0.91890  0.46250  0.84360  Biso   1.000  C
  C24      1.0000 0.74060  0.47250  0.81140  Biso   1.000  C
  C25      1.0000 0.75430  0.42800  0.92560  Biso   1.000  C
  C26      1.0000 0.68780  0.50790  0.99780  Biso   1.000  C
  C27      1.0000 0.70630  0.62800  0.96270  Biso   1.000  C
  C28      1.0000 0.55890  0.50860  0.00640  Biso   1.000  C
  C29      1.0000 0.10660  0.44530  0.88830  Biso   1.000  C
  C30      1.0000 0.26550  0.45490  0.95050  Biso   1.000  C
  C31      1.0000 0.21640  0.36040  0.02080  Biso   1.000  C
  C32      1.0000 0.29120  0.24430  0.01630  Biso   1.000  C
  C33      1.0000 0.32020  0.21780  0.90620  Biso   1.000  C
  C34      1.0000 0.40020  0.22500  0.06840  Biso   1.000  C
  C35      1.0000 0.97930  0.45580  0.23800  Biso   1.000  C
  C36      1.0000 0.02800  0.33040  0.25820  Biso   1.000  C
  C37      1.0000 0.07580  0.26250  0.34250  Biso   1.000  C
  C38      1.0000 0.16550  0.05210  0.37910  Biso   1.000  C
  C39      1.0000 0.28160  0.06040  0.39860  Biso   1.000  C
  C40      1.0000 0.30620  0.07240  0.49240  Biso   1.000  C
  C41      1.0000 0.42260  0.07840  0.50060  Biso   1.000  C
  C42      1.0000 0.50470  0.07160  0.42730  Biso   1.000  C
  C43      1.0000 0.48090  0.05430  0.33780  Biso   1.000  C
  C44      1.0000 0.37530  0.05030  0.31760  Biso   1.000  C
  C45      1.0000 0.00140  0.88220  0.26820  Biso   1.000  C
  C46      1.0000 0.99560  0.95080  0.16860  Biso   1.000  C
  C47      1.0000 0.30080  0.75150  0.46180  Biso   1.000  C
  C48      1.0000 0.40810  0.77460  0.46240  Biso   1.000  C
  C49      1.0000 0.09740  0.08670  0.94370  Biso   1.000  C
  C50      1.0000 0.17170  0.99390  0.89310  Biso   1.000  C
  H1       1.0000 0.85580  0.60680  0.59600  Biso   1.000  H
  H2       1.0000 0.79880  0.46450  0.56490  Biso   1.000  H
  H3       1.0000 0.70080  0.55690  0.50290  Biso   1.000  H
  H4       1.0000 0.35970  0.47910  0.18880  Biso   1.000  H
  H5       1.0000 0.28540  0.60090  0.14250  Biso   1.000  H
  H6       1.0000 0.30510  0.65010  0.29180  Biso   1.000  H
  H7       1.0000 0.81430  0.79360  0.49460  Biso   1.000  H
  H8       1.0000 0.61760  0.70380  0.58320  Biso   1.000  H
  H9       1.0000 0.61080  0.83420  0.55810  Biso   1.000  H
  H10      1.0000 0.68960  0.75400  0.64410  Biso   1.000  H
  H11      1.0000 0.78400  0.72270  0.33920  Biso   1.000  H
  H12      1.0000 0.71730  0.84570  0.35400  Biso   1.000  H
  H13      1.0000 0.65240  0.74690  0.38700  Biso   1.000  H
  H14      1.0000 0.35290  0.52310  0.44710  Biso   1.000  H
  H15      1.0000 0.27650  0.37810  0.42970  Biso   1.000  H
  H16      1.0000 0.40550  0.33720  0.46180  Biso   1.000  H
  H17      1.0000 0.38140  0.34500  0.34510  Biso   1.000  H
  H18      1.0000 0.54710  0.45680  0.38910  Biso   1.000  H
  H19      1.0000 0.50050  0.57610  0.31980  Biso   1.000  H
  H20      1.0000 0.51490  0.46590  0.27470  Biso   1.000  H
  H21      1.0000 0.99500  0.70620  0.83190  Biso   1.000  H
  H22      1.0000 0.98110  0.92860  0.79910  Biso   1.000  H
  H23      1.0000 0.98870  0.99000  0.68070  Biso   1.000  H
  H24      1.0000 0.76560  0.87290  0.69010  Biso   1.000  H
  H25      1.0000 0.56820  0.96190  0.70760  Biso   1.000  H
  H26      1.0000 0.51130  0.13230  0.75520  Biso   1.000  H
  H27      1.0000 0.64300  0.21290  0.79900  Biso   1.000  H
  H28      1.0000 0.83850  0.11990  0.79510  Biso   1.000  H
  H29      1.0000 0.02440  0.50080  0.66120  Biso   1.000  H
  H30      1.0000 0.14630  0.50350  0.69260  Biso   1.000  H
  H31      1.0000 0.73530  0.41320  0.77630  Biso   1.000  H
  H32      1.0000 0.67100  0.53410  0.80160  Biso   1.000  H
  H33      1.0000 0.73070  0.35600  0.94700  Biso   1.000  H
  H34      1.0000 0.71520  0.47760  0.06800  Biso   1.000  H
  H35      1.0000 0.78760  0.62610  0.96380  Biso   1.000  H
  H36      1.0000 0.65900  0.67520  0.00990  Biso   1.000  H
  H37      1.0000 0.68390  0.65810  0.89240  Biso   1.000  H
  H38      1.0000 0.53340  0.52500  0.93700  Biso   1.000  H
  H39      1.0000 0.51400  0.56550  0.04520  Biso   1.000  H
  H40      1.0000 0.54760  0.43570  0.04240  Biso   1.000  H
  H41      1.0000 0.34870  0.42850  0.93020  Biso   1.000  H
  H42      1.0000 0.25410  0.51830  0.98590  Biso   1.000  H
  H43      1.0000 0.20190  0.37230  0.09390  Biso   1.000  H
  H44      1.0000 0.24670  0.19040  0.05750  Biso   1.000  H
  H45      1.0000 0.37770  0.25720  0.86800  Biso   1.000  H
  H46      1.0000 0.25020  0.24190  0.87010  Biso   1.000  H
  H47      1.0000 0.35090  0.13770  0.91060  Biso   1.000  H
  H48      1.0000 0.44760  0.27470  0.02870  Biso   1.000  H
  H49      1.0000 0.44360  0.14770  0.07140  Biso   1.000  H
  H50      1.0000 0.37980  0.24020  0.13870  Biso   1.000  H
  H51      1.0000 0.00600  0.48780  0.16680  Biso   1.000  H
  H52      1.0000 0.89420  0.47210  0.24390  Biso   1.000  H
  H53      1.0000 0.08670  0.28160  0.40480  Biso   1.000  H
  H54      1.0000 0.11900  0.03600  0.44580  Biso   1.000  H
  H55      1.0000 0.17460  0.99040  0.34190  Biso   1.000  H
  H56      1.0000 0.24910  0.07660  0.54970  Biso   1.000  H
  H57      1.0000 0.43940  0.08800  0.56500  Biso   1.000  H
  H58      1.0000 0.57880  0.07850  0.43600  Biso   1.000  H
  H59      1.0000 0.54240  0.04400  0.28470  Biso   1.000  H
  H60      1.0000 0.36330  0.04110  0.25140  Biso   1.000  H
  H61      1.0000 0.94120  0.02220  0.17330  Biso   1.000  H
  H62      1.0000 0.96960  0.91430  0.12200  Biso   1.000  H
  H63      1.0000 0.07200  0.96310  0.14170  Biso   1.000  H
  H64      1.0000 0.45380  0.71590  0.51120  Biso   1.000  H
  H65      1.0000 0.39630  0.84610  0.48360  Biso   1.000  H
  H66      1.0000 0.44900  0.77770  0.39290  Biso   1.000  H
  H67      1.0000 0.14660  0.92530  0.92250  Biso   1.000  H
  H68      1.0000 0.25210  0.98340  0.90530  Biso   1.000  H
  H69      1.0000 0.16460  0.01270  0.81860  Biso   1.000  H
  N16      1.0000 0.23640  0.85140  0.68160  Biso   1.000  N
  C51      1.0000 0.28660  0.79470  0.74520  Biso   1.000  C
  C52      1.0000 0.35730  0.72650  0.82560  Biso   1.000  C
  H70      1.0000 0.30940  0.71800  0.89160  Biso   1.000  H
  H71      1.0000 0.41810  0.76220  0.83150  Biso   1.000  H
  H72      1.0000 0.39230  0.65330  0.80790  Biso   1.000  H
  N17      1.0000 0.73860  0.10800  0.05300  Biso   1.000  N
  C53      1.0000 0.70880  0.03240  0.04320  Biso   1.000  C
  C54      1.0000 0.67230  0.93780  0.02350  Biso   1.000  C
  H73      1.0000 0.63960  0.95840  0.95690  Biso   1.000  H
  H74      1.0000 0.61400  0.91770  0.07870  Biso   1.000  H
  H75      1.0000 0.73890  0.87440  0.02190  Biso   1.000  H
  N18      1.0000 0.78960  0.23330  0.32390  Biso   1.000  N
  C55      1.0000 0.76740  0.23310  0.40900  Biso   1.000  C
  C56      1.0000 0.74430  0.23050  0.52140  Biso   1.000  C
  H76      1.0000 0.81580  0.22610  0.55010  Biso   1.000  H
  H77      1.0000 0.71430  0.16550  0.55470  Biso   1.000  H
  H78      1.0000 0.68730  0.29820  0.53420  Biso   1.000  H
  Cl1      1.0000 0.46790  0.46627  0.67179  Biso   1.000  Cl
  O6       1.0000 0.46800  0.37580  0.64250  Biso   1.000  O
  O7       1.0000 0.53960  0.52100  0.61830  Biso   1.000  O
  O8       1.0000 0.35740  0.53280  0.65250  Biso   1.000  O
  O9       1.0000 0.49280  0.43880  0.77430  Biso   1.000  O
  Cl2      1.0000 0.37950  0.84548  0.13720  Biso   1.000  Cl
  O10      1.0000 0.37850  0.95270  0.07530  Biso   1.000  O
  O11      1.0000 0.48300  0.80660  0.18830  Biso   1.000  O
  O12      1.0000 0.28490  0.85180  0.21460  Biso   1.000  O
  O13      1.0000 0.37530  0.77110  0.07740  Biso   1.000  O
  Cl3      1.0000 0.00770  0.72004  0.04311  Biso   1.000  Cl
  O14      1.0000 0.94850  0.82030  0.97980  Biso   1.000  O
  O15      1.0000 0.12250  0.72650  0.03770  Biso   1.000  O
  O16      1.0000 0.96540  0.71370  0.14410  Biso   1.000  O
  O17      1.0000 0.00300  0.62260  0.00650  Biso   1.000  O
  Cl4      1.0000 0.03410  0.25968  0.64131  Biso   1.000  Cl
  O18      1.0000 0.05380  0.34960  0.55930  Biso   1.000  O
  O19      1.0000 0.02620  0.16970  0.59850  Biso   1.000  O
  O20      1.0000 0.92820  0.29950  0.70130  Biso   1.000  O
  O21      1.0000 0.11450  0.23090  0.70780  Biso   1.000  O
