data_image0
_cell_length_a       7.2105
_cell_length_b       7.9475
_cell_length_c       9.424
_cell_angle_alpha    99.74
_cell_angle_beta     110.095
_cell_angle_gamma    109.258

_symmetry_space_group_name_H-M    "P 1"
_symmetry_int_tables_number       1

loop_
  _symmetry_equiv_pos_as_xyz
  'x, y, z'

loop_
  _atom_site_label
  _atom_site_occupancy
  _atom_site_fract_x
  _atom_site_fract_y
  _atom_site_fract_z
  _atom_site_thermal_displace_type
  _atom_site_B_iso_or_equiv
  _atom_site_type_symbol
  Cu1      1.0000 0.00000  0.00000  0.00000  Biso   1.000  Cu
  N1       1.0000 0.16782  0.91134  0.17335  Biso   1.000  N
  N2       1.0000 0.83218  0.08866  0.82665  Biso   1.000  N
  H1       1.0000 0.22800  0.86600  0.13600  Biso   1.000  H
  H2       1.0000 0.77200  0.13400  0.86400  Biso   1.000  H
  H3       1.0000 0.07300  0.82800  0.17800  Biso   1.000  H
  H4       1.0000 0.92700  0.17200  0.82200  Biso   1.000  H
  C1       1.0000 0.31660  0.05706  0.32116  Biso   1.000  C
  C2       1.0000 0.68340  0.94294  0.67884  Biso   1.000  C
  C3       1.0000 0.23950  0.10998  0.43036  Biso   1.000  C
  C4       1.0000 0.76050  0.89002  0.56964  Biso   1.000  C
  H5       1.0000 0.09200  0.04260  0.40970  Biso   1.000  H
  H6       1.0000 0.90800  0.95740  0.59030  Biso   1.000  H
  C5       1.0000 0.37780  0.26095  0.56911  Biso   1.000  C
  C6       1.0000 0.62220  0.73905  0.43089  Biso   1.000  C
  H7       1.0000 0.32580  0.29720  0.64380  Biso   1.000  H
  H8       1.0000 0.67420  0.70280  0.35620  Biso   1.000  H
  C7       1.0000 0.59490  0.35931  0.59789  Biso   1.000  C
  C8       1.0000 0.40510  0.64069  0.40211  Biso   1.000  C
  C9       1.0000 0.67300  0.30470  0.49017  Biso   1.000  C
  C10      1.0000 0.32700  0.69530  0.50983  Biso   1.000  C
  H9       1.0000 0.82100  0.37070  0.51140  Biso   1.000  H
  H10      1.0000 0.17900  0.62930  0.48860  Biso   1.000  H
  C11      1.0000 0.53380  0.15349  0.35157  Biso   1.000  C
  C12      1.0000 0.46620  0.84651  0.64843  Biso   1.000  C
  H11      1.0000 0.58630  0.11590  0.27770  Biso   1.000  H
  H12      1.0000 0.41370  0.88410  0.72230  Biso   1.000  H
  C13      1.0000 0.73510  0.52538  0.73573  Biso   1.000  C
  C14      1.0000 0.26490  0.47462  0.26427  Biso   1.000  C
  N3       1.0000 0.84570  0.66131  0.84146  Biso   1.000  N
  N4       1.0000 0.15430  0.33869  0.15854  Biso   1.000  N
  C15      1.0000 0.41650  0.17864  0.96288  Biso   1.000  C
  C16      1.0000 0.58350  0.82136  0.03712  Biso   1.000  C
  N5       1.0000 0.24683  0.07078  0.94154  Biso   1.000  N
  N6       1.0000 0.75317  0.92922  0.05846  Biso   1.000  N
  C17      1.0000 0.72780  0.44268  0.09741  Biso   1.000  C
  C18      1.0000 0.27220  0.55732  0.90259  Biso   1.000  C
  N7       1.0000 0.60480  0.28578  0.97425  Biso   1.000  N
  N8       1.0000 0.39520  0.71422  0.02575  Biso   1.000  N
  N9       1.0000 0.84570  0.58180  0.20052  Biso   1.000  N
  N10      1.0000 0.15430  0.41820  0.79948  Biso   1.000  N
