data_image0
_cell_length_a       7.1128
_cell_length_b       7.173
_cell_length_c       9.8358
_cell_angle_alpha    89.511
_cell_angle_beta     85.069
_cell_angle_gamma    71.3

_symmetry_space_group_name_H-M    "P 1"
_symmetry_int_tables_number       1

loop_
  _symmetry_equiv_pos_as_xyz
  'x, y, z'

loop_
  _atom_site_label
  _atom_site_occupancy
  _atom_site_fract_x
  _atom_site_fract_y
  _atom_site_fract_z
  _atom_site_thermal_displace_type
  _atom_site_B_iso_or_equiv
  _atom_site_type_symbol
  Cu1      1.0000 0.00000  0.00000  0.00000  Biso   1.000  Cu
  N1       1.0000 0.24840  0.91300  0.87940  Biso   1.000  N
  N2       1.0000 0.75160  0.08700  0.12060  Biso   1.000  N
  C1       1.0000 0.40930  0.87340  0.83330  Biso   1.000  C
  C2       1.0000 0.59070  0.12660  0.16670  Biso   1.000  C
  N3       1.0000 0.58680  0.82360  0.77020  Biso   1.000  N
  N4       1.0000 0.41320  0.17640  0.22980  Biso   1.000  N
  C3       1.0000 0.72780  0.85690  0.83000  Biso   1.000  C
  C4       1.0000 0.27220  0.14310  0.17000  Biso   1.000  C
  N5       1.0000 0.86170  0.88320  0.87430  Biso   1.000  N
  N6       1.0000 0.13830  0.11680  0.12570  Biso   1.000  N
  N7       1.0000 0.90290  0.33200  0.88020  Biso   1.000  N
  N8       1.0000 0.09710  0.66800  0.11980  Biso   1.000  N
  C5       1.0000 0.87450  0.31430  0.74280  Biso   1.000  C
  C6       1.0000 0.12550  0.68570  0.25720  Biso   1.000  C
  C7       1.0000 0.03390  0.28040  0.64380  Biso   1.000  C
  C8       1.0000 0.96610  0.71960  0.35620  Biso   1.000  C
  C9       1.0000 0.00850  0.25470  0.50800  Biso   1.000  C
  C10      1.0000 0.99150  0.74530  0.49200  Biso   1.000  C
  C11      1.0000 0.82490  0.25860  0.46900  Biso   1.000  C
  C12      1.0000 0.17510  0.74140  0.53100  Biso   1.000  C
  C13      1.0000 0.66690  0.29070  0.56430  Biso   1.000  C
  C14      1.0000 0.33310  0.70930  0.43570  Biso   1.000  C
  C15      1.0000 0.68930  0.31870  0.70190  Biso   1.000  C
  C16      1.0000 0.31070  0.68130  0.29810  Biso   1.000  C
  C17      1.0000 0.52130  0.35260  0.80150  Biso   1.000  C
  C18      1.0000 0.47870  0.64740  0.19850  Biso   1.000  C
  N9       1.0000 0.38550  0.37920  0.87960  Biso   1.000  N
  N10      1.0000 0.61450  0.62080  0.12040  Biso   1.000  N
  H1       1.0000 0.17020  0.27440  0.67110  Biso   1.000  H
  H2       1.0000 0.82980  0.72560  0.32890  Biso   1.000  H
  H3       1.0000 0.12570  0.23550  0.43670  Biso   1.000  H
  H4       1.0000 0.87430  0.76450  0.56330  Biso   1.000  H
  H5       1.0000 0.80950  0.23600  0.36890  Biso   1.000  H
  H6       1.0000 0.19050  0.76400  0.63110  Biso   1.000  H
  H7       1.0000 0.53120  0.29450  0.53590  Biso   1.000  H
  H8       1.0000 0.46880  0.70550  0.46410  Biso   1.000  H
  H9       1.0000 0.79330  0.39540  0.93660  Biso   1.000  H
  H10      1.0000 0.20670  0.60460  0.06340  Biso   1.000  H
  H11      1.0000 0.01040  0.35460  0.89660  Biso   1.000  H
  H12      1.0000 0.98960  0.64540  0.10340  Biso   1.000  H
