data_image0
_cell_length_a       28.5558
_cell_length_b       9.5987
_cell_length_c       16.906
_cell_angle_alpha    90
_cell_angle_beta     107.974
_cell_angle_gamma    90

_symmetry_space_group_name_H-M    "P 1"
_symmetry_int_tables_number       1

loop_
  _symmetry_equiv_pos_as_xyz
  'x, y, z'

loop_
  _atom_site_label
  _atom_site_occupancy
  _atom_site_fract_x
  _atom_site_fract_y
  _atom_site_fract_z
  _atom_site_thermal_displace_type
  _atom_site_B_iso_or_equiv
  _atom_site_type_symbol
  Cu1      1.0000 0.12694  0.44416  0.27263  Biso   1.000  Cu
  Cu2      1.0000 0.12694  0.55584  0.77263  Biso   1.000  Cu
  Cu3      1.0000 0.62694  0.94416  0.27263  Biso   1.000  Cu
  Cu4      1.0000 0.62694  0.05584  0.77263  Biso   1.000  Cu
  P1       1.0000 0.37235  0.92720  0.15390  Biso   1.000  P
  P2       1.0000 0.37235  0.07280  0.65390  Biso   1.000  P
  P3       1.0000 0.87235  0.42720  0.15390  Biso   1.000  P
  P4       1.0000 0.87235  0.57280  0.65390  Biso   1.000  P
  P5       1.0000 0.11134  0.93070  0.49780  Biso   1.000  P
  P6       1.0000 0.11134  0.06930  0.99780  Biso   1.000  P
  P7       1.0000 0.61134  0.43070  0.49780  Biso   1.000  P
  P8       1.0000 0.61134  0.56930  0.99780  Biso   1.000  P
  F1       1.0000 0.36930  0.80550  0.08690  Biso   1.000  F
  F2       1.0000 0.36930  0.19450  0.58690  Biso   1.000  F
  F3       1.0000 0.86930  0.30550  0.08690  Biso   1.000  F
  F4       1.0000 0.86930  0.69450  0.58690  Biso   1.000  F
  F5       1.0000 0.37660  0.04840  0.22050  Biso   1.000  F
  F6       1.0000 0.37660  0.95160  0.72050  Biso   1.000  F
  F7       1.0000 0.87660  0.54840  0.22050  Biso   1.000  F
  F8       1.0000 0.87660  0.45160  0.72050  Biso   1.000  F
  F9       1.0000 0.31520  0.95300  0.10710  Biso   1.000  F
  F10      1.0000 0.31520  0.04700  0.60710  Biso   1.000  F
  F11      1.0000 0.81520  0.45300  0.10710  Biso   1.000  F
  F12      1.0000 0.81520  0.54700  0.60710  Biso   1.000  F
  F13      1.0000 0.42930  0.89430  0.19660  Biso   1.000  F
  F14      1.0000 0.42930  0.10570  0.69660  Biso   1.000  F
  F15      1.0000 0.92930  0.39430  0.19660  Biso   1.000  F
  F16      1.0000 0.92930  0.60570  0.69660  Biso   1.000  F
  F17      1.0000 0.35690  0.81820  0.21610  Biso   1.000  F
  F18      1.0000 0.35690  0.18180  0.71610  Biso   1.000  F
  F19      1.0000 0.85690  0.31820  0.21610  Biso   1.000  F
  F20      1.0000 0.85690  0.68180  0.71610  Biso   1.000  F
  F21      1.0000 0.38540  0.03510  0.09330  Biso   1.000  F
  F22      1.0000 0.38540  0.96490  0.59330  Biso   1.000  F
  F23      1.0000 0.88540  0.53510  0.09330  Biso   1.000  F
  F24      1.0000 0.88540  0.46490  0.59330  Biso   1.000  F
  F25      1.0000 0.16870  0.88800  0.52980  Biso   1.000  F
  F26      1.0000 0.16870  0.11200  0.02980  Biso   1.000  F
  F27      1.0000 0.66870  0.38800  0.52980  Biso   1.000  F
  F28      1.0000 0.66870  0.61200  0.02980  Biso   1.000  F
  F29      1.0000 0.15070  0.80100  0.51990  Biso   1.000  F
  F30      1.0000 0.15070  0.19900  0.01990  Biso   1.000  F
  F31      1.0000 0.65070  0.30100  0.51990  Biso   1.000  F
  F32      1.0000 0.65070  0.69900  0.01990  Biso   1.000  F
  F33      1.0000 0.09990  0.76090  0.50100  Biso   1.000  F
  F34      1.0000 0.09990  0.23910  0.00100  Biso   1.000  F
  F35      1.0000 0.59990  0.26090  0.50100  Biso   1.000  F
  F36      1.0000 0.59990  0.73910  0.00100  Biso   1.000  F
  F37      1.0000 0.08650  0.84540  0.41570  Biso   1.000  F
  F38      1.0000 0.08650  0.15460  0.91570  Biso   1.000  F
  F39      1.0000 0.58650  0.34540  0.41570  Biso   1.000  F
  F40      1.0000 0.58650  0.65460  0.91570  Biso   1.000  F
  F41      1.0000 0.10830  0.91800  0.40630  Biso   1.000  F
  F42      1.0000 0.10830  0.08200  0.90630  Biso   1.000  F
  F43      1.0000 0.60830  0.41800  0.40630  Biso   1.000  F
  F44      1.0000 0.60830  0.58200  0.90630  Biso   1.000  F
  F45      1.0000 0.11080  0.93500  0.59340  Biso   1.000  F
  F46      1.0000 0.11080  0.06500  0.09340  Biso   1.000  F
  F47      1.0000 0.61080  0.43500  0.59340  Biso   1.000  F
  F48      1.0000 0.61080  0.56500  0.09340  Biso   1.000  F
  F49      1.0000 0.07520  0.05740  0.47090  Biso   1.000  F
  F50      1.0000 0.07520  0.94260  0.97090  Biso   1.000  F
  F51      1.0000 0.57520  0.55740  0.47090  Biso   1.000  F
  F52      1.0000 0.57520  0.44260  0.97090  Biso   1.000  F
  F53      1.0000 0.14120  0.01500  0.58190  Biso   1.000  F
  F54      1.0000 0.14120  0.98500  0.08190  Biso   1.000  F
  F55      1.0000 0.64120  0.51500  0.58190  Biso   1.000  F
  F56      1.0000 0.64120  0.48500  0.08190  Biso   1.000  F
  F57      1.0000 0.08120  0.86900  0.54940  Biso   1.000  F
  F58      1.0000 0.08120  0.13100  0.04940  Biso   1.000  F
  F59      1.0000 0.58120  0.36900  0.54940  Biso   1.000  F
  F60      1.0000 0.58120  0.63100  0.04940  Biso   1.000  F
  F61      1.0000 0.11380  0.09280  0.49490  Biso   1.000  F
  F62      1.0000 0.11380  0.90720  0.99490  Biso   1.000  F
  F63      1.0000 0.61380  0.59280  0.49490  Biso   1.000  F
  F64      1.0000 0.61380  0.40720  0.99490  Biso   1.000  F
  F65      1.0000 0.14700  0.01020  0.44810  Biso   1.000  F
  F66      1.0000 0.14700  0.98980  0.94810  Biso   1.000  F
  F67      1.0000 0.64700  0.51020  0.44810  Biso   1.000  F
  F68      1.0000 0.64700  0.48980  0.94810  Biso   1.000  F
  F69      1.0000 0.04850  0.94890  0.47120  Biso   1.000  F
  F70      1.0000 0.04850  0.05110  0.97120  Biso   1.000  F
  F71      1.0000 0.54850  0.44890  0.47120  Biso   1.000  F
  F72      1.0000 0.54850  0.55110  0.97120  Biso   1.000  F
  O1       1.0000 0.13310  0.43930  0.12290  Biso   1.000  O
  O2       1.0000 0.13310  0.56070  0.62290  Biso   1.000  O
  O3       1.0000 0.63310  0.93930  0.12290  Biso   1.000  O
  O4       1.0000 0.63310  0.06070  0.62290  Biso   1.000  O
  O5       1.0000 0.11630  0.45340  0.40390  Biso   1.000  O
  O6       1.0000 0.11630  0.54660  0.90390  Biso   1.000  O
  O7       1.0000 0.61630  0.95340  0.40390  Biso   1.000  O
  O8       1.0000 0.61630  0.04660  0.90390  Biso   1.000  O
  O9       1.0000 0.02180  0.44800  0.41150  Biso   1.000  O
  O10      1.0000 0.02180  0.55200  0.91150  Biso   1.000  O
  O11      1.0000 0.52180  0.94800  0.41150  Biso   1.000  O
  O12      1.0000 0.52180  0.05200  0.91150  Biso   1.000  O
  O13      1.0000 0.26970  0.47630  0.12630  Biso   1.000  O
  O14      1.0000 0.26970  0.52370  0.62630  Biso   1.000  O
  O15      1.0000 0.76970  0.97630  0.12630  Biso   1.000  O
  O16      1.0000 0.76970  0.02370  0.62630  Biso   1.000  O
  O17      1.0000 0.43050  0.35990  0.44460  Biso   1.000  O
  O18      1.0000 0.43050  0.64010  0.94460  Biso   1.000  O
  O19      1.0000 0.93050  0.85990  0.44460  Biso   1.000  O
  O20      1.0000 0.93050  0.14010  0.94460  Biso   1.000  O
  O21      1.0000 0.17460  0.64800  0.05490  Biso   1.000  O
  O22      1.0000 0.17460  0.35200  0.55490  Biso   1.000  O
  O23      1.0000 0.67460  0.14800  0.05490  Biso   1.000  O
  O24      1.0000 0.67460  0.85200  0.55490  Biso   1.000  O
  O25      1.0000 0.22450  0.86400  0.11230  Biso   1.000  O
  O26      1.0000 0.22450  0.13600  0.61230  Biso   1.000  O
  O27      1.0000 0.72450  0.36400  0.11230  Biso   1.000  O
  O28      1.0000 0.72450  0.63600  0.61230  Biso   1.000  O
  N1       1.0000 0.17970  0.29070  0.30590  Biso   1.000  N
  N2       1.0000 0.17970  0.70930  0.80590  Biso   1.000  N
  N3       1.0000 0.67970  0.79070  0.30590  Biso   1.000  N
  N4       1.0000 0.67970  0.20930  0.80590  Biso   1.000  N
  N5       1.0000 0.18110  0.58850  0.30420  Biso   1.000  N
  N6       1.0000 0.18110  0.41150  0.80420  Biso   1.000  N
  N7       1.0000 0.68110  0.08850  0.30420  Biso   1.000  N
  N8       1.0000 0.68110  0.91150  0.80420  Biso   1.000  N
  N9       1.0000 0.07600  0.59880  0.22890  Biso   1.000  N
  N10      1.0000 0.07600  0.40120  0.72890  Biso   1.000  N
  N11      1.0000 0.57600  0.09880  0.22890  Biso   1.000  N
  N12      1.0000 0.57600  0.90120  0.72890  Biso   1.000  N
  N13      1.0000 0.07370  0.29680  0.23760  Biso   1.000  N
  N14      1.0000 0.07370  0.70320  0.73760  Biso   1.000  N
  N15      1.0000 0.57370  0.79680  0.23760  Biso   1.000  N
  N16      1.0000 0.57370  0.20320  0.73760  Biso   1.000  N
  C1       1.0000 0.21460  0.29200  0.38000  Biso   1.000  C
  C2       1.0000 0.21460  0.70800  0.88000  Biso   1.000  C
  C3       1.0000 0.71460  0.79200  0.38000  Biso   1.000  C
  C4       1.0000 0.71460  0.20800  0.88000  Biso   1.000  C
  C5       1.0000 0.25260  0.20470  0.40010  Biso   1.000  C
  C6       1.0000 0.25260  0.79530  0.90010  Biso   1.000  C
  C7       1.0000 0.75260  0.70470  0.40010  Biso   1.000  C
  C8       1.0000 0.75260  0.29530  0.90010  Biso   1.000  C
  C9       1.0000 0.25620  0.10540  0.34000  Biso   1.000  C
  C10      1.0000 0.25620  0.89460  0.84000  Biso   1.000  C
  C11      1.0000 0.75620  0.60540  0.34000  Biso   1.000  C
  C12      1.0000 0.75620  0.39460  0.84000  Biso   1.000  C
  C13      1.0000 0.22040  0.09450  0.27070  Biso   1.000  C
  C14      1.0000 0.22040  0.90550  0.77070  Biso   1.000  C
  C15      1.0000 0.72040  0.59450  0.27070  Biso   1.000  C
  C16      1.0000 0.72040  0.40550  0.77070  Biso   1.000  C
  C17      1.0000 0.18150  0.19040  0.25290  Biso   1.000  C
  C18      1.0000 0.18150  0.80960  0.75290  Biso   1.000  C
  C19      1.0000 0.68150  0.69040  0.25290  Biso   1.000  C
  C20      1.0000 0.68150  0.30960  0.75290  Biso   1.000  C
  C21      1.0000 0.30240  0.01000  0.33950  Biso   1.000  C
  C22      1.0000 0.30240  0.99000  0.83950  Biso   1.000  C
  C23      1.0000 0.80240  0.51000  0.33950  Biso   1.000  C
  C24      1.0000 0.80240  0.49000  0.83950  Biso   1.000  C
  C25      1.0000 0.29500  0.00300  0.40230  Biso   1.000  C
  C26      1.0000 0.29500  0.99700  0.90230  Biso   1.000  C
  C27      1.0000 0.79500  0.50300  0.40230  Biso   1.000  C
  C28      1.0000 0.79500  0.49700  0.90230  Biso   1.000  C
  C29      1.0000 0.18020  0.69180  0.36000  Biso   1.000  C
  C30      1.0000 0.18020  0.30820  0.86000  Biso   1.000  C
  C31      1.0000 0.68020  0.19180  0.36000  Biso   1.000  C
  C32      1.0000 0.68020  0.80820  0.86000  Biso   1.000  C
  C33      1.0000 0.21690  0.79230  0.38640  Biso   1.000  C
  C34      1.0000 0.21690  0.20770  0.88640  Biso   1.000  C
  C35      1.0000 0.71690  0.29230  0.38640  Biso   1.000  C
  C36      1.0000 0.71690  0.70770  0.88640  Biso   1.000  C
  C37      1.0000 0.25720  0.78250  0.35640  Biso   1.000  C
  C38      1.0000 0.25720  0.21750  0.85640  Biso   1.000  C
  C39      1.0000 0.75720  0.28250  0.35640  Biso   1.000  C
  C40      1.0000 0.75720  0.71750  0.85640  Biso   1.000  C
  C41      1.0000 0.25790  0.67800  0.29850  Biso   1.000  C
  C42      1.0000 0.25790  0.32200  0.79850  Biso   1.000  C
  C43      1.0000 0.75790  0.17800  0.29850  Biso   1.000  C
  C44      1.0000 0.75790  0.82200  0.79850  Biso   1.000  C
  C45      1.0000 0.21860  0.58500  0.27420  Biso   1.000  C
  C46      1.0000 0.21860  0.41500  0.77420  Biso   1.000  C
  C47      1.0000 0.71860  0.08500  0.27420  Biso   1.000  C
  C48      1.0000 0.71860  0.91500  0.77420  Biso   1.000  C
  C49      1.0000 0.30300  0.88470  0.39360  Biso   1.000  C
  C50      1.0000 0.30300  0.11530  0.89360  Biso   1.000  C
  C51      1.0000 0.80300  0.38470  0.39360  Biso   1.000  C
  C52      1.0000 0.80300  0.61530  0.89360  Biso   1.000  C
  C53      1.0000 0.08350  0.70150  0.18070  Biso   1.000  C
  C54      1.0000 0.08350  0.29850  0.68070  Biso   1.000  C
  C55      1.0000 0.58350  0.20150  0.18070  Biso   1.000  C
  C56      1.0000 0.58350  0.79850  0.68070  Biso   1.000  C
  C57      1.0000 0.04810  0.79560  0.14070  Biso   1.000  C
  C58      1.0000 0.04810  0.20440  0.64070  Biso   1.000  C
  C59      1.0000 0.54810  0.29560  0.14070  Biso   1.000  C
  C60      1.0000 0.54810  0.70440  0.64070  Biso   1.000  C
  C61      1.0000 0.00280  0.78940  0.15030  Biso   1.000  C
  C62      1.0000 0.00280  0.21060  0.65030  Biso   1.000  C
  C63      1.0000 0.50280  0.28940  0.15030  Biso   1.000  C
  C64      1.0000 0.50280  0.71060  0.65030  Biso   1.000  C
  C65      1.0000 0.99400  0.68660  0.20230  Biso   1.000  C
  C66      1.0000 0.99400  0.31340  0.70230  Biso   1.000  C
  C67      1.0000 0.49400  0.18660  0.20230  Biso   1.000  C
  C68      1.0000 0.49400  0.81340  0.70230  Biso   1.000  C
  C69      1.0000 0.03190  0.59090  0.23970  Biso   1.000  C
  C70      1.0000 0.03190  0.40910  0.73970  Biso   1.000  C
  C71      1.0000 0.53190  0.09090  0.23970  Biso   1.000  C
  C72      1.0000 0.53190  0.90910  0.73970  Biso   1.000  C
  C73      1.0000 0.96070  0.89100  0.10830  Biso   1.000  C
  C74      1.0000 0.96070  0.10900  0.60830  Biso   1.000  C
  C75      1.0000 0.46070  0.39100  0.10830  Biso   1.000  C
  C76      1.0000 0.46070  0.60900  0.60830  Biso   1.000  C
  C77      1.0000 0.03960  0.30380  0.16050  Biso   1.000  C
  C78      1.0000 0.03960  0.69620  0.66050  Biso   1.000  C
  C79      1.0000 0.53960  0.80380  0.16050  Biso   1.000  C
  C80      1.0000 0.53960  0.19620  0.66050  Biso   1.000  C
  C81      1.0000 0.00210  0.20840  0.13660  Biso   1.000  C
  C82      1.0000 0.00210  0.79160  0.63660  Biso   1.000  C
  C83      1.0000 0.50210  0.70840  0.13660  Biso   1.000  C
  C84      1.0000 0.50210  0.29160  0.63660  Biso   1.000  C
  C85      1.0000 0.99690  0.10460  0.18930  Biso   1.000  C
  C86      1.0000 0.99690  0.89540  0.68930  Biso   1.000  C
  C87      1.0000 0.49690  0.60460  0.18930  Biso   1.000  C
  C88      1.0000 0.49690  0.39540  0.68930  Biso   1.000  C
  C89      1.0000 0.03350  0.09240  0.26680  Biso   1.000  C
  C90      1.0000 0.03350  0.90760  0.76680  Biso   1.000  C
  C91      1.0000 0.53350  0.59240  0.26680  Biso   1.000  C
  C92      1.0000 0.53350  0.40760  0.76680  Biso   1.000  C
  C93      1.0000 0.07010  0.19350  0.28740  Biso   1.000  C
  C94      1.0000 0.07010  0.80650  0.78740  Biso   1.000  C
  C95      1.0000 0.57010  0.69350  0.28740  Biso   1.000  C
  C96      1.0000 0.57010  0.30650  0.78740  Biso   1.000  C
  C97      1.0000 0.95530  0.00610  0.16380  Biso   1.000  C
  C98      1.0000 0.95530  0.99390  0.66380  Biso   1.000  C
  C99      1.0000 0.45530  0.50610  0.16380  Biso   1.000  C
  C100     1.0000 0.45530  0.49390  0.66380  Biso   1.000  C
  C101     1.0000 0.99850  0.56700  0.43480  Biso   1.000  C
  C102     1.0000 0.99850  0.43300  0.93480  Biso   1.000  C
  C103     1.0000 0.49850  0.06700  0.43480  Biso   1.000  C
  C104     1.0000 0.49850  0.93300  0.93480  Biso   1.000  C
  C105     1.0000 0.96080  0.51180  0.48010  Biso   1.000  C
  C106     1.0000 0.96080  0.48820  0.98010  Biso   1.000  C
  C107     1.0000 0.46080  0.01180  0.48010  Biso   1.000  C
  C108     1.0000 0.46080  0.98820  0.98010  Biso   1.000  C
  C109     1.0000 0.94560  0.37660  0.42710  Biso   1.000  C
  C110     1.0000 0.94560  0.62340  0.92710  Biso   1.000  C
  C111     1.0000 0.44560  0.87660  0.42710  Biso   1.000  C
  C112     1.0000 0.44560  0.12340  0.92710  Biso   1.000  C
  C113     1.0000 0.99050  0.32860  0.40450  Biso   1.000  C
  C114     1.0000 0.99050  0.67140  0.90450  Biso   1.000  C
  C115     1.0000 0.49050  0.82860  0.40450  Biso   1.000  C
  C116     1.0000 0.49050  0.17140  0.90450  Biso   1.000  C
  C117     1.0000 0.30820  0.55040  0.10480  Biso   1.000  C
  C118     1.0000 0.30820  0.44960  0.60480  Biso   1.000  C
  C119     1.0000 0.80820  0.05040  0.10480  Biso   1.000  C
  C120     1.0000 0.80820  0.94960  0.60480  Biso   1.000  C
  C121     1.0000 0.31700  0.45300  0.05200  Biso   1.000  C
  C122     1.0000 0.31700  0.54700  0.55200  Biso   1.000  C
  C123     1.0000 0.81700  0.95300  0.05200  Biso   1.000  C
  C124     1.0000 0.81700  0.04700  0.55200  Biso   1.000  C
  C125     1.0000 0.31980  0.32400  0.08500  Biso   1.000  C
  C126     1.0000 0.31980  0.67600  0.58500  Biso   1.000  C
  C127     1.0000 0.81980  0.82400  0.08500  Biso   1.000  C
  C128     1.0000 0.81980  0.17600  0.58500  Biso   1.000  C
  C129     1.0000 0.27150  0.31100  0.11090  Biso   1.000  C
  C130     1.0000 0.27150  0.68900  0.61090  Biso   1.000  C
  C131     1.0000 0.77150  0.81100  0.11090  Biso   1.000  C
  C132     1.0000 0.77150  0.18900  0.61090  Biso   1.000  C
  C133     1.0000 0.38320  0.31970  0.40290  Biso   1.000  C
  C134     1.0000 0.38320  0.68030  0.90290  Biso   1.000  C
  C135     1.0000 0.88320  0.81970  0.40290  Biso   1.000  C
  C136     1.0000 0.88320  0.18030  0.90290  Biso   1.000  C
  C137     1.0000 0.35660  0.39470  0.33900  Biso   1.000  C
  C138     1.0000 0.35660  0.60530  0.83900  Biso   1.000  C
  C139     1.0000 0.85660  0.89470  0.33900  Biso   1.000  C
  C140     1.0000 0.85660  0.10530  0.83900  Biso   1.000  C
  C141     1.0000 0.39530  0.54500  0.35070  Biso   1.000  C
  C142     1.0000 0.39530  0.45500  0.85070  Biso   1.000  C
  C143     1.0000 0.89530  0.04500  0.35070  Biso   1.000  C
  C144     1.0000 0.89530  0.95500  0.85070  Biso   1.000  C
  C145     1.0000 0.43950  0.44300  0.38390  Biso   1.000  C
  C146     1.0000 0.43950  0.55700  0.88390  Biso   1.000  C
  C147     1.0000 0.93950  0.94300  0.38390  Biso   1.000  C
  C148     1.0000 0.93950  0.05700  0.88390  Biso   1.000  C
  H1       1.0000 0.21210  0.35900  0.41990  Biso   1.000  H
  H2       1.0000 0.21210  0.64100  0.91990  Biso   1.000  H
  H3       1.0000 0.71210  0.85900  0.41990  Biso   1.000  H
  H4       1.0000 0.71210  0.14100  0.91990  Biso   1.000  H
  H5       1.0000 0.27660  0.20860  0.45350  Biso   1.000  H
  H6       1.0000 0.27660  0.79140  0.95350  Biso   1.000  H
  H7       1.0000 0.77660  0.70860  0.45350  Biso   1.000  H
  H8       1.0000 0.77660  0.29140  0.95350  Biso   1.000  H
  H9       1.0000 0.22030  0.02240  0.23220  Biso   1.000  H
  H10      1.0000 0.22030  0.97760  0.73220  Biso   1.000  H
  H11      1.0000 0.72030  0.52240  0.23220  Biso   1.000  H
  H12      1.0000 0.72030  0.47760  0.73220  Biso   1.000  H
  H13      1.0000 0.15580  0.18440  0.20150  Biso   1.000  H
  H14      1.0000 0.15580  0.81560  0.70150  Biso   1.000  H
  H15      1.0000 0.65580  0.68440  0.20150  Biso   1.000  H
  H16      1.0000 0.65580  0.31560  0.70150  Biso   1.000  H
  H17      1.0000 0.29840  0.98020  0.28420  Biso   1.000  H
  H18      1.0000 0.29840  0.01980  0.78420  Biso   1.000  H
  H19      1.0000 0.79840  0.48020  0.28420  Biso   1.000  H
  H20      1.0000 0.79840  0.51980  0.78420  Biso   1.000  H
  H21      1.0000 0.33260  0.05930  0.36020  Biso   1.000  H
  H22      1.0000 0.33260  0.94070  0.86020  Biso   1.000  H
  H23      1.0000 0.83260  0.55930  0.36020  Biso   1.000  H
  H24      1.0000 0.83260  0.44070  0.86020  Biso   1.000  H
  H25      1.0000 0.15320  0.69490  0.38140  Biso   1.000  H
  H26      1.0000 0.15320  0.30510  0.88140  Biso   1.000  H
  H27      1.0000 0.65320  0.19490  0.38140  Biso   1.000  H
  H28      1.0000 0.65320  0.80510  0.88140  Biso   1.000  H
  H29      1.0000 0.21420  0.86500  0.42290  Biso   1.000  H
  H30      1.0000 0.21420  0.13500  0.92290  Biso   1.000  H
  H31      1.0000 0.71420  0.36500  0.42290  Biso   1.000  H
  H32      1.0000 0.71420  0.63500  0.92290  Biso   1.000  H
  H33      1.0000 0.28450  0.67190  0.27620  Biso   1.000  H
  H34      1.0000 0.28450  0.32810  0.77620  Biso   1.000  H
  H35      1.0000 0.78450  0.17190  0.27620  Biso   1.000  H
  H36      1.0000 0.78450  0.82810  0.77620  Biso   1.000  H
  H37      1.0000 0.21900  0.51550  0.23440  Biso   1.000  H
  H38      1.0000 0.21900  0.48450  0.73440  Biso   1.000  H
  H39      1.0000 0.71900  0.01550  0.23440  Biso   1.000  H
  H40      1.0000 0.71900  0.98450  0.73440  Biso   1.000  H
  H41      1.0000 0.30360  0.91650  0.44710  Biso   1.000  H
  H42      1.0000 0.30360  0.08350  0.94710  Biso   1.000  H
  H43      1.0000 0.80360  0.41650  0.44710  Biso   1.000  H
  H44      1.0000 0.80360  0.58350  0.94710  Biso   1.000  H
  H45      1.0000 0.33220  0.83330  0.39810  Biso   1.000  H
  H46      1.0000 0.33220  0.16670  0.89810  Biso   1.000  H
  H47      1.0000 0.83220  0.33330  0.39810  Biso   1.000  H
  H48      1.0000 0.83220  0.66670  0.89810  Biso   1.000  H
  H49      1.0000 0.11520  0.71020  0.17410  Biso   1.000  H
  H50      1.0000 0.11520  0.28980  0.67410  Biso   1.000  H
  H51      1.0000 0.61520  0.21020  0.17410  Biso   1.000  H
  H52      1.0000 0.61520  0.78980  0.67410  Biso   1.000  H
  H53      1.0000 0.05490  0.86490  0.10570  Biso   1.000  H
  H54      1.0000 0.05490  0.13510  0.60570  Biso   1.000  H
  H55      1.0000 0.55490  0.36490  0.10570  Biso   1.000  H
  H56      1.0000 0.55490  0.63510  0.60570  Biso   1.000  H
  H57      1.0000 0.96310  0.68100  0.21230  Biso   1.000  H
  H58      1.0000 0.96310  0.31900  0.71230  Biso   1.000  H
  H59      1.0000 0.46310  0.18100  0.21230  Biso   1.000  H
  H60      1.0000 0.46310  0.81900  0.71230  Biso   1.000  H
  H61      1.0000 0.02580  0.51910  0.27390  Biso   1.000  H
  H62      1.0000 0.02580  0.48090  0.77390  Biso   1.000  H
  H63      1.0000 0.52580  0.01910  0.27390  Biso   1.000  H
  H64      1.0000 0.52580  0.98090  0.77390  Biso   1.000  H
  H65      1.0000 0.96840  0.93280  0.06280  Biso   1.000  H
  H66      1.0000 0.96840  0.06720  0.56280  Biso   1.000  H
  H67      1.0000 0.46840  0.43280  0.06280  Biso   1.000  H
  H68      1.0000 0.46840  0.56720  0.56280  Biso   1.000  H
  H69      1.0000 0.93070  0.84070  0.08830  Biso   1.000  H
  H70      1.0000 0.93070  0.15930  0.58830  Biso   1.000  H
  H71      1.0000 0.43070  0.34070  0.08830  Biso   1.000  H
  H72      1.0000 0.43070  0.65930  0.58830  Biso   1.000  H
  H73      1.0000 0.04220  0.37470  0.12280  Biso   1.000  H
  H74      1.0000 0.04220  0.62530  0.62280  Biso   1.000  H
  H75      1.0000 0.54220  0.87470  0.12280  Biso   1.000  H
  H76      1.0000 0.54220  0.12530  0.62280  Biso   1.000  H
  H77      1.0000 0.97910  0.21470  0.08250  Biso   1.000  H
  H78      1.0000 0.97910  0.78530  0.58250  Biso   1.000  H
  H79      1.0000 0.47910  0.71470  0.08250  Biso   1.000  H
  H80      1.0000 0.47910  0.28530  0.58250  Biso   1.000  H
  H81      1.0000 0.03290  0.01780  0.30340  Biso   1.000  H
  H82      1.0000 0.03290  0.98220  0.80340  Biso   1.000  H
  H83      1.0000 0.53290  0.51780  0.30340  Biso   1.000  H
  H84      1.0000 0.53290  0.48220  0.80340  Biso   1.000  H
  H85      1.0000 0.09420  0.18750  0.34060  Biso   1.000  H
  H86      1.0000 0.09420  0.81250  0.84060  Biso   1.000  H
  H87      1.0000 0.59420  0.68750  0.34060  Biso   1.000  H
  H88      1.0000 0.59420  0.31250  0.84060  Biso   1.000  H
  H89      1.0000 0.95200  0.96400  0.21270  Biso   1.000  H
  H90      1.0000 0.95200  0.03600  0.71270  Biso   1.000  H
  H91      1.0000 0.45200  0.46400  0.21270  Biso   1.000  H
  H92      1.0000 0.45200  0.53600  0.71270  Biso   1.000  H
  H93      1.0000 0.92610  0.05640  0.13650  Biso   1.000  H
  H94      1.0000 0.92610  0.94360  0.63650  Biso   1.000  H
  H95      1.0000 0.42610  0.55640  0.13650  Biso   1.000  H
  H96      1.0000 0.42610  0.44360  0.63650  Biso   1.000  H
  H97      1.0000 0.02260  0.62540  0.47100  Biso   1.000  H
  H98      1.0000 0.02260  0.37460  0.97100  Biso   1.000  H
  H99      1.0000 0.52260  0.12540  0.47100  Biso   1.000  H
  H100     1.0000 0.52260  0.87460  0.97100  Biso   1.000  H
  H101     1.0000 0.98080  0.61810  0.38680  Biso   1.000  H
  H102     1.0000 0.98080  0.38190  0.88680  Biso   1.000  H
  H103     1.0000 0.48080  0.11810  0.38680  Biso   1.000  H
  H104     1.0000 0.48080  0.88190  0.88680  Biso   1.000  H
  H105     1.0000 0.97700  0.49130  0.53700  Biso   1.000  H
  H106     1.0000 0.97700  0.50870  0.03700  Biso   1.000  H
  H107     1.0000 0.47700  0.99130  0.53700  Biso   1.000  H
  H108     1.0000 0.47700  0.00870  0.03700  Biso   1.000  H
  H109     1.0000 0.93440  0.57440  0.47590  Biso   1.000  H
  H110     1.0000 0.93440  0.42560  0.97590  Biso   1.000  H
  H111     1.0000 0.43440  0.07440  0.47590  Biso   1.000  H
  H112     1.0000 0.43440  0.92560  0.97590  Biso   1.000  H
  H113     1.0000 0.93560  0.30680  0.45840  Biso   1.000  H
  H114     1.0000 0.93560  0.69320  0.95840  Biso   1.000  H
  H115     1.0000 0.43560  0.80680  0.45840  Biso   1.000  H
  H116     1.0000 0.43560  0.19320  0.95840  Biso   1.000  H
  H117     1.0000 0.91910  0.39710  0.37850  Biso   1.000  H
  H118     1.0000 0.91910  0.60290  0.87850  Biso   1.000  H
  H119     1.0000 0.41910  0.89710  0.37850  Biso   1.000  H
  H120     1.0000 0.41910  0.10290  0.87850  Biso   1.000  H
  H121     1.0000 0.98090  0.29410  0.34910  Biso   1.000  H
  H122     1.0000 0.98090  0.70590  0.84910  Biso   1.000  H
  H123     1.0000 0.48090  0.79410  0.34910  Biso   1.000  H
  H124     1.0000 0.48090  0.20590  0.84910  Biso   1.000  H
  H125     1.0000 0.00740  0.25750  0.44150  Biso   1.000  H
  H126     1.0000 0.00740  0.74250  0.94150  Biso   1.000  H
  H127     1.0000 0.50740  0.75750  0.44150  Biso   1.000  H
  H128     1.0000 0.50740  0.24250  0.94150  Biso   1.000  H
  H129     1.0000 0.29710  0.63630  0.07760  Biso   1.000  H
  H130     1.0000 0.29710  0.36370  0.57760  Biso   1.000  H
  H131     1.0000 0.79710  0.13630  0.07760  Biso   1.000  H
  H132     1.0000 0.79710  0.86370  0.57760  Biso   1.000  H
  H133     1.0000 0.33620  0.56640  0.15180  Biso   1.000  H
  H134     1.0000 0.33620  0.43360  0.65180  Biso   1.000  H
  H135     1.0000 0.83620  0.06640  0.15180  Biso   1.000  H
  H136     1.0000 0.83620  0.93360  0.65180  Biso   1.000  H
  H137     1.0000 0.29090  0.45560  0.00060  Biso   1.000  H
  H138     1.0000 0.29090  0.54440  0.50060  Biso   1.000  H
  H139     1.0000 0.79090  0.95560  0.00060  Biso   1.000  H
  H140     1.0000 0.79090  0.04440  0.50060  Biso   1.000  H
  H141     1.0000 0.34720  0.47340  0.04170  Biso   1.000  H
  H142     1.0000 0.34720  0.52660  0.54170  Biso   1.000  H
  H143     1.0000 0.84720  0.97340  0.04170  Biso   1.000  H
  H144     1.0000 0.84720  0.02660  0.54170  Biso   1.000  H
  H145     1.0000 0.31960  0.25550  0.04410  Biso   1.000  H
  H146     1.0000 0.31960  0.74450  0.54410  Biso   1.000  H
  H147     1.0000 0.81960  0.75550  0.04410  Biso   1.000  H
  H148     1.0000 0.81960  0.24450  0.54410  Biso   1.000  H
  H149     1.0000 0.34860  0.31310  0.13120  Biso   1.000  H
  H150     1.0000 0.34860  0.68690  0.63120  Biso   1.000  H
  H151     1.0000 0.84860  0.81310  0.13120  Biso   1.000  H
  H152     1.0000 0.84860  0.18690  0.63120  Biso   1.000  H
  H153     1.0000 0.27590  0.25730  0.16000  Biso   1.000  H
  H154     1.0000 0.27590  0.74270  0.66000  Biso   1.000  H
  H155     1.0000 0.77590  0.75730  0.16000  Biso   1.000  H
  H156     1.0000 0.77590  0.24270  0.66000  Biso   1.000  H
  H157     1.0000 0.24360  0.27720  0.06830  Biso   1.000  H
  H158     1.0000 0.24360  0.72280  0.56830  Biso   1.000  H
  H159     1.0000 0.74360  0.77720  0.06830  Biso   1.000  H
  H160     1.0000 0.74360  0.22280  0.56830  Biso   1.000  H
  H161     1.0000 0.38480  0.22750  0.38350  Biso   1.000  H
  H162     1.0000 0.38480  0.77250  0.88350  Biso   1.000  H
  H163     1.0000 0.88480  0.72750  0.38350  Biso   1.000  H
  H164     1.0000 0.88480  0.27250  0.88350  Biso   1.000  H
  H165     1.0000 0.36600  0.31930  0.44280  Biso   1.000  H
  H166     1.0000 0.36600  0.68070  0.94280  Biso   1.000  H
  H167     1.0000 0.86600  0.81930  0.44280  Biso   1.000  H
  H168     1.0000 0.86600  0.18070  0.94280  Biso   1.000  H
  H169     1.0000 0.35280  0.34840  0.28770  Biso   1.000  H
  H170     1.0000 0.35280  0.65160  0.78770  Biso   1.000  H
  H171     1.0000 0.85280  0.84840  0.28770  Biso   1.000  H
  H172     1.0000 0.85280  0.15160  0.78770  Biso   1.000  H
  H173     1.0000 0.32510  0.41670  0.34350  Biso   1.000  H
  H174     1.0000 0.32510  0.58330  0.84350  Biso   1.000  H
  H175     1.0000 0.82510  0.91670  0.34350  Biso   1.000  H
  H176     1.0000 0.82510  0.08330  0.84350  Biso   1.000  H
  H177     1.0000 0.39380  0.59140  0.30030  Biso   1.000  H
  H178     1.0000 0.39380  0.40860  0.80030  Biso   1.000  H
  H179     1.0000 0.89380  0.09140  0.30030  Biso   1.000  H
  H180     1.0000 0.89380  0.90860  0.80030  Biso   1.000  H
  H181     1.0000 0.39150  0.61110  0.39010  Biso   1.000  H
  H182     1.0000 0.39150  0.38890  0.89010  Biso   1.000  H
  H183     1.0000 0.89150  0.11110  0.39010  Biso   1.000  H
  H184     1.0000 0.89150  0.88890  0.89010  Biso   1.000  H
  H185     1.0000 0.46880  0.49510  0.40690  Biso   1.000  H
  H186     1.0000 0.46880  0.50490  0.90690  Biso   1.000  H
  H187     1.0000 0.96880  0.99510  0.40690  Biso   1.000  H
  H188     1.0000 0.96880  0.00490  0.90690  Biso   1.000  H
  H189     1.0000 0.44260  0.38710  0.33950  Biso   1.000  H
  H190     1.0000 0.44260  0.61290  0.83950  Biso   1.000  H
  H191     1.0000 0.94260  0.88710  0.33950  Biso   1.000  H
  H192     1.0000 0.94260  0.11290  0.83950  Biso   1.000  H
