data_image0
_cell_length_a       26.852
_cell_length_b       9.4757
_cell_length_c       20.534
_cell_angle_alpha    90
_cell_angle_beta     133.273
_cell_angle_gamma    90

_symmetry_space_group_name_H-M    "P 1"
_symmetry_int_tables_number       1

loop_
  _symmetry_equiv_pos_as_xyz
  'x, y, z'

loop_
  _atom_site_label
  _atom_site_occupancy
  _atom_site_fract_x
  _atom_site_fract_y
  _atom_site_fract_z
  _atom_site_thermal_displace_type
  _atom_site_B_iso_or_equiv
  _atom_site_type_symbol
  Cu1      1.0000 1.00000  0.03637  0.75000  Biso   1.000  Cu
  Cu2      1.0000 0.50000  0.53637  0.75000  Biso   1.000  Cu
  Cu3      1.0000 0.00000  0.96363  0.25000  Biso   1.000  Cu
  Cu4      1.0000 0.50000  0.46363  0.25000  Biso   1.000  Cu
  P1       1.0000 0.65990  0.07610  0.57990  Biso   1.000  P
  P2       1.0000 0.15990  0.57610  0.57990  Biso   1.000  P
  P3       1.0000 0.34010  0.07610  0.92010  Biso   1.000  P
  P4       1.0000 0.84010  0.57610  0.92010  Biso   1.000  P
  P5       1.0000 0.34010  0.92390  0.42010  Biso   1.000  P
  P6       1.0000 0.84010  0.42390  0.42010  Biso   1.000  P
  P7       1.0000 0.65990  0.92390  0.07990  Biso   1.000  P
  P8       1.0000 0.15990  0.42390  0.07990  Biso   1.000  P
  F1       1.0000 0.61900  0.13100  0.59300  Biso   1.000  F
  F2       1.0000 0.11900  0.63100  0.59300  Biso   1.000  F
  F3       1.0000 0.38100  0.13100  0.90700  Biso   1.000  F
  F4       1.0000 0.88100  0.63100  0.90700  Biso   1.000  F
  F5       1.0000 0.38100  0.86900  0.40700  Biso   1.000  F
  F6       1.0000 0.88100  0.36900  0.40700  Biso   1.000  F
  F7       1.0000 0.61900  0.86900  0.09300  Biso   1.000  F
  F8       1.0000 0.11900  0.36900  0.09300  Biso   1.000  F
  F9       1.0000 0.70820  0.06900  0.56000  Biso   1.000  F
  F10      1.0000 0.20820  0.56900  0.56000  Biso   1.000  F
  F11      1.0000 0.29180  0.06900  0.94000  Biso   1.000  F
  F12      1.0000 0.79180  0.56900  0.94000  Biso   1.000  F
  F13      1.0000 0.29180  0.93100  0.44000  Biso   1.000  F
  F14      1.0000 0.79180  0.43100  0.44000  Biso   1.000  F
  F15      1.0000 0.70820  0.93100  0.06000  Biso   1.000  F
  F16      1.0000 0.20820  0.43100  0.06000  Biso   1.000  F
  F17      1.0000 0.67360  0.21300  0.63200  Biso   1.000  F
  F18      1.0000 0.17360  0.71300  0.63200  Biso   1.000  F
  F19      1.0000 0.32640  0.21300  0.86800  Biso   1.000  F
  F20      1.0000 0.82640  0.71300  0.86800  Biso   1.000  F
  F21      1.0000 0.32640  0.78700  0.36800  Biso   1.000  F
  F22      1.0000 0.82640  0.28700  0.36800  Biso   1.000  F
  F23      1.0000 0.67360  0.78700  0.13200  Biso   1.000  F
  F24      1.0000 0.17360  0.28700  0.13200  Biso   1.000  F
  F25      1.0000 0.65770  0.21230  0.53610  Biso   1.000  F
  F26      1.0000 0.15770  0.71230  0.53610  Biso   1.000  F
  F27      1.0000 0.34230  0.21230  0.96390  Biso   1.000  F
  F28      1.0000 0.84230  0.71230  0.96390  Biso   1.000  F
  F29      1.0000 0.34230  0.78770  0.46390  Biso   1.000  F
  F30      1.0000 0.84230  0.28770  0.46390  Biso   1.000  F
  F31      1.0000 0.65770  0.78770  0.03610  Biso   1.000  F
  F32      1.0000 0.15770  0.28770  0.03610  Biso   1.000  F
  F33      1.0000 0.59130  0.09000  0.48310  Biso   1.000  F
  F34      1.0000 0.09130  0.59000  0.48310  Biso   1.000  F
  F35      1.0000 0.40870  0.09000  0.01690  Biso   1.000  F
  F36      1.0000 0.90870  0.59000  0.01690  Biso   1.000  F
  F37      1.0000 0.40870  0.91000  0.51690  Biso   1.000  F
  F38      1.0000 0.90870  0.41000  0.51690  Biso   1.000  F
  F39      1.0000 0.59130  0.91000  0.98310  Biso   1.000  F
  F40      1.0000 0.09130  0.41000  0.98310  Biso   1.000  F
  F41      1.0000 0.61400  0.97100  0.50100  Biso   1.000  F
  F42      1.0000 0.11400  0.47100  0.50100  Biso   1.000  F
  F43      1.0000 0.38600  0.97100  0.99900  Biso   1.000  F
  F44      1.0000 0.88600  0.47100  0.99900  Biso   1.000  F
  F45      1.0000 0.38600  0.02900  0.49900  Biso   1.000  F
  F46      1.0000 0.88600  0.52900  0.49900  Biso   1.000  F
  F47      1.0000 0.61400  0.02900  0.00100  Biso   1.000  F
  F48      1.0000 0.11400  0.52900  0.00100  Biso   1.000  F
  F49      1.0000 0.66800  0.95500  0.54700  Biso   1.000  F
  F50      1.0000 0.16800  0.45500  0.54700  Biso   1.000  F
  F51      1.0000 0.33200  0.95500  0.95300  Biso   1.000  F
  F52      1.0000 0.83200  0.45500  0.95300  Biso   1.000  F
  F53      1.0000 0.33200  0.04500  0.45300  Biso   1.000  F
  F54      1.0000 0.83200  0.54500  0.45300  Biso   1.000  F
  F55      1.0000 0.66800  0.04500  0.04700  Biso   1.000  F
  F56      1.0000 0.16800  0.54500  0.04700  Biso   1.000  F
  F57      1.0000 0.61610  0.02200  0.60200  Biso   1.000  F
  F58      1.0000 0.11610  0.52200  0.60200  Biso   1.000  F
  F59      1.0000 0.38390  0.02200  0.89800  Biso   1.000  F
  F60      1.0000 0.88390  0.52200  0.89800  Biso   1.000  F
  F61      1.0000 0.38390  0.97800  0.39800  Biso   1.000  F
  F62      1.0000 0.88390  0.47800  0.39800  Biso   1.000  F
  F63      1.0000 0.61610  0.97800  0.10200  Biso   1.000  F
  F64      1.0000 0.11610  0.47800  0.10200  Biso   1.000  F
  F65      1.0000 0.67310  0.93000  0.61300  Biso   1.000  F
  F66      1.0000 0.17310  0.43000  0.61300  Biso   1.000  F
  F67      1.0000 0.32690  0.93000  0.88700  Biso   1.000  F
  F68      1.0000 0.82690  0.43000  0.88700  Biso   1.000  F
  F69      1.0000 0.32690  0.07000  0.38700  Biso   1.000  F
  F70      1.0000 0.82690  0.57000  0.38700  Biso   1.000  F
  F71      1.0000 0.67310  0.07000  0.11300  Biso   1.000  F
  F72      1.0000 0.17310  0.57000  0.11300  Biso   1.000  F
  F73      1.0000 0.73030  0.07300  0.67430  Biso   1.000  F
  F74      1.0000 0.23030  0.57300  0.67430  Biso   1.000  F
  F75      1.0000 0.26970  0.07300  0.82570  Biso   1.000  F
  F76      1.0000 0.76970  0.57300  0.82570  Biso   1.000  F
  F77      1.0000 0.26970  0.92700  0.32570  Biso   1.000  F
  F78      1.0000 0.76970  0.42700  0.32570  Biso   1.000  F
  F79      1.0000 0.73030  0.92700  0.17430  Biso   1.000  F
  F80      1.0000 0.23030  0.42700  0.17430  Biso   1.000  F
  O1       1.0000 0.96660  0.00940  0.60240  Biso   1.000  O
  O2       1.0000 0.46660  0.50940  0.60240  Biso   1.000  O
  O3       1.0000 0.03340  0.00940  0.89760  Biso   1.000  O
  O4       1.0000 0.53340  0.50940  0.89760  Biso   1.000  O
  O5       1.0000 0.03340  0.99060  0.39760  Biso   1.000  O
  O6       1.0000 0.53340  0.49060  0.39760  Biso   1.000  O
  O7       1.0000 0.96660  0.99060  0.10240  Biso   1.000  O
  O8       1.0000 0.46660  0.49060  0.10240  Biso   1.000  O
  N1       1.0000 0.92830  0.88850  0.70650  Biso   1.000  N
  N2       1.0000 0.42830  0.38850  0.70650  Biso   1.000  N
  N3       1.0000 0.07170  0.88850  0.79350  Biso   1.000  N
  N4       1.0000 0.57170  0.38850  0.79350  Biso   1.000  N
  N5       1.0000 0.07170  0.11150  0.29350  Biso   1.000  N
  N6       1.0000 0.57170  0.61150  0.29350  Biso   1.000  N
  N7       1.0000 0.92830  0.11150  0.20650  Biso   1.000  N
  N8       1.0000 0.42830  0.61150  0.20650  Biso   1.000  N
  N9       1.0000 0.93540  0.19020  0.72120  Biso   1.000  N
  N10      1.0000 0.43540  0.69020  0.72120  Biso   1.000  N
  N11      1.0000 0.06460  0.19020  0.77880  Biso   1.000  N
  N12      1.0000 0.56460  0.69020  0.77880  Biso   1.000  N
  N13      1.0000 0.06460  0.80980  0.27880  Biso   1.000  N
  N14      1.0000 0.56460  0.30980  0.27880  Biso   1.000  N
  N15      1.0000 0.93540  0.80980  0.22120  Biso   1.000  N
  N16      1.0000 0.43540  0.30980  0.22120  Biso   1.000  N
  N17      1.0000 0.92670  0.89640  0.47660  Biso   1.000  N
  N18      1.0000 0.42670  0.39640  0.47660  Biso   1.000  N
  N19      1.0000 0.07330  0.89640  0.02340  Biso   1.000  N
  N20      1.0000 0.57330  0.39640  0.02340  Biso   1.000  N
  N21      1.0000 0.07330  0.10360  0.52340  Biso   1.000  N
  N22      1.0000 0.57330  0.60360  0.52340  Biso   1.000  N
  N23      1.0000 0.92670  0.10360  0.97660  Biso   1.000  N
  N24      1.0000 0.42670  0.60360  0.97660  Biso   1.000  N
  C1       1.0000 0.91340  0.78150  0.65210  Biso   1.000  C
  C2       1.0000 0.41340  0.28150  0.65210  Biso   1.000  C
  C3       1.0000 0.08660  0.78150  0.84790  Biso   1.000  C
  C4       1.0000 0.58660  0.28150  0.84790  Biso   1.000  C
  C5       1.0000 0.08660  0.21850  0.34790  Biso   1.000  C
  C6       1.0000 0.58660  0.71850  0.34790  Biso   1.000  C
  C7       1.0000 0.91340  0.21850  0.15210  Biso   1.000  C
  C8       1.0000 0.41340  0.71850  0.15210  Biso   1.000  C
  C9       1.0000 0.86090  0.68680  0.61650  Biso   1.000  C
  C10      1.0000 0.36090  0.18680  0.61650  Biso   1.000  C
  C11      1.0000 0.13910  0.68680  0.88350  Biso   1.000  C
  C12      1.0000 0.63910  0.18680  0.88350  Biso   1.000  C
  C13      1.0000 0.13910  0.31320  0.38350  Biso   1.000  C
  C14      1.0000 0.63910  0.81320  0.38350  Biso   1.000  C
  C15      1.0000 0.86090  0.31320  0.11650  Biso   1.000  C
  C16      1.0000 0.36090  0.81320  0.11650  Biso   1.000  C
  C17      1.0000 0.82100  0.69900  0.63530  Biso   1.000  C
  C18      1.0000 0.32100  0.19900  0.63530  Biso   1.000  C
  C19      1.0000 0.17900  0.69900  0.86470  Biso   1.000  C
  C20      1.0000 0.67900  0.19900  0.86470  Biso   1.000  C
  C21      1.0000 0.17900  0.30100  0.36470  Biso   1.000  C
  C22      1.0000 0.67900  0.80100  0.36470  Biso   1.000  C
  C23      1.0000 0.82100  0.30100  0.13530  Biso   1.000  C
  C24      1.0000 0.32100  0.80100  0.13530  Biso   1.000  C
  C25      1.0000 0.83720  0.80660  0.69320  Biso   1.000  C
  C26      1.0000 0.33720  0.30660  0.69320  Biso   1.000  C
  C27      1.0000 0.16280  0.80660  0.80680  Biso   1.000  C
  C28      1.0000 0.66280  0.30660  0.80680  Biso   1.000  C
  C29      1.0000 0.16280  0.19340  0.30680  Biso   1.000  C
  C30      1.0000 0.66280  0.69340  0.30680  Biso   1.000  C
  C31      1.0000 0.83720  0.19340  0.19320  Biso   1.000  C
  C32      1.0000 0.33720  0.69340  0.19320  Biso   1.000  C
  C33      1.0000 0.88910  0.89720  0.72520  Biso   1.000  C
  C34      1.0000 0.38910  0.39720  0.72520  Biso   1.000  C
  C35      1.0000 0.11090  0.89720  0.77480  Biso   1.000  C
  C36      1.0000 0.61090  0.39720  0.77480  Biso   1.000  C
  C37      1.0000 0.11090  0.10280  0.27480  Biso   1.000  C
  C38      1.0000 0.61090  0.60280  0.27480  Biso   1.000  C
  C39      1.0000 0.88910  0.10280  0.22520  Biso   1.000  C
  C40      1.0000 0.38910  0.60280  0.22520  Biso   1.000  C
  C41      1.0000 0.87250  0.20170  0.64120  Biso   1.000  C
  C42      1.0000 0.37250  0.70170  0.64120  Biso   1.000  C
  C43      1.0000 0.12750  0.20170  0.85880  Biso   1.000  C
  C44      1.0000 0.62750  0.70170  0.85880  Biso   1.000  C
  C45      1.0000 0.12750  0.79830  0.35880  Biso   1.000  C
  C46      1.0000 0.62750  0.29830  0.35880  Biso   1.000  C
  C47      1.0000 0.87250  0.79830  0.14120  Biso   1.000  C
  C48      1.0000 0.37250  0.29830  0.14120  Biso   1.000  C
  C49      1.0000 0.82470  0.29600  0.62300  Biso   1.000  C
  C50      1.0000 0.32470  0.79600  0.62300  Biso   1.000  C
  C51      1.0000 0.17530  0.29600  0.87700  Biso   1.000  C
  C52      1.0000 0.67530  0.79600  0.87700  Biso   1.000  C
  C53      1.0000 0.17530  0.70400  0.37700  Biso   1.000  C
  C54      1.0000 0.67530  0.20400  0.37700  Biso   1.000  C
  C55      1.0000 0.82470  0.70400  0.12300  Biso   1.000  C
  C56      1.0000 0.32470  0.20400  0.12300  Biso   1.000  C
  C57      1.0000 0.84190  0.38460  0.68930  Biso   1.000  C
  C58      1.0000 0.34190  0.88460  0.68930  Biso   1.000  C
  C59      1.0000 0.15810  0.38460  0.81070  Biso   1.000  C
  C60      1.0000 0.65810  0.88460  0.81070  Biso   1.000  C
  C61      1.0000 0.15810  0.61540  0.31070  Biso   1.000  C
  C62      1.0000 0.65810  0.11540  0.31070  Biso   1.000  C
  C63      1.0000 0.84190  0.61540  0.18930  Biso   1.000  C
  C64      1.0000 0.34190  0.11540  0.18930  Biso   1.000  C
  C65      1.0000 0.90790  0.37570  0.77040  Biso   1.000  C
  C66      1.0000 0.40790  0.87570  0.77040  Biso   1.000  C
  C67      1.0000 0.09210  0.37570  0.72960  Biso   1.000  C
  C68      1.0000 0.59210  0.87570  0.72960  Biso   1.000  C
  C69      1.0000 0.09210  0.62430  0.22960  Biso   1.000  C
  C70      1.0000 0.59210  0.12430  0.22960  Biso   1.000  C
  C71      1.0000 0.90790  0.62430  0.27040  Biso   1.000  C
  C72      1.0000 0.40790  0.12430  0.27040  Biso   1.000  C
  C73      1.0000 0.95290  0.27990  0.78460  Biso   1.000  C
  C74      1.0000 0.45290  0.77990  0.78460  Biso   1.000  C
  C75      1.0000 0.04710  0.27990  0.71540  Biso   1.000  C
  C76      1.0000 0.54710  0.77990  0.71540  Biso   1.000  C
  C77      1.0000 0.04710  0.72010  0.21540  Biso   1.000  C
  C78      1.0000 0.54710  0.22010  0.21540  Biso   1.000  C
  C79      1.0000 0.95290  0.72010  0.28460  Biso   1.000  C
  C80      1.0000 0.45290  0.22010  0.28460  Biso   1.000  C
  C81      1.0000 0.76420  0.59620  0.60020  Biso   1.000  C
  C82      1.0000 0.26420  0.09620  0.60020  Biso   1.000  C
  C83      1.0000 0.23580  0.59620  0.89980  Biso   1.000  C
  C84      1.0000 0.73580  0.09620  0.89980  Biso   1.000  C
  C85      1.0000 0.23580  0.40380  0.39980  Biso   1.000  C
  C86      1.0000 0.73580  0.90380  0.39980  Biso   1.000  C
  C87      1.0000 0.76420  0.40380  0.10020  Biso   1.000  C
  C88      1.0000 0.26420  0.90380  0.10020  Biso   1.000  C
  C89      1.0000 0.78860  0.48160  0.67030  Biso   1.000  C
  C90      1.0000 0.28860  0.98160  0.67030  Biso   1.000  C
  C91      1.0000 0.21140  0.48160  0.82970  Biso   1.000  C
  C92      1.0000 0.71140  0.98160  0.82970  Biso   1.000  C
  C93      1.0000 0.21140  0.51840  0.32970  Biso   1.000  C
  C94      1.0000 0.71140  0.01840  0.32970  Biso   1.000  C
  C95      1.0000 0.78860  0.51840  0.17030  Biso   1.000  C
  C96      1.0000 0.28860  0.01840  0.17030  Biso   1.000  C
  C97      1.0000 0.87540  0.89090  0.38000  Biso   1.000  C
  C98      1.0000 0.37540  0.39090  0.38000  Biso   1.000  C
  C99      1.0000 0.12460  0.89090  0.12000  Biso   1.000  C
  C100     1.0000 0.62460  0.39090  0.12000  Biso   1.000  C
  C101     1.0000 0.12460  0.10910  0.62000  Biso   1.000  C
  C102     1.0000 0.62460  0.60910  0.62000  Biso   1.000  C
  C103     1.0000 0.87540  0.10910  0.88000  Biso   1.000  C
  C104     1.0000 0.37540  0.60910  0.88000  Biso   1.000  C
  C105     1.0000 0.98080  0.79160  0.52520  Biso   1.000  C
  C106     1.0000 0.48080  0.29160  0.52520  Biso   1.000  C
  C107     1.0000 0.01920  0.79160  0.97480  Biso   1.000  C
  C108     1.0000 0.51920  0.29160  0.97480  Biso   1.000  C
  C109     1.0000 0.01920  0.20840  0.47480  Biso   1.000  C
  C110     1.0000 0.51920  0.70840  0.47480  Biso   1.000  C
  C111     1.0000 0.98080  0.20840  0.02520  Biso   1.000  C
  C112     1.0000 0.48080  0.70840  0.02520  Biso   1.000  C
  C113     1.0000 0.92570  0.99590  0.52110  Biso   1.000  C
  C114     1.0000 0.42570  0.49590  0.52110  Biso   1.000  C
  C115     1.0000 0.07430  0.99590  0.97890  Biso   1.000  C
  C116     1.0000 0.57430  0.49590  0.97890  Biso   1.000  C
  C117     1.0000 0.07430  0.00410  0.47890  Biso   1.000  C
  C118     1.0000 0.57430  0.50410  0.47890  Biso   1.000  C
  C119     1.0000 0.92570  0.00410  0.02110  Biso   1.000  C
  C120     1.0000 0.42570  0.50410  0.02110  Biso   1.000  C
  H1       1.0000 0.94010  0.77040  0.63760  Biso   1.000  H
  H2       1.0000 0.44010  0.27040  0.63760  Biso   1.000  H
  H3       1.0000 0.05990  0.77040  0.86240  Biso   1.000  H
  H4       1.0000 0.55990  0.27040  0.86240  Biso   1.000  H
  H5       1.0000 0.05990  0.22960  0.36240  Biso   1.000  H
  H6       1.0000 0.55990  0.72960  0.36240  Biso   1.000  H
  H7       1.0000 0.94010  0.22960  0.13760  Biso   1.000  H
  H8       1.0000 0.44010  0.72960  0.13760  Biso   1.000  H
  H9       1.0000 0.85240  0.61330  0.57850  Biso   1.000  H
  H10      1.0000 0.35240  0.11330  0.57850  Biso   1.000  H
  H11      1.0000 0.14760  0.61330  0.92150  Biso   1.000  H
  H12      1.0000 0.64760  0.11330  0.92150  Biso   1.000  H
  H13      1.0000 0.14760  0.38670  0.42150  Biso   1.000  H
  H14      1.0000 0.64760  0.88670  0.42150  Biso   1.000  H
  H15      1.0000 0.85240  0.38670  0.07850  Biso   1.000  H
  H16      1.0000 0.35240  0.88670  0.07850  Biso   1.000  H
  H17      1.0000 0.81240  0.81710  0.71050  Biso   1.000  H
  H18      1.0000 0.31240  0.31710  0.71050  Biso   1.000  H
  H19      1.0000 0.18760  0.81710  0.78950  Biso   1.000  H
  H20      1.0000 0.68760  0.31710  0.78950  Biso   1.000  H
  H21      1.0000 0.18760  0.18290  0.28950  Biso   1.000  H
  H22      1.0000 0.68760  0.68290  0.28950  Biso   1.000  H
  H23      1.0000 0.81240  0.18290  0.21050  Biso   1.000  H
  H24      1.0000 0.31240  0.68290  0.21050  Biso   1.000  H
  H25      1.0000 0.89850  0.97150  0.76340  Biso   1.000  H
  H26      1.0000 0.39850  0.47150  0.76340  Biso   1.000  H
  H27      1.0000 0.10150  0.97150  0.73660  Biso   1.000  H
  H28      1.0000 0.60150  0.47150  0.73660  Biso   1.000  H
  H29      1.0000 0.10150  0.02850  0.23660  Biso   1.000  H
  H30      1.0000 0.60150  0.52850  0.23660  Biso   1.000  H
  H31      1.0000 0.89850  0.02850  0.26340  Biso   1.000  H
  H32      1.0000 0.39850  0.52850  0.26340  Biso   1.000  H
  H33      1.0000 0.85980  0.14390  0.59400  Biso   1.000  H
  H34      1.0000 0.35980  0.64390  0.59400  Biso   1.000  H
  H35      1.0000 0.14020  0.14390  0.90600  Biso   1.000  H
  H36      1.0000 0.64020  0.64390  0.90600  Biso   1.000  H
  H37      1.0000 0.14020  0.85610  0.40600  Biso   1.000  H
  H38      1.0000 0.64020  0.35610  0.40600  Biso   1.000  H
  H39      1.0000 0.85980  0.85610  0.09400  Biso   1.000  H
  H40      1.0000 0.35980  0.35610  0.09400  Biso   1.000  H
  H41      1.0000 0.77990  0.29850  0.56510  Biso   1.000  H
  H42      1.0000 0.27990  0.79850  0.56510  Biso   1.000  H
  H43      1.0000 0.22010  0.29850  0.93490  Biso   1.000  H
  H44      1.0000 0.72010  0.79850  0.93490  Biso   1.000  H
  H45      1.0000 0.22010  0.70150  0.43490  Biso   1.000  H
  H46      1.0000 0.72010  0.20150  0.43490  Biso   1.000  H
  H47      1.0000 0.77990  0.70150  0.06510  Biso   1.000  H
  H48      1.0000 0.27990  0.20150  0.06510  Biso   1.000  H
  H49      1.0000 0.92270  0.43650  0.81770  Biso   1.000  H
  H50      1.0000 0.42270  0.93650  0.81770  Biso   1.000  H
  H51      1.0000 0.07730  0.43650  0.68230  Biso   1.000  H
  H52      1.0000 0.57730  0.93650  0.68230  Biso   1.000  H
  H53      1.0000 0.07730  0.56350  0.18230  Biso   1.000  H
  H54      1.0000 0.57730  0.06350  0.18230  Biso   1.000  H
  H55      1.0000 0.92270  0.56350  0.31770  Biso   1.000  H
  H56      1.0000 0.42270  0.06350  0.31770  Biso   1.000  H
  H57      1.0000 0.99840  0.27700  0.84170  Biso   1.000  H
  H58      1.0000 0.49840  0.77700  0.84170  Biso   1.000  H
  H59      1.0000 0.00160  0.27700  0.65830  Biso   1.000  H
  H60      1.0000 0.50160  0.77700  0.65830  Biso   1.000  H
  H61      1.0000 0.00160  0.72300  0.15830  Biso   1.000  H
  H62      1.0000 0.50160  0.22300  0.15830  Biso   1.000  H
  H63      1.0000 0.99840  0.72300  0.34170  Biso   1.000  H
  H64      1.0000 0.49840  0.22300  0.34170  Biso   1.000  H
  H65      1.0000 0.72690  0.64600  0.58520  Biso   1.000  H
  H66      1.0000 0.22690  0.14600  0.58520  Biso   1.000  H
  H67      1.0000 0.27310  0.64600  0.91480  Biso   1.000  H
  H68      1.0000 0.77310  0.14600  0.91480  Biso   1.000  H
  H69      1.0000 0.27310  0.35400  0.41480  Biso   1.000  H
  H70      1.0000 0.77310  0.85400  0.41480  Biso   1.000  H
  H71      1.0000 0.72690  0.35400  0.08520  Biso   1.000  H
  H72      1.0000 0.22690  0.85400  0.08520  Biso   1.000  H
  H73      1.0000 0.74980  0.55160  0.54790  Biso   1.000  H
  H74      1.0000 0.24980  0.05160  0.54790  Biso   1.000  H
  H75      1.0000 0.25020  0.55160  0.95210  Biso   1.000  H
  H76      1.0000 0.75020  0.05160  0.95210  Biso   1.000  H
  H77      1.0000 0.25020  0.44840  0.45210  Biso   1.000  H
  H78      1.0000 0.75020  0.94840  0.45210  Biso   1.000  H
  H79      1.0000 0.74980  0.44840  0.04790  Biso   1.000  H
  H80      1.0000 0.24980  0.94840  0.04790  Biso   1.000  H
  H81      1.0000 0.75030  0.42670  0.64900  Biso   1.000  H
  H82      1.0000 0.25030  0.92670  0.64900  Biso   1.000  H
  H83      1.0000 0.24970  0.42670  0.85100  Biso   1.000  H
  H84      1.0000 0.74970  0.92670  0.85100  Biso   1.000  H
  H85      1.0000 0.24970  0.57330  0.35100  Biso   1.000  H
  H86      1.0000 0.74970  0.07330  0.35100  Biso   1.000  H
  H87      1.0000 0.75030  0.57330  0.14900  Biso   1.000  H
  H88      1.0000 0.25030  0.07330  0.14900  Biso   1.000  H
  H89      1.0000 0.80770  0.52700  0.72460  Biso   1.000  H
  H90      1.0000 0.30770  0.02700  0.72460  Biso   1.000  H
  H91      1.0000 0.19230  0.52700  0.77540  Biso   1.000  H
  H92      1.0000 0.69230  0.02700  0.77540  Biso   1.000  H
  H93      1.0000 0.19230  0.47300  0.27540  Biso   1.000  H
  H94      1.0000 0.69230  0.97300  0.27540  Biso   1.000  H
  H95      1.0000 0.80770  0.47300  0.22460  Biso   1.000  H
  H96      1.0000 0.30770  0.97300  0.22460  Biso   1.000  H
  H97      1.0000 0.87700  0.97570  0.35660  Biso   1.000  H
  H98      1.0000 0.37700  0.47570  0.35660  Biso   1.000  H
  H99      1.0000 0.12300  0.97570  0.14340  Biso   1.000  H
  H100     1.0000 0.62300  0.47570  0.14340  Biso   1.000  H
  H101     1.0000 0.12300  0.02430  0.64340  Biso   1.000  H
  H102     1.0000 0.62300  0.52430  0.64340  Biso   1.000  H
  H103     1.0000 0.87700  0.02430  0.85660  Biso   1.000  H
  H104     1.0000 0.37700  0.52430  0.85660  Biso   1.000  H
  H105     1.0000 0.88380  0.81270  0.36000  Biso   1.000  H
  H106     1.0000 0.38380  0.31270  0.36000  Biso   1.000  H
  H107     1.0000 0.11620  0.81270  0.14000  Biso   1.000  H
  H108     1.0000 0.61620  0.31270  0.14000  Biso   1.000  H
  H109     1.0000 0.11620  0.18730  0.64000  Biso   1.000  H
  H110     1.0000 0.61620  0.68730  0.64000  Biso   1.000  H
  H111     1.0000 0.88380  0.18730  0.86000  Biso   1.000  H
  H112     1.0000 0.38380  0.68730  0.86000  Biso   1.000  H
  H113     1.0000 0.83140  0.88190  0.35990  Biso   1.000  H
  H114     1.0000 0.33140  0.38190  0.35990  Biso   1.000  H
  H115     1.0000 0.16860  0.88190  0.14010  Biso   1.000  H
  H116     1.0000 0.66860  0.38190  0.14010  Biso   1.000  H
  H117     1.0000 0.16860  0.11810  0.64010  Biso   1.000  H
  H118     1.0000 0.66860  0.61810  0.64010  Biso   1.000  H
  H119     1.0000 0.83140  0.11810  0.85990  Biso   1.000  H
  H120     1.0000 0.33140  0.61810  0.85990  Biso   1.000  H
  H121     1.0000 0.97880  0.73830  0.56270  Biso   1.000  H
  H122     1.0000 0.47880  0.23830  0.56270  Biso   1.000  H
  H123     1.0000 0.02120  0.73830  0.93730  Biso   1.000  H
  H124     1.0000 0.52120  0.23830  0.93730  Biso   1.000  H
  H125     1.0000 0.02120  0.26170  0.43730  Biso   1.000  H
  H126     1.0000 0.52120  0.76170  0.43730  Biso   1.000  H
  H127     1.0000 0.97880  0.26170  0.06270  Biso   1.000  H
  H128     1.0000 0.47880  0.76170  0.06270  Biso   1.000  H
  H129     1.0000 0.97510  0.72970  0.48410  Biso   1.000  H
  H130     1.0000 0.47510  0.22970  0.48410  Biso   1.000  H
  H131     1.0000 0.02490  0.72970  0.01590  Biso   1.000  H
  H132     1.0000 0.52490  0.22970  0.01590  Biso   1.000  H
  H133     1.0000 0.02490  0.27030  0.51590  Biso   1.000  H
  H134     1.0000 0.52490  0.77030  0.51590  Biso   1.000  H
  H135     1.0000 0.97510  0.27030  0.98410  Biso   1.000  H
  H136     1.0000 0.47510  0.77030  0.98410  Biso   1.000  H
  H137     1.0000 0.02400  0.83690  0.56100  Biso   1.000  H
  H138     1.0000 0.52400  0.33690  0.56100  Biso   1.000  H
  H139     1.0000 0.97600  0.83690  0.93900  Biso   1.000  H
  H140     1.0000 0.47600  0.33690  0.93900  Biso   1.000  H
  H141     1.0000 0.97600  0.16310  0.43900  Biso   1.000  H
  H142     1.0000 0.47600  0.66310  0.43900  Biso   1.000  H
  H143     1.0000 0.02400  0.16310  0.06100  Biso   1.000  H
  H144     1.0000 0.52400  0.66310  0.06100  Biso   1.000  H
  H145     1.0000 0.88940  0.06260  0.48640  Biso   1.000  H
  H146     1.0000 0.38940  0.56260  0.48640  Biso   1.000  H
  H147     1.0000 0.11060  0.06260  0.01360  Biso   1.000  H
  H148     1.0000 0.61060  0.56260  0.01360  Biso   1.000  H
  H149     1.0000 0.11060  0.93740  0.51360  Biso   1.000  H
  H150     1.0000 0.61060  0.43740  0.51360  Biso   1.000  H
  H151     1.0000 0.88940  0.93740  0.98640  Biso   1.000  H
  H152     1.0000 0.38940  0.43740  0.98640  Biso   1.000  H
