data_image0
_cell_length_a       11.2924
_cell_length_b       9.1456
_cell_length_c       22.5267
_cell_angle_alpha    90
_cell_angle_beta     103.691
_cell_angle_gamma    90

_symmetry_space_group_name_H-M    "P 1"
_symmetry_int_tables_number       1

loop_
  _symmetry_equiv_pos_as_xyz
  'x, y, z'

loop_
  _atom_site_label
  _atom_site_occupancy
  _atom_site_fract_x
  _atom_site_fract_y
  _atom_site_fract_z
  _atom_site_thermal_displace_type
  _atom_site_B_iso_or_equiv
  _atom_site_type_symbol
  Cu1      1.0000 0.00000  0.47684  0.25000  Biso   1.000  Cu
  Cu2      1.0000 0.00000  0.52316  0.75000  Biso   1.000  Cu
  P1       1.0000 0.73360  0.96700  0.38205  Biso   1.000  P
  P2       1.0000 0.26640  0.96700  0.11795  Biso   1.000  P
  P3       1.0000 0.26640  0.03300  0.61795  Biso   1.000  P
  P4       1.0000 0.73360  0.03300  0.88205  Biso   1.000  P
  F1       1.0000 0.84920  0.97020  0.43890  Biso   1.000  F
  F2       1.0000 0.15080  0.97020  0.06110  Biso   1.000  F
  F3       1.0000 0.15080  0.02980  0.56110  Biso   1.000  F
  F4       1.0000 0.84920  0.02980  0.93890  Biso   1.000  F
  F5       1.0000 0.68390  0.11440  0.40590  Biso   1.000  F
  F6       1.0000 0.31610  0.11440  0.09410  Biso   1.000  F
  F7       1.0000 0.31610  0.88560  0.59410  Biso   1.000  F
  F8       1.0000 0.68390  0.88560  0.90590  Biso   1.000  F
  F9       1.0000 0.66230  0.87540  0.42150  Biso   1.000  F
  F10      1.0000 0.33770  0.87540  0.07850  Biso   1.000  F
  F11      1.0000 0.33770  0.12460  0.57850  Biso   1.000  F
  F12      1.0000 0.66230  0.12460  0.92150  Biso   1.000  F
  F13      1.0000 0.61860  0.96570  0.32520  Biso   1.000  F
  F14      1.0000 0.38140  0.96570  0.17480  Biso   1.000  F
  F15      1.0000 0.38140  0.03430  0.67480  Biso   1.000  F
  F16      1.0000 0.61860  0.03430  0.82520  Biso   1.000  F
  F17      1.0000 0.78160  0.81730  0.35900  Biso   1.000  F
  F18      1.0000 0.21840  0.81730  0.14100  Biso   1.000  F
  F19      1.0000 0.21840  0.18270  0.64100  Biso   1.000  F
  F20      1.0000 0.78160  0.18270  0.85900  Biso   1.000  F
  F21      1.0000 0.80680  0.05810  0.34320  Biso   1.000  F
  F22      1.0000 0.19320  0.05810  0.15680  Biso   1.000  F
  F23      1.0000 0.19320  0.94190  0.65680  Biso   1.000  F
  F24      1.0000 0.80680  0.94190  0.84320  Biso   1.000  F
  O1       1.0000 0.86530  0.47590  0.31660  Biso   1.000  O
  O2       1.0000 0.13470  0.47590  0.18340  Biso   1.000  O
  O3       1.0000 0.13470  0.52410  0.68340  Biso   1.000  O
  O4       1.0000 0.86530  0.52410  0.81660  Biso   1.000  O
  O5       1.0000 0.61940  0.45830  0.28480  Biso   1.000  O
  O6       1.0000 0.38060  0.45830  0.21520  Biso   1.000  O
  O7       1.0000 0.38060  0.54170  0.71520  Biso   1.000  O
  O8       1.0000 0.61940  0.54170  0.78480  Biso   1.000  O
  O9       1.0000 0.93050  0.49930  0.44000  Biso   1.000  O
  O10      1.0000 0.06950  0.49930  0.06000  Biso   1.000  O
  O11      1.0000 0.06950  0.50070  0.56000  Biso   1.000  O
  O12      1.0000 0.93050  0.50070  0.94000  Biso   1.000  O
  O13      1.0000 0.52500  0.65020  0.49910  Biso   1.000  O
  O14      1.0000 0.47500  0.65020  0.00090  Biso   1.000  O
  O15      1.0000 0.47500  0.34980  0.50090  Biso   1.000  O
  O16      1.0000 0.52500  0.34980  0.99910  Biso   1.000  O
  N1       1.0000 0.89420  0.31970  0.19810  Biso   1.000  N
  N2       1.0000 0.10580  0.31970  0.30190  Biso   1.000  N
  N3       1.0000 0.10580  0.68030  0.80190  Biso   1.000  N
  N4       1.0000 0.89420  0.68030  0.69810  Biso   1.000  N
  N5       1.0000 0.89910  0.63290  0.19620  Biso   1.000  N
  N6       1.0000 0.10090  0.63290  0.30380  Biso   1.000  N
  N7       1.0000 0.10090  0.36710  0.80380  Biso   1.000  N
  N8       1.0000 0.89910  0.36710  0.69620  Biso   1.000  N
  C1       1.0000 0.86790  0.32500  0.13670  Biso   1.000  C
  C2       1.0000 0.13210  0.32500  0.36330  Biso   1.000  C
  C3       1.0000 0.13210  0.67500  0.86330  Biso   1.000  C
  C4       1.0000 0.86790  0.67500  0.63670  Biso   1.000  C
  C5       1.0000 0.78270  0.23610  0.10060  Biso   1.000  C
  C6       1.0000 0.21730  0.23610  0.39940  Biso   1.000  C
  C7       1.0000 0.21730  0.76390  0.89940  Biso   1.000  C
  C8       1.0000 0.78270  0.76390  0.60060  Biso   1.000  C
  C9       1.0000 0.71750  0.13530  0.12800  Biso   1.000  C
  C10      1.0000 0.28250  0.13530  0.37200  Biso   1.000  C
  C11      1.0000 0.28250  0.86470  0.87200  Biso   1.000  C
  C12      1.0000 0.71750  0.86470  0.62800  Biso   1.000  C
  C13      1.0000 0.74700  0.12980  0.19100  Biso   1.000  C
  C14      1.0000 0.25300  0.12980  0.30900  Biso   1.000  C
  C15      1.0000 0.25300  0.87020  0.80900  Biso   1.000  C
  C16      1.0000 0.74700  0.87020  0.69100  Biso   1.000  C
  C17      1.0000 0.83410  0.21970  0.22450  Biso   1.000  C
  C18      1.0000 0.16590  0.21970  0.27550  Biso   1.000  C
  C19      1.0000 0.16590  0.78030  0.77550  Biso   1.000  C
  C20      1.0000 0.83410  0.78030  0.72450  Biso   1.000  C
  C21      1.0000 0.95440  0.73600  0.16890  Biso   1.000  C
  C22      1.0000 0.04560  0.73600  0.33110  Biso   1.000  C
  C23      1.0000 0.04560  0.26400  0.83110  Biso   1.000  C
  C24      1.0000 0.95440  0.26400  0.66890  Biso   1.000  C
  C25      1.0000 0.88920  0.82930  0.12460  Biso   1.000  C
  C26      1.0000 0.11080  0.82930  0.37540  Biso   1.000  C
  C27      1.0000 0.11080  0.17070  0.87540  Biso   1.000  C
  C28      1.0000 0.88920  0.17070  0.62460  Biso   1.000  C
  C29      1.0000 0.76330  0.81850  0.10690  Biso   1.000  C
  C30      1.0000 0.23670  0.81850  0.39310  Biso   1.000  C
  C31      1.0000 0.23670  0.18150  0.89310  Biso   1.000  C
  C32      1.0000 0.76330  0.18150  0.60690  Biso   1.000  C
  C33      1.0000 0.70740  0.71620  0.13670  Biso   1.000  C
  C34      1.0000 0.29260  0.71620  0.36330  Biso   1.000  C
  C35      1.0000 0.29260  0.28380  0.86330  Biso   1.000  C
  C36      1.0000 0.70740  0.28380  0.63670  Biso   1.000  C
  C37      1.0000 0.77740  0.62680  0.18050  Biso   1.000  C
  C38      1.0000 0.22260  0.62680  0.31950  Biso   1.000  C
  C39      1.0000 0.22260  0.37320  0.81950  Biso   1.000  C
  C40      1.0000 0.77740  0.37320  0.68050  Biso   1.000  C
  C41      1.0000 0.62440  0.03950  0.08780  Biso   1.000  C
  C42      1.0000 0.37560  0.03950  0.41220  Biso   1.000  C
  C43      1.0000 0.37560  0.96050  0.91220  Biso   1.000  C
  C44      1.0000 0.62440  0.96050  0.58780  Biso   1.000  C
  C45      1.0000 0.68710  0.91530  0.05850  Biso   1.000  C
  C46      1.0000 0.31290  0.91530  0.44150  Biso   1.000  C
  C47      1.0000 0.31290  0.08470  0.94150  Biso   1.000  C
  C48      1.0000 0.68710  0.08470  0.55850  Biso   1.000  C
  C49      1.0000 0.54640  0.58690  0.27960  Biso   1.000  C
  C50      1.0000 0.45360  0.58690  0.22040  Biso   1.000  C
  C51      1.0000 0.45360  0.41310  0.72040  Biso   1.000  C
  C52      1.0000 0.54640  0.41310  0.77960  Biso   1.000  C
  C53      1.0000 0.54580  0.32870  0.27950  Biso   1.000  C
  C54      1.0000 0.45420  0.32870  0.22050  Biso   1.000  C
  C55      1.0000 0.45420  0.67130  0.72050  Biso   1.000  C
  C56      1.0000 0.54580  0.67130  0.77950  Biso   1.000  C
  C57      1.0000 0.94560  0.62930  0.47520  Biso   1.000  C
  C58      1.0000 0.05440  0.62930  0.02480  Biso   1.000  C
  C59      1.0000 0.05440  0.37070  0.52480  Biso   1.000  C
  C60      1.0000 0.94560  0.37070  0.97520  Biso   1.000  C
  C61      1.0000 0.93560  0.37500  0.47750  Biso   1.000  C
  C62      1.0000 0.06440  0.37500  0.02250  Biso   1.000  C
  C63      1.0000 0.06440  0.62500  0.52250  Biso   1.000  C
  C64      1.0000 0.93560  0.62500  0.97750  Biso   1.000  C
  C65      1.0000 0.59760  0.54690  0.47670  Biso   1.000  C
  C66      1.0000 0.40240  0.54690  0.02330  Biso   1.000  C
  C67      1.0000 0.40240  0.45310  0.52330  Biso   1.000  C
  C68      1.0000 0.59760  0.45310  0.97670  Biso   1.000  C
  C69      1.0000 0.47690  0.58820  0.54640  Biso   1.000  C
  C70      1.0000 0.52310  0.58820  0.95360  Biso   1.000  C
  C71      1.0000 0.52310  0.41180  0.45360  Biso   1.000  C
  C72      1.0000 0.47690  0.41180  0.04640  Biso   1.000  C
  H1       1.0000 0.91030  0.39450  0.11750  Biso   1.000  H
  H2       1.0000 0.08970  0.39450  0.38250  Biso   1.000  H
  H3       1.0000 0.08970  0.60550  0.88250  Biso   1.000  H
  H4       1.0000 0.91030  0.60550  0.61750  Biso   1.000  H
  H5       1.0000 0.76880  0.24140  0.05710  Biso   1.000  H
  H6       1.0000 0.23120  0.24140  0.44290  Biso   1.000  H
  H7       1.0000 0.23120  0.75860  0.94290  Biso   1.000  H
  H8       1.0000 0.76880  0.75860  0.55710  Biso   1.000  H
  H9       1.0000 0.70640  0.06150  0.21130  Biso   1.000  H
  H10      1.0000 0.29360  0.06150  0.28870  Biso   1.000  H
  H11      1.0000 0.29360  0.93850  0.78870  Biso   1.000  H
  H12      1.0000 0.70640  0.93850  0.71130  Biso   1.000  H
  H13      1.0000 0.85330  0.21340  0.26820  Biso   1.000  H
  H14      1.0000 0.14670  0.21340  0.23180  Biso   1.000  H
  H15      1.0000 0.14670  0.78660  0.73180  Biso   1.000  H
  H16      1.0000 0.85330  0.78660  0.76820  Biso   1.000  H
  H17      1.0000 0.04170  0.74450  0.18080  Biso   1.000  H
  H18      1.0000 0.95830  0.74450  0.31920  Biso   1.000  H
  H19      1.0000 0.95830  0.25550  0.81920  Biso   1.000  H
  H20      1.0000 0.04170  0.25550  0.68080  Biso   1.000  H
  H21      1.0000 0.93050  0.90100  0.10620  Biso   1.000  H
  H22      1.0000 0.06950  0.90100  0.39380  Biso   1.000  H
  H23      1.0000 0.06950  0.09900  0.89380  Biso   1.000  H
  H24      1.0000 0.93050  0.09900  0.60620  Biso   1.000  H
  H25      1.0000 0.61980  0.70760  0.12730  Biso   1.000  H
  H26      1.0000 0.38020  0.70760  0.37270  Biso   1.000  H
  H27      1.0000 0.38020  0.29240  0.87270  Biso   1.000  H
  H28      1.0000 0.61980  0.29240  0.62730  Biso   1.000  H
  H29      1.0000 0.73790  0.55710  0.20050  Biso   1.000  H
  H30      1.0000 0.26210  0.55710  0.29950  Biso   1.000  H
  H31      1.0000 0.26210  0.44290  0.79950  Biso   1.000  H
  H32      1.0000 0.73790  0.44290  0.70050  Biso   1.000  H
  H33      1.0000 0.57320  0.99750  0.11130  Biso   1.000  H
  H34      1.0000 0.42680  0.99750  0.38870  Biso   1.000  H
  H35      1.0000 0.42680  0.00250  0.88870  Biso   1.000  H
  H36      1.0000 0.57320  0.00250  0.61130  Biso   1.000  H
  H37      1.0000 0.57450  0.09820  0.05600  Biso   1.000  H
  H38      1.0000 0.42550  0.09820  0.44400  Biso   1.000  H
  H39      1.0000 0.42550  0.90180  0.94400  Biso   1.000  H
  H40      1.0000 0.57450  0.90180  0.55600  Biso   1.000  H
  H41      1.0000 0.73700  0.95720  0.03410  Biso   1.000  H
  H42      1.0000 0.26300  0.95720  0.46590  Biso   1.000  H
  H43      1.0000 0.26300  0.04280  0.96590  Biso   1.000  H
  H44      1.0000 0.73700  0.04280  0.53410  Biso   1.000  H
  H45      1.0000 0.62560  0.85640  0.03200  Biso   1.000  H
  H46      1.0000 0.37440  0.85640  0.46800  Biso   1.000  H
  H47      1.0000 0.37440  0.14360  0.96800  Biso   1.000  H
  H48      1.0000 0.62560  0.14360  0.53200  Biso   1.000  H
  H49      1.0000 0.50480  0.58860  0.31210  Biso   1.000  H
  H50      1.0000 0.49520  0.58860  0.18790  Biso   1.000  H
  H51      1.0000 0.49520  0.41140  0.68790  Biso   1.000  H
  H52      1.0000 0.50480  0.41140  0.81210  Biso   1.000  H
  H53      1.0000 0.59590  0.67160  0.28250  Biso   1.000  H
  H54      1.0000 0.40410  0.67160  0.21750  Biso   1.000  H
  H55      1.0000 0.40410  0.32840  0.71750  Biso   1.000  H
  H56      1.0000 0.59590  0.32840  0.78250  Biso   1.000  H
  H57      1.0000 0.59540  0.24440  0.28250  Biso   1.000  H
  H58      1.0000 0.40460  0.24440  0.21750  Biso   1.000  H
  H59      1.0000 0.40460  0.75560  0.71750  Biso   1.000  H
  H60      1.0000 0.59540  0.75560  0.78250  Biso   1.000  H
  H61      1.0000 0.50350  0.32690  0.31180  Biso   1.000  H
  H62      1.0000 0.49650  0.32690  0.18820  Biso   1.000  H
  H63      1.0000 0.49650  0.67310  0.68820  Biso   1.000  H
  H64      1.0000 0.50350  0.67310  0.81180  Biso   1.000  H
  H65      1.0000 0.94430  0.71250  0.44940  Biso   1.000  H
  H66      1.0000 0.05570  0.71250  0.05060  Biso   1.000  H
  H67      1.0000 0.05570  0.28750  0.55060  Biso   1.000  H
  H68      1.0000 0.94430  0.28750  0.94940  Biso   1.000  H
  H69      1.0000 0.88080  0.63950  0.49580  Biso   1.000  H
  H70      1.0000 0.11920  0.63950  0.00420  Biso   1.000  H
  H71      1.0000 0.11920  0.36050  0.50420  Biso   1.000  H
  H72      1.0000 0.88080  0.36050  0.99580  Biso   1.000  H
  H73      1.0000 0.87080  0.37910  0.49860  Biso   1.000  H
  H74      1.0000 0.12920  0.37910  0.00140  Biso   1.000  H
  H75      1.0000 0.12920  0.62090  0.50140  Biso   1.000  H
  H76      1.0000 0.87080  0.62090  0.99860  Biso   1.000  H
  H77      1.0000 0.92670  0.28850  0.45370  Biso   1.000  H
  H78      1.0000 0.07330  0.28850  0.04630  Biso   1.000  H
  H79      1.0000 0.07330  0.71150  0.54630  Biso   1.000  H
  H80      1.0000 0.92670  0.71150  0.95370  Biso   1.000  H
  H81      1.0000 0.62820  0.58990  0.44460  Biso   1.000  H
  H82      1.0000 0.37180  0.58990  0.05540  Biso   1.000  H
  H83      1.0000 0.37180  0.41010  0.55540  Biso   1.000  H
  H84      1.0000 0.62820  0.41010  0.94460  Biso   1.000  H
  H85      1.0000 0.66610  0.51930  0.50890  Biso   1.000  H
  H86      1.0000 0.33390  0.51930  0.99110  Biso   1.000  H
  H87      1.0000 0.33390  0.48070  0.49110  Biso   1.000  H
  H88      1.0000 0.66610  0.48070  0.00890  Biso   1.000  H
  H89      1.0000 0.54260  0.56070  0.58010  Biso   1.000  H
  H90      1.0000 0.45740  0.56070  0.91990  Biso   1.000  H
  H91      1.0000 0.45740  0.43930  0.41990  Biso   1.000  H
  H92      1.0000 0.54260  0.43930  0.08010  Biso   1.000  H
  H93      1.0000 0.42750  0.65820  0.56070  Biso   1.000  H
  H94      1.0000 0.57250  0.65820  0.93930  Biso   1.000  H
  H95      1.0000 0.57250  0.34180  0.43930  Biso   1.000  H
  H96      1.0000 0.42750  0.34180  0.06070  Biso   1.000  H
