data_image0
_cell_length_a       9.3168
_cell_length_b       23.612
_cell_length_c       16.71
_cell_angle_alpha    90
_cell_angle_beta     90
_cell_angle_gamma    90

_symmetry_space_group_name_H-M    "P 1"
_symmetry_int_tables_number       1

loop_
  _symmetry_equiv_pos_as_xyz
  'x, y, z'

loop_
  _atom_site_label
  _atom_site_occupancy
  _atom_site_fract_x
  _atom_site_fract_y
  _atom_site_fract_z
  _atom_site_thermal_displace_type
  _atom_site_B_iso_or_equiv
  _atom_site_type_symbol
  Cu1      1.0000 0.73384  0.25000  0.50000  Biso   1.000  Cu
  Cu2      1.0000 0.26616  0.75000  0.00000  Biso   1.000  Cu
  Cu3      1.0000 0.26616  0.75000  0.50000  Biso   1.000  Cu
  Cu4      1.0000 0.73384  0.25000  0.00000  Biso   1.000  Cu
  P1       1.0000 0.26440  0.24648  0.75000  Biso   1.000  P
  P2       1.0000 0.26440  0.25352  0.25000  Biso   1.000  P
  P3       1.0000 0.73560  0.74648  0.75000  Biso   1.000  P
  P4       1.0000 0.73560  0.75352  0.25000  Biso   1.000  P
  P5       1.0000 0.82510  0.02583  0.75000  Biso   1.000  P
  P6       1.0000 0.82510  0.47417  0.25000  Biso   1.000  P
  P7       1.0000 0.17490  0.52583  0.75000  Biso   1.000  P
  P8       1.0000 0.17490  0.97417  0.25000  Biso   1.000  P
  F1       1.0000 0.12260  0.20960  0.75000  Biso   1.000  F
  F2       1.0000 0.12260  0.29040  0.25000  Biso   1.000  F
  F3       1.0000 0.87740  0.70960  0.75000  Biso   1.000  F
  F4       1.0000 0.87740  0.79040  0.25000  Biso   1.000  F
  F5       1.0000 0.19730  0.28280  0.81880  Biso   1.000  F
  F6       1.0000 0.19730  0.21720  0.18120  Biso   1.000  F
  F7       1.0000 0.80270  0.78280  0.68120  Biso   1.000  F
  F8       1.0000 0.80270  0.71720  0.31880  Biso   1.000  F
  F9       1.0000 0.80270  0.71720  0.18120  Biso   1.000  F
  F10      1.0000 0.80270  0.78280  0.81880  Biso   1.000  F
  F11      1.0000 0.19730  0.21720  0.31880  Biso   1.000  F
  F12      1.0000 0.19730  0.28280  0.68120  Biso   1.000  F
  F13      1.0000 0.40660  0.28250  0.75000  Biso   1.000  F
  F14      1.0000 0.40660  0.21750  0.25000  Biso   1.000  F
  F15      1.0000 0.59340  0.78250  0.75000  Biso   1.000  F
  F16      1.0000 0.59340  0.71750  0.25000  Biso   1.000  F
  F17      1.0000 0.33400  0.20940  0.81840  Biso   1.000  F
  F18      1.0000 0.33400  0.29060  0.18160  Biso   1.000  F
  F19      1.0000 0.66600  0.70940  0.68160  Biso   1.000  F
  F20      1.0000 0.66600  0.79060  0.31840  Biso   1.000  F
  F21      1.0000 0.66600  0.79060  0.18160  Biso   1.000  F
  F22      1.0000 0.66600  0.70940  0.81840  Biso   1.000  F
  F23      1.0000 0.33400  0.29060  0.31840  Biso   1.000  F
  F24      1.0000 0.33400  0.20940  0.68160  Biso   1.000  F
  F25      1.0000 0.89510  0.08610  0.75000  Biso   1.000  F
  F26      1.0000 0.89510  0.41390  0.25000  Biso   1.000  F
  F27      1.0000 0.10490  0.58610  0.75000  Biso   1.000  F
  F28      1.0000 0.10490  0.91390  0.25000  Biso   1.000  F
  F29      1.0000 0.92980  0.00280  0.81670  Biso   1.000  F
  F30      1.0000 0.92980  0.49720  0.18330  Biso   1.000  F
  F31      1.0000 0.07020  0.50280  0.68330  Biso   1.000  F
  F32      1.0000 0.07020  0.99720  0.31670  Biso   1.000  F
  F33      1.0000 0.07020  0.99720  0.18330  Biso   1.000  F
  F34      1.0000 0.07020  0.50280  0.81670  Biso   1.000  F
  F35      1.0000 0.92980  0.49720  0.31670  Biso   1.000  F
  F36      1.0000 0.92980  0.00280  0.68330  Biso   1.000  F
  F37      1.0000 0.75420  0.96530  0.75000  Biso   1.000  F
  F38      1.0000 0.75420  0.53470  0.25000  Biso   1.000  F
  F39      1.0000 0.24580  0.46530  0.75000  Biso   1.000  F
  F40      1.0000 0.24580  0.03470  0.25000  Biso   1.000  F
  F41      1.0000 0.72230  0.04590  0.68220  Biso   1.000  F
  F42      1.0000 0.72230  0.45410  0.31780  Biso   1.000  F
  F43      1.0000 0.27770  0.54590  0.81780  Biso   1.000  F
  F44      1.0000 0.27770  0.95410  0.18220  Biso   1.000  F
  F45      1.0000 0.27770  0.95410  0.31780  Biso   1.000  F
  F46      1.0000 0.27770  0.54590  0.68220  Biso   1.000  F
  F47      1.0000 0.72230  0.45410  0.18220  Biso   1.000  F
  F48      1.0000 0.72230  0.04590  0.81780  Biso   1.000  F
  O1       1.0000 0.72030  0.24207  0.35390  Biso   1.000  O
  O2       1.0000 0.72030  0.25793  0.64610  Biso   1.000  O
  O3       1.0000 0.27970  0.74207  0.14610  Biso   1.000  O
  O4       1.0000 0.27970  0.75793  0.85390  Biso   1.000  O
  O5       1.0000 0.27970  0.75793  0.64610  Biso   1.000  O
  O6       1.0000 0.27970  0.74207  0.35390  Biso   1.000  O
  O7       1.0000 0.72030  0.25793  0.85390  Biso   1.000  O
  O8       1.0000 0.72030  0.24207  0.14610  Biso   1.000  O
  O9       1.0000 0.70870  0.14560  0.25000  Biso   1.000  O
  O10      1.0000 0.70870  0.35440  0.75000  Biso   1.000  O
  O11      1.0000 0.29130  0.64560  0.25000  Biso   1.000  O
  O12      1.0000 0.29130  0.85440  0.75000  Biso   1.000  O
  O13      1.0000 0.62600  0.32990  0.25000  Biso   1.000  O
  O14      1.0000 0.62600  0.17010  0.75000  Biso   1.000  O
  O15      1.0000 0.37400  0.82990  0.25000  Biso   1.000  O
  O16      1.0000 0.37400  0.67010  0.75000  Biso   1.000  O
  O17      1.0000 0.99320  0.12040  0.25000  Biso   1.000  O
  O18      1.0000 0.99320  0.37960  0.75000  Biso   1.000  O
  O19      1.0000 0.00680  0.62040  0.25000  Biso   1.000  O
  O20      1.0000 0.00680  0.87960  0.75000  Biso   1.000  O
  N1       1.0000 0.58280  0.18773  0.50380  Biso   1.000  N
  N2       1.0000 0.58280  0.31227  0.49620  Biso   1.000  N
  N3       1.0000 0.41720  0.68773  0.99620  Biso   1.000  N
  N4       1.0000 0.41720  0.81227  0.00380  Biso   1.000  N
  N5       1.0000 0.41720  0.81227  0.49620  Biso   1.000  N
  N6       1.0000 0.41720  0.68773  0.50380  Biso   1.000  N
  N7       1.0000 0.58280  0.31227  0.00380  Biso   1.000  N
  N8       1.0000 0.58280  0.18773  0.99620  Biso   1.000  N
  N9       1.0000 0.88820  0.19030  0.50850  Biso   1.000  N
  N10      1.0000 0.88820  0.30970  0.49150  Biso   1.000  N
  N11      1.0000 0.11180  0.69030  0.99150  Biso   1.000  N
  N12      1.0000 0.11180  0.80970  0.00850  Biso   1.000  N
  N13      1.0000 0.11180  0.80970  0.49150  Biso   1.000  N
  N14      1.0000 0.11180  0.69030  0.50850  Biso   1.000  N
  N15      1.0000 0.88820  0.30970  0.00850  Biso   1.000  N
  N16      1.0000 0.88820  0.19030  0.99150  Biso   1.000  N
  C1       1.0000 0.59590  0.14270  0.55310  Biso   1.000  C
  C2       1.0000 0.59590  0.35730  0.44690  Biso   1.000  C
  C3       1.0000 0.40410  0.64270  0.94690  Biso   1.000  C
  C4       1.0000 0.40410  0.85730  0.05310  Biso   1.000  C
  C5       1.0000 0.40410  0.85730  0.44690  Biso   1.000  C
  C6       1.0000 0.40410  0.64270  0.55310  Biso   1.000  C
  C7       1.0000 0.59590  0.35730  0.05310  Biso   1.000  C
  C8       1.0000 0.59590  0.14270  0.94690  Biso   1.000  C
  C9       1.0000 0.50490  0.09710  0.55040  Biso   1.000  C
  C10      1.0000 0.50490  0.40290  0.44960  Biso   1.000  C
  C11      1.0000 0.49510  0.59710  0.94960  Biso   1.000  C
  C12      1.0000 0.49510  0.90290  0.05040  Biso   1.000  C
  C13      1.0000 0.49510  0.90290  0.44960  Biso   1.000  C
  C14      1.0000 0.49510  0.59710  0.55040  Biso   1.000  C
  C15      1.0000 0.50490  0.40290  0.05040  Biso   1.000  C
  C16      1.0000 0.50490  0.09710  0.94960  Biso   1.000  C
  C17      1.0000 0.39380  0.09530  0.49490  Biso   1.000  C
  C18      1.0000 0.39380  0.40470  0.50510  Biso   1.000  C
  C19      1.0000 0.60620  0.59530  0.00510  Biso   1.000  C
  C20      1.0000 0.60620  0.90470  0.99490  Biso   1.000  C
  C21      1.0000 0.60620  0.90470  0.50510  Biso   1.000  C
  C22      1.0000 0.60620  0.59530  0.49490  Biso   1.000  C
  C23      1.0000 0.39380  0.40470  0.99490  Biso   1.000  C
  C24      1.0000 0.39380  0.09530  0.00510  Biso   1.000  C
  C25      1.0000 0.37790  0.14250  0.44630  Biso   1.000  C
  C26      1.0000 0.37790  0.35750  0.55370  Biso   1.000  C
  C27      1.0000 0.62210  0.64250  0.05370  Biso   1.000  C
  C28      1.0000 0.62210  0.85750  0.94630  Biso   1.000  C
  C29      1.0000 0.62210  0.85750  0.55370  Biso   1.000  C
  C30      1.0000 0.62210  0.64250  0.44630  Biso   1.000  C
  C31      1.0000 0.37790  0.35750  0.94630  Biso   1.000  C
  C32      1.0000 0.37790  0.14250  0.05370  Biso   1.000  C
  C33      1.0000 0.47200  0.18750  0.45080  Biso   1.000  C
  C34      1.0000 0.47200  0.31250  0.54920  Biso   1.000  C
  C35      1.0000 0.52800  0.68750  0.04920  Biso   1.000  C
  C36      1.0000 0.52800  0.81250  0.95080  Biso   1.000  C
  C37      1.0000 0.52800  0.81250  0.54920  Biso   1.000  C
  C38      1.0000 0.52800  0.68750  0.45080  Biso   1.000  C
  C39      1.0000 0.47200  0.31250  0.95080  Biso   1.000  C
  C40      1.0000 0.47200  0.18750  0.04920  Biso   1.000  C
  C41      1.0000 0.29610  0.04487  0.48850  Biso   1.000  C
  C42      1.0000 0.29610  0.45513  0.51150  Biso   1.000  C
  C43      1.0000 0.70390  0.54487  0.01150  Biso   1.000  C
  C44      1.0000 0.70390  0.95513  0.98850  Biso   1.000  C
  C45      1.0000 0.70390  0.95513  0.51150  Biso   1.000  C
  C46      1.0000 0.70390  0.54487  0.48850  Biso   1.000  C
  C47      1.0000 0.29610  0.45513  0.98850  Biso   1.000  C
  C48      1.0000 0.29610  0.04487  0.01150  Biso   1.000  C
  C49      1.0000 0.90400  0.14960  0.45240  Biso   1.000  C
  C50      1.0000 0.90400  0.35040  0.54760  Biso   1.000  C
  C51      1.0000 0.09600  0.64960  0.04760  Biso   1.000  C
  C52      1.0000 0.09600  0.85040  0.95240  Biso   1.000  C
  C53      1.0000 0.09600  0.85040  0.54760  Biso   1.000  C
  C54      1.0000 0.09600  0.64960  0.45240  Biso   1.000  C
  C55      1.0000 0.90400  0.35040  0.95240  Biso   1.000  C
  C56      1.0000 0.90400  0.14960  0.04760  Biso   1.000  C
  C57      1.0000 0.99500  0.10430  0.46220  Biso   1.000  C
  C58      1.0000 0.99500  0.39570  0.53780  Biso   1.000  C
  C59      1.0000 0.00500  0.60430  0.03780  Biso   1.000  C
  C60      1.0000 0.00500  0.89570  0.96220  Biso   1.000  C
  C61      1.0000 0.00500  0.89570  0.53780  Biso   1.000  C
  C62      1.0000 0.00500  0.60430  0.46220  Biso   1.000  C
  C63      1.0000 0.99500  0.39570  0.96220  Biso   1.000  C
  C64      1.0000 0.99500  0.10430  0.03780  Biso   1.000  C
  C65      1.0000 0.07370  0.09880  0.53320  Biso   1.000  C
  C66      1.0000 0.07370  0.40120  0.46680  Biso   1.000  C
  C67      1.0000 0.92630  0.59880  0.96680  Biso   1.000  C
  C68      1.0000 0.92630  0.90120  0.03320  Biso   1.000  C
  C69      1.0000 0.92630  0.90120  0.46680  Biso   1.000  C
  C70      1.0000 0.92630  0.59880  0.53320  Biso   1.000  C
  C71      1.0000 0.07370  0.40120  0.03320  Biso   1.000  C
  C72      1.0000 0.07370  0.09880  0.96680  Biso   1.000  C
  C73      1.0000 0.06090  0.14200  0.58870  Biso   1.000  C
  C74      1.0000 0.06090  0.35800  0.41130  Biso   1.000  C
  C75      1.0000 0.93910  0.64200  0.91130  Biso   1.000  C
  C76      1.0000 0.93910  0.85800  0.08870  Biso   1.000  C
  C77      1.0000 0.93910  0.85800  0.41130  Biso   1.000  C
  C78      1.0000 0.93910  0.64200  0.58870  Biso   1.000  C
  C79      1.0000 0.06090  0.35800  0.08870  Biso   1.000  C
  C80      1.0000 0.06090  0.14200  0.91130  Biso   1.000  C
  C81      1.0000 0.96950  0.18650  0.57460  Biso   1.000  C
  C82      1.0000 0.96950  0.31350  0.42540  Biso   1.000  C
  C83      1.0000 0.03050  0.68650  0.92540  Biso   1.000  C
  C84      1.0000 0.03050  0.81350  0.07460  Biso   1.000  C
  C85      1.0000 0.03050  0.81350  0.42540  Biso   1.000  C
  C86      1.0000 0.03050  0.68650  0.57460  Biso   1.000  C
  C87      1.0000 0.96950  0.31350  0.07460  Biso   1.000  C
  C88      1.0000 0.96950  0.18650  0.92540  Biso   1.000  C
  C89      1.0000 0.16910  0.04860  0.54770  Biso   1.000  C
  C90      1.0000 0.16910  0.45140  0.45230  Biso   1.000  C
  C91      1.0000 0.83090  0.54860  0.95230  Biso   1.000  C
  C92      1.0000 0.83090  0.95140  0.04770  Biso   1.000  C
  C93      1.0000 0.83090  0.95140  0.45230  Biso   1.000  C
  C94      1.0000 0.83090  0.54860  0.54770  Biso   1.000  C
  C95      1.0000 0.16910  0.45140  0.04770  Biso   1.000  C
  C96      1.0000 0.16910  0.04860  0.95230  Biso   1.000  C
  C97      1.0000 0.61630  0.09680  0.25000  Biso   1.000  C
  C98      1.0000 0.61630  0.40320  0.75000  Biso   1.000  C
  C99      1.0000 0.38370  0.59680  0.25000  Biso   1.000  C
  C100     1.0000 0.38370  0.90320  0.75000  Biso   1.000  C
  C101     1.0000 0.64070  0.06180  0.17520  Biso   1.000  C
  C102     1.0000 0.64070  0.43820  0.82480  Biso   1.000  C
  C103     1.0000 0.35930  0.56180  0.32480  Biso   1.000  C
  C104     1.0000 0.35930  0.93820  0.67520  Biso   1.000  C
  C105     1.0000 0.35930  0.93820  0.82480  Biso   1.000  C
  C106     1.0000 0.35930  0.56180  0.17520  Biso   1.000  C
  C107     1.0000 0.64070  0.43820  0.67520  Biso   1.000  C
  C108     1.0000 0.64070  0.06180  0.32480  Biso   1.000  C
  H1       1.0000 0.67180  0.14270  0.59110  Biso   1.000  H
  H2       1.0000 0.67180  0.35730  0.40890  Biso   1.000  H
  H3       1.0000 0.32820  0.64270  0.90890  Biso   1.000  H
  H4       1.0000 0.32820  0.85730  0.09110  Biso   1.000  H
  H5       1.0000 0.32820  0.85730  0.40890  Biso   1.000  H
  H6       1.0000 0.32820  0.64270  0.59110  Biso   1.000  H
  H7       1.0000 0.67180  0.35730  0.09110  Biso   1.000  H
  H8       1.0000 0.67180  0.14270  0.90890  Biso   1.000  H
  H9       1.0000 0.51810  0.06650  0.58670  Biso   1.000  H
  H10      1.0000 0.51810  0.43350  0.41330  Biso   1.000  H
  H11      1.0000 0.48190  0.56650  0.91330  Biso   1.000  H
  H12      1.0000 0.48190  0.93350  0.08670  Biso   1.000  H
  H13      1.0000 0.48190  0.93350  0.41330  Biso   1.000  H
  H14      1.0000 0.48190  0.56650  0.58670  Biso   1.000  H
  H15      1.0000 0.51810  0.43350  0.08670  Biso   1.000  H
  H16      1.0000 0.51810  0.06650  0.91330  Biso   1.000  H
  H17      1.0000 0.29970  0.14410  0.40980  Biso   1.000  H
  H18      1.0000 0.29970  0.35590  0.59020  Biso   1.000  H
  H19      1.0000 0.70030  0.64410  0.09020  Biso   1.000  H
  H20      1.0000 0.70030  0.85590  0.90980  Biso   1.000  H
  H21      1.0000 0.70030  0.85590  0.59020  Biso   1.000  H
  H22      1.0000 0.70030  0.64410  0.40980  Biso   1.000  H
  H23      1.0000 0.29970  0.35590  0.90980  Biso   1.000  H
  H24      1.0000 0.29970  0.14410  0.09020  Biso   1.000  H
  H25      1.0000 0.45990  0.21880  0.41570  Biso   1.000  H
  H26      1.0000 0.45990  0.28120  0.58430  Biso   1.000  H
  H27      1.0000 0.54010  0.71880  0.08430  Biso   1.000  H
  H28      1.0000 0.54010  0.78120  0.91570  Biso   1.000  H
  H29      1.0000 0.54010  0.78120  0.58430  Biso   1.000  H
  H30      1.0000 0.54010  0.71880  0.41570  Biso   1.000  H
  H31      1.0000 0.45990  0.28120  0.91570  Biso   1.000  H
  H32      1.0000 0.45990  0.21880  0.08430  Biso   1.000  H
  H33      1.0000 0.25960  0.04260  0.43550  Biso   1.000  H
  H34      1.0000 0.25960  0.45740  0.56450  Biso   1.000  H
  H35      1.0000 0.74040  0.54260  0.06450  Biso   1.000  H
  H36      1.0000 0.74040  0.95740  0.93550  Biso   1.000  H
  H37      1.0000 0.74040  0.95740  0.56450  Biso   1.000  H
  H38      1.0000 0.74040  0.54260  0.43550  Biso   1.000  H
  H39      1.0000 0.25960  0.45740  0.93550  Biso   1.000  H
  H40      1.0000 0.25960  0.04260  0.06450  Biso   1.000  H
  H41      1.0000 0.34980  0.01170  0.50020  Biso   1.000  H
  H42      1.0000 0.34980  0.48830  0.49980  Biso   1.000  H
  H43      1.0000 0.65020  0.51170  0.99980  Biso   1.000  H
  H44      1.0000 0.65020  0.98830  0.00020  Biso   1.000  H
  H45      1.0000 0.65020  0.98830  0.49980  Biso   1.000  H
  H46      1.0000 0.65020  0.51170  0.50020  Biso   1.000  H
  H47      1.0000 0.34980  0.48830  0.00020  Biso   1.000  H
  H48      1.0000 0.34980  0.01170  0.99980  Biso   1.000  H
  H49      1.0000 0.85010  0.15250  0.40430  Biso   1.000  H
  H50      1.0000 0.85010  0.34750  0.59570  Biso   1.000  H
  H51      1.0000 0.14990  0.65250  0.09570  Biso   1.000  H
  H52      1.0000 0.14990  0.84750  0.90430  Biso   1.000  H
  H53      1.0000 0.14990  0.84750  0.59570  Biso   1.000  H
  H54      1.0000 0.14990  0.65250  0.40430  Biso   1.000  H
  H55      1.0000 0.85010  0.34750  0.90430  Biso   1.000  H
  H56      1.0000 0.85010  0.15250  0.09570  Biso   1.000  H
  H57      1.0000 0.00440  0.07670  0.42100  Biso   1.000  H
  H58      1.0000 0.00440  0.42330  0.57900  Biso   1.000  H
  H59      1.0000 0.99560  0.57670  0.07900  Biso   1.000  H
  H60      1.0000 0.99560  0.92330  0.92100  Biso   1.000  H
  H61      1.0000 0.99560  0.92330  0.57900  Biso   1.000  H
  H62      1.0000 0.99560  0.57670  0.42100  Biso   1.000  H
  H63      1.0000 0.00440  0.42330  0.92100  Biso   1.000  H
  H64      1.0000 0.00440  0.07670  0.07900  Biso   1.000  H
  H65      1.0000 0.11500  0.14070  0.63680  Biso   1.000  H
  H66      1.0000 0.11500  0.35930  0.36320  Biso   1.000  H
  H67      1.0000 0.88500  0.64070  0.86320  Biso   1.000  H
  H68      1.0000 0.88500  0.85930  0.13680  Biso   1.000  H
  H69      1.0000 0.88500  0.85930  0.36320  Biso   1.000  H
  H70      1.0000 0.88500  0.64070  0.63680  Biso   1.000  H
  H71      1.0000 0.11500  0.35930  0.13680  Biso   1.000  H
  H72      1.0000 0.11500  0.14070  0.86320  Biso   1.000  H
  H73      1.0000 0.96360  0.21600  0.61320  Biso   1.000  H
  H74      1.0000 0.96360  0.28400  0.38680  Biso   1.000  H
  H75      1.0000 0.03640  0.71600  0.88680  Biso   1.000  H
  H76      1.0000 0.03640  0.78400  0.11320  Biso   1.000  H
  H77      1.0000 0.03640  0.78400  0.38680  Biso   1.000  H
  H78      1.0000 0.03640  0.71600  0.61320  Biso   1.000  H
  H79      1.0000 0.96360  0.28400  0.11320  Biso   1.000  H
  H80      1.0000 0.96360  0.21600  0.88680  Biso   1.000  H
  H81      1.0000 0.20620  0.05100  0.60050  Biso   1.000  H
  H82      1.0000 0.20620  0.44900  0.39950  Biso   1.000  H
  H83      1.0000 0.79380  0.55100  0.89950  Biso   1.000  H
  H84      1.0000 0.79380  0.94900  0.10050  Biso   1.000  H
  H85      1.0000 0.79380  0.94900  0.39950  Biso   1.000  H
  H86      1.0000 0.79380  0.55100  0.60050  Biso   1.000  H
  H87      1.0000 0.20620  0.44900  0.10050  Biso   1.000  H
  H88      1.0000 0.20620  0.05100  0.89950  Biso   1.000  H
  H89      1.0000 0.11310  0.01510  0.54260  Biso   1.000  H
  H90      1.0000 0.11310  0.48490  0.45740  Biso   1.000  H
  H91      1.0000 0.88690  0.51510  0.95740  Biso   1.000  H
  H92      1.0000 0.88690  0.98490  0.04260  Biso   1.000  H
  H93      1.0000 0.88690  0.98490  0.45740  Biso   1.000  H
  H94      1.0000 0.88690  0.51510  0.54260  Biso   1.000  H
  H95      1.0000 0.11310  0.48490  0.04260  Biso   1.000  H
  H96      1.0000 0.11310  0.01510  0.95740  Biso   1.000  H
  H97      1.0000 0.51960  0.10950  0.25000  Biso   1.000  H
  H98      1.0000 0.51960  0.39050  0.75000  Biso   1.000  H
  H99      1.0000 0.48040  0.60950  0.25000  Biso   1.000  H
  H100     1.0000 0.48040  0.89050  0.75000  Biso   1.000  H
  H101     1.0000 0.57820  0.07450  0.13410  Biso   1.000  H
  H102     1.0000 0.57820  0.42550  0.86590  Biso   1.000  H
  H103     1.0000 0.42180  0.57450  0.36590  Biso   1.000  H
  H104     1.0000 0.42180  0.92550  0.63410  Biso   1.000  H
  H105     1.0000 0.42180  0.92550  0.86590  Biso   1.000  H
  H106     1.0000 0.42180  0.57450  0.13410  Biso   1.000  H
  H107     1.0000 0.57820  0.42550  0.63410  Biso   1.000  H
  H108     1.0000 0.57820  0.07450  0.36590  Biso   1.000  H
  H109     1.0000 0.62210  0.02300  0.18620  Biso   1.000  H
  H110     1.0000 0.62210  0.47700  0.81380  Biso   1.000  H
  H111     1.0000 0.37790  0.52300  0.31380  Biso   1.000  H
  H112     1.0000 0.37790  0.97700  0.68620  Biso   1.000  H
  H113     1.0000 0.37790  0.97700  0.81380  Biso   1.000  H
  H114     1.0000 0.37790  0.52300  0.18620  Biso   1.000  H
  H115     1.0000 0.62210  0.47700  0.68620  Biso   1.000  H
  H116     1.0000 0.62210  0.02300  0.31380  Biso   1.000  H
  H117     1.0000 0.73750  0.06610  0.15840  Biso   1.000  H
  H118     1.0000 0.73750  0.43390  0.84160  Biso   1.000  H
  H119     1.0000 0.26250  0.56610  0.34160  Biso   1.000  H
  H120     1.0000 0.26250  0.93390  0.65840  Biso   1.000  H
  H121     1.0000 0.26250  0.93390  0.84160  Biso   1.000  H
  H122     1.0000 0.26250  0.56610  0.15840  Biso   1.000  H
  H123     1.0000 0.73750  0.43390  0.65840  Biso   1.000  H
  H124     1.0000 0.73750  0.06610  0.34160  Biso   1.000  H
