data_image0
_cell_length_a       16.372
_cell_length_b       17.534
_cell_length_c       10.867
_cell_angle_alpha    90
_cell_angle_beta     116.33
_cell_angle_gamma    90

_symmetry_space_group_name_H-M    "P 1"
_symmetry_int_tables_number       1

loop_
  _symmetry_equiv_pos_as_xyz
  'x, y, z'

loop_
  _atom_site_label
  _atom_site_occupancy
  _atom_site_fract_x
  _atom_site_fract_y
  _atom_site_fract_z
  _atom_site_thermal_displace_type
  _atom_site_B_iso_or_equiv
  _atom_site_type_symbol
  Cu1      1.0000 0.50000  0.88723  0.25000  Biso   1.000  Cu
  Cu2      1.0000 0.00000  0.38723  0.25000  Biso   1.000  Cu
  Cu3      1.0000 0.50000  0.11277  0.75000  Biso   1.000  Cu
  Cu4      1.0000 0.00000  0.61277  0.75000  Biso   1.000  Cu
  N1       1.0000 0.42040  0.88156  0.34360  Biso   1.000  N
  N2       1.0000 0.92040  0.38156  0.34360  Biso   1.000  N
  N3       1.0000 0.57960  0.88156  0.15640  Biso   1.000  N
  N4       1.0000 0.07960  0.38156  0.15640  Biso   1.000  N
  N5       1.0000 0.57960  0.11844  0.65640  Biso   1.000  N
  N6       1.0000 0.07960  0.61844  0.65640  Biso   1.000  N
  N7       1.0000 0.42040  0.11844  0.84360  Biso   1.000  N
  N8       1.0000 0.92040  0.61844  0.84360  Biso   1.000  N
  N9       1.0000 0.40050  0.01396  0.35460  Biso   1.000  N
  N10      1.0000 0.90050  0.51396  0.35460  Biso   1.000  N
  N11      1.0000 0.59950  0.01396  0.14540  Biso   1.000  N
  N12      1.0000 0.09950  0.51396  0.14540  Biso   1.000  N
  N13      1.0000 0.59950  0.98604  0.64540  Biso   1.000  N
  N14      1.0000 0.09950  0.48604  0.64540  Biso   1.000  N
  N15      1.0000 0.40050  0.98604  0.85460  Biso   1.000  N
  N16      1.0000 0.90050  0.48604  0.85460  Biso   1.000  N
  H1       1.0000 0.37370  0.04710  0.38260  Biso   1.000  H
  H2       1.0000 0.87370  0.54710  0.38260  Biso   1.000  H
  H3       1.0000 0.62630  0.04710  0.11740  Biso   1.000  H
  H4       1.0000 0.12630  0.54710  0.11740  Biso   1.000  H
  H5       1.0000 0.62630  0.95290  0.61740  Biso   1.000  H
  H6       1.0000 0.12630  0.45290  0.61740  Biso   1.000  H
  H7       1.0000 0.37370  0.95290  0.88260  Biso   1.000  H
  H8       1.0000 0.87370  0.45290  0.88260  Biso   1.000  H
  N17      1.0000 0.50000  0.00310  0.25000  Biso   1.000  N
  N18      1.0000 0.00000  0.50310  0.25000  Biso   1.000  N
  N19      1.0000 0.50000  0.99690  0.75000  Biso   1.000  N
  N20      1.0000 0.00000  0.49690  0.75000  Biso   1.000  N
  N21      1.0000 0.44990  0.12158  0.30110  Biso   1.000  N
  N22      1.0000 0.94990  0.62158  0.30110  Biso   1.000  N
  N23      1.0000 0.55010  0.12158  0.19890  Biso   1.000  N
  N24      1.0000 0.05010  0.62158  0.19890  Biso   1.000  N
  N25      1.0000 0.55010  0.87842  0.69890  Biso   1.000  N
  N26      1.0000 0.05010  0.37842  0.69890  Biso   1.000  N
  N27      1.0000 0.44990  0.87842  0.80110  Biso   1.000  N
  N28      1.0000 0.94990  0.37842  0.80110  Biso   1.000  N
  O1       1.0000 0.58340  0.80380  0.38570  Biso   1.000  O
  O2       1.0000 0.08340  0.30380  0.38570  Biso   1.000  O
  O3       1.0000 0.41660  0.80380  0.11430  Biso   1.000  O
  O4       1.0000 0.91660  0.30380  0.11430  Biso   1.000  O
  O5       1.0000 0.41660  0.19620  0.61430  Biso   1.000  O
  O6       1.0000 0.91660  0.69620  0.61430  Biso   1.000  O
  O7       1.0000 0.58340  0.19620  0.88570  Biso   1.000  O
  O8       1.0000 0.08340  0.69620  0.88570  Biso   1.000  O
  O9       1.0000 0.68090  0.89065  0.52050  Biso   1.000  O
  O10      1.0000 0.18090  0.39065  0.52050  Biso   1.000  O
  O11      1.0000 0.31910  0.89065  0.97950  Biso   1.000  O
  O12      1.0000 0.81910  0.39065  0.97950  Biso   1.000  O
  O13      1.0000 0.31910  0.10935  0.47950  Biso   1.000  O
  O14      1.0000 0.81910  0.60935  0.47950  Biso   1.000  O
  O15      1.0000 0.68090  0.10935  0.02050  Biso   1.000  O
  O16      1.0000 0.18090  0.60935  0.02050  Biso   1.000  O
  C1       1.0000 0.40010  0.81040  0.37110  Biso   1.000  C
  C2       1.0000 0.90010  0.31040  0.37110  Biso   1.000  C
  C3       1.0000 0.59990  0.81040  0.12890  Biso   1.000  C
  C4       1.0000 0.09990  0.31040  0.12890  Biso   1.000  C
  C5       1.0000 0.59990  0.18960  0.62890  Biso   1.000  C
  C6       1.0000 0.09990  0.68960  0.62890  Biso   1.000  C
  C7       1.0000 0.40010  0.18960  0.87110  Biso   1.000  C
  C8       1.0000 0.90010  0.68960  0.87110  Biso   1.000  C
  H9       1.0000 0.42770  0.76910  0.35080  Biso   1.000  H
  H10      1.0000 0.92770  0.26910  0.35080  Biso   1.000  H
  H11      1.0000 0.57230  0.76910  0.14920  Biso   1.000  H
  H12      1.0000 0.07230  0.26910  0.14920  Biso   1.000  H
  H13      1.0000 0.57230  0.23090  0.64920  Biso   1.000  H
  H14      1.0000 0.07230  0.73090  0.64920  Biso   1.000  H
  H15      1.0000 0.42770  0.23090  0.85080  Biso   1.000  H
  H16      1.0000 0.92770  0.73090  0.85080  Biso   1.000  H
  C9       1.0000 0.34170  0.79610  0.42680  Biso   1.000  C
  C10      1.0000 0.84170  0.29610  0.42680  Biso   1.000  C
  C11      1.0000 0.65830  0.79610  0.07320  Biso   1.000  C
  C12      1.0000 0.15830  0.29610  0.07320  Biso   1.000  C
  C13      1.0000 0.65830  0.20390  0.57320  Biso   1.000  C
  C14      1.0000 0.15830  0.70390  0.57320  Biso   1.000  C
  C15      1.0000 0.34170  0.20390  0.92680  Biso   1.000  C
  C16      1.0000 0.84170  0.70390  0.92680  Biso   1.000  C
  H17      1.0000 0.32950  0.74640  0.44330  Biso   1.000  H
  H18      1.0000 0.82950  0.24640  0.44330  Biso   1.000  H
  H19      1.0000 0.67050  0.74640  0.05670  Biso   1.000  H
  H20      1.0000 0.17050  0.24640  0.05670  Biso   1.000  H
  H21      1.0000 0.67050  0.25360  0.55670  Biso   1.000  H
  H22      1.0000 0.17050  0.75360  0.55670  Biso   1.000  H
  H23      1.0000 0.32950  0.25360  0.94330  Biso   1.000  H
  H24      1.0000 0.82950  0.75360  0.94330  Biso   1.000  H
  C17      1.0000 0.30130  0.85690  0.45810  Biso   1.000  C
  C18      1.0000 0.80130  0.35690  0.45810  Biso   1.000  C
  C19      1.0000 0.69870  0.85690  0.04190  Biso   1.000  C
  C20      1.0000 0.19870  0.35690  0.04190  Biso   1.000  C
  C21      1.0000 0.69870  0.14310  0.54190  Biso   1.000  C
  C22      1.0000 0.19870  0.64310  0.54190  Biso   1.000  C
  C23      1.0000 0.30130  0.14310  0.95810  Biso   1.000  C
  C24      1.0000 0.80130  0.64310  0.95810  Biso   1.000  C
  H25      1.0000 0.26080  0.84890  0.49560  Biso   1.000  H
  H26      1.0000 0.76080  0.34890  0.49560  Biso   1.000  H
  H27      1.0000 0.73920  0.84890  0.00440  Biso   1.000  H
  H28      1.0000 0.23920  0.34890  0.00440  Biso   1.000  H
  H29      1.0000 0.73920  0.15110  0.50440  Biso   1.000  H
  H30      1.0000 0.23920  0.65110  0.50440  Biso   1.000  H
  H31      1.0000 0.26080  0.15110  0.99560  Biso   1.000  H
  H32      1.0000 0.76080  0.65110  0.99560  Biso   1.000  H
  C25      1.0000 0.32120  0.92950  0.43320  Biso   1.000  C
  C26      1.0000 0.82120  0.42950  0.43320  Biso   1.000  C
  C27      1.0000 0.67880  0.92950  0.06680  Biso   1.000  C
  C28      1.0000 0.17880  0.42950  0.06680  Biso   1.000  C
  C29      1.0000 0.67880  0.07050  0.56680  Biso   1.000  C
  C30      1.0000 0.17880  0.57050  0.56680  Biso   1.000  C
  C31      1.0000 0.32120  0.07050  0.93320  Biso   1.000  C
  C32      1.0000 0.82120  0.57050  0.93320  Biso   1.000  C
  H33      1.0000 0.29490  0.97130  0.45450  Biso   1.000  H
  H34      1.0000 0.79490  0.47130  0.45450  Biso   1.000  H
  H35      1.0000 0.70510  0.97130  0.04550  Biso   1.000  H
  H36      1.0000 0.20510  0.47130  0.04550  Biso   1.000  H
  H37      1.0000 0.70510  0.02870  0.54550  Biso   1.000  H
  H38      1.0000 0.20510  0.52870  0.54550  Biso   1.000  H
  H39      1.0000 0.29490  0.02870  0.95450  Biso   1.000  H
  H40      1.0000 0.79490  0.52870  0.95450  Biso   1.000  H
  C33      1.0000 0.38130  0.93990  0.37550  Biso   1.000  C
  C34      1.0000 0.88130  0.43990  0.37550  Biso   1.000  C
  C35      1.0000 0.61870  0.93990  0.12450  Biso   1.000  C
  C36      1.0000 0.11870  0.43990  0.12450  Biso   1.000  C
  C37      1.0000 0.61870  0.06010  0.62450  Biso   1.000  C
  C38      1.0000 0.11870  0.56010  0.62450  Biso   1.000  C
  C39      1.0000 0.38130  0.06010  0.87550  Biso   1.000  C
  C40      1.0000 0.88130  0.56010  0.87550  Biso   1.000  C
  C41      1.0000 0.45210  0.04610  0.29980  Biso   1.000  C
  C42      1.0000 0.95210  0.54610  0.29980  Biso   1.000  C
  C43      1.0000 0.54790  0.04610  0.20020  Biso   1.000  C
  C44      1.0000 0.04790  0.54610  0.20020  Biso   1.000  C
  C45      1.0000 0.54790  0.95390  0.70020  Biso   1.000  C
  C46      1.0000 0.04790  0.45390  0.70020  Biso   1.000  C
  C47      1.0000 0.45210  0.95390  0.79980  Biso   1.000  C
  C48      1.0000 0.95210  0.45390  0.79980  Biso   1.000  C
  C49      1.0000 0.50000  0.15770  0.25000  Biso   1.000  C
  C50      1.0000 0.00000  0.65770  0.25000  Biso   1.000  C
  C51      1.0000 0.50000  0.84230  0.75000  Biso   1.000  C
  C52      1.0000 0.00000  0.34230  0.75000  Biso   1.000  C
  C53      1.0000 0.50000  0.24150  0.25000  Biso   1.000  C
  C54      1.0000 0.00000  0.74150  0.25000  Biso   1.000  C
  C55      1.0000 0.50000  0.75850  0.75000  Biso   1.000  C
  C56      1.0000 0.00000  0.25850  0.75000  Biso   1.000  C
  C57      1.0000 0.55970  0.28150  0.21660  Biso   1.000  C
  C58      1.0000 0.05970  0.78150  0.21660  Biso   1.000  C
  C59      1.0000 0.44030  0.28150  0.28340  Biso   1.000  C
  C60      1.0000 0.94030  0.78150  0.28340  Biso   1.000  C
  C61      1.0000 0.44030  0.71850  0.78340  Biso   1.000  C
  C62      1.0000 0.94030  0.21850  0.78340  Biso   1.000  C
  C63      1.0000 0.55970  0.71850  0.71660  Biso   1.000  C
  C64      1.0000 0.05970  0.21850  0.71660  Biso   1.000  C
  H41      1.0000 0.60030  0.25530  0.19340  Biso   1.000  H
  H42      1.0000 0.10030  0.75530  0.19340  Biso   1.000  H
  H43      1.0000 0.39970  0.25530  0.30660  Biso   1.000  H
  H44      1.0000 0.89970  0.75530  0.30660  Biso   1.000  H
  H45      1.0000 0.39970  0.74470  0.80660  Biso   1.000  H
  H46      1.0000 0.89970  0.24470  0.80660  Biso   1.000  H
  H47      1.0000 0.60030  0.74470  0.69340  Biso   1.000  H
  H48      1.0000 0.10030  0.24470  0.69340  Biso   1.000  H
  C65      1.0000 0.55980  0.35990  0.21740  Biso   1.000  C
  C66      1.0000 0.05980  0.85990  0.21740  Biso   1.000  C
  C67      1.0000 0.44020  0.35990  0.28260  Biso   1.000  C
  C68      1.0000 0.94020  0.85990  0.28260  Biso   1.000  C
  C69      1.0000 0.44020  0.64010  0.78260  Biso   1.000  C
  C70      1.0000 0.94020  0.14010  0.78260  Biso   1.000  C
  C71      1.0000 0.55980  0.64010  0.71740  Biso   1.000  C
  C72      1.0000 0.05980  0.14010  0.71740  Biso   1.000  C
  H49      1.0000 0.60090  0.38640  0.19560  Biso   1.000  H
  H50      1.0000 0.10090  0.88640  0.19560  Biso   1.000  H
  H51      1.0000 0.39910  0.38640  0.30440  Biso   1.000  H
  H52      1.0000 0.89910  0.88640  0.30440  Biso   1.000  H
  H53      1.0000 0.39910  0.61360  0.80440  Biso   1.000  H
  H54      1.0000 0.89910  0.11360  0.80440  Biso   1.000  H
  H55      1.0000 0.60090  0.61360  0.69560  Biso   1.000  H
  H56      1.0000 0.10090  0.11360  0.69560  Biso   1.000  H
  C73      1.0000 0.50000  0.39940  0.25000  Biso   1.000  C
  C74      1.0000 0.00000  0.89940  0.25000  Biso   1.000  C
  C75      1.0000 0.50000  0.60060  0.75000  Biso   1.000  C
  C76      1.0000 0.00000  0.10060  0.75000  Biso   1.000  C
  H57      1.0000 0.50000  0.45240  0.25000  Biso   1.000  H
  H58      1.0000 0.00000  0.95240  0.25000  Biso   1.000  H
  H59      1.0000 0.50000  0.54760  0.75000  Biso   1.000  H
  H60      1.0000 0.00000  0.04760  0.75000  Biso   1.000  H
  C77      1.0000 0.65890  0.82400  0.47940  Biso   1.000  C
  C78      1.0000 0.15890  0.32400  0.47940  Biso   1.000  C
  C79      1.0000 0.34110  0.82400  0.02060  Biso   1.000  C
  C80      1.0000 0.84110  0.32400  0.02060  Biso   1.000  C
  C81      1.0000 0.34110  0.17600  0.52060  Biso   1.000  C
  C82      1.0000 0.84110  0.67600  0.52060  Biso   1.000  C
  C83      1.0000 0.65890  0.17600  0.97940  Biso   1.000  C
  C84      1.0000 0.15890  0.67600  0.97940  Biso   1.000  C
  C85      1.0000 0.72810  0.76090  0.54560  Biso   1.000  C
  C86      1.0000 0.22810  0.26090  0.54560  Biso   1.000  C
  C87      1.0000 0.27190  0.76090  0.95440  Biso   1.000  C
  C88      1.0000 0.77190  0.26090  0.95440  Biso   1.000  C
  C89      1.0000 0.27190  0.23910  0.45440  Biso   1.000  C
  C90      1.0000 0.77190  0.73910  0.45440  Biso   1.000  C
  C91      1.0000 0.72810  0.23910  0.04560  Biso   1.000  C
  C92      1.0000 0.22810  0.73910  0.04560  Biso   1.000  C
  H61      1.0000 0.77390  0.77560  0.63740  Biso   1.000  H
  H62      1.0000 0.27390  0.27560  0.63740  Biso   1.000  H
  H63      1.0000 0.22610  0.77560  0.86260  Biso   1.000  H
  H64      1.0000 0.72610  0.27560  0.86260  Biso   1.000  H
  H65      1.0000 0.22610  0.22440  0.36260  Biso   1.000  H
  H66      1.0000 0.72610  0.72440  0.36260  Biso   1.000  H
  H67      1.0000 0.77390  0.22440  0.13740  Biso   1.000  H
  H68      1.0000 0.27390  0.72440  0.13740  Biso   1.000  H
  O17      1.0000 0.67280  0.53770  0.53570  Biso   1.000  O
  O18      1.0000 0.17280  0.03770  0.53570  Biso   1.000  O
  O19      1.0000 0.32720  0.53770  0.96430  Biso   1.000  O
  O20      1.0000 0.82720  0.03770  0.96430  Biso   1.000  O
  O21      1.0000 0.32720  0.46230  0.46430  Biso   1.000  O
  O22      1.0000 0.82720  0.96230  0.46430  Biso   1.000  O
  O23      1.0000 0.67280  0.46230  0.03570  Biso   1.000  O
  O24      1.0000 0.17280  0.96230  0.03570  Biso   1.000  O
  O25      1.0000 0.82910  0.90090  0.83570  Biso   1.000  O
  O26      1.0000 0.32910  0.40090  0.83570  Biso   1.000  O
  O27      1.0000 0.17090  0.90090  0.66430  Biso   1.000  O
  O28      1.0000 0.67090  0.40090  0.66430  Biso   1.000  O
  O29      1.0000 0.17090  0.09910  0.16430  Biso   1.000  O
  O30      1.0000 0.67090  0.59910  0.16430  Biso   1.000  O
  O31      1.0000 0.82910  0.09910  0.33570  Biso   1.000  O
  O32      1.0000 0.32910  0.59910  0.33570  Biso   1.000  O
  O33      1.0000 0.51400  0.62530  0.37900  Biso   1.000  O
  O34      1.0000 0.01400  0.12530  0.37900  Biso   1.000  O
  O35      1.0000 0.48600  0.62530  0.12100  Biso   1.000  O
  O36      1.0000 0.98600  0.12530  0.12100  Biso   1.000  O
  O37      1.0000 0.48600  0.37470  0.62100  Biso   1.000  O
  O38      1.0000 0.98600  0.87470  0.62100  Biso   1.000  O
  O39      1.0000 0.51400  0.37470  0.87900  Biso   1.000  O
  O40      1.0000 0.01400  0.87470  0.87900  Biso   1.000  O
  O41      1.0000 0.68180  0.69290  0.54990  Biso   1.000  O
  O42      1.0000 0.18180  0.19290  0.54990  Biso   1.000  O
  O43      1.0000 0.31820  0.69290  0.95010  Biso   1.000  O
  O44      1.0000 0.81820  0.19290  0.95010  Biso   1.000  O
  O45      1.0000 0.31820  0.30710  0.45010  Biso   1.000  O
  O46      1.0000 0.81820  0.80710  0.45010  Biso   1.000  O
  O47      1.0000 0.68180  0.30710  0.04990  Biso   1.000  O
  O48      1.0000 0.18180  0.80710  0.04990  Biso   1.000  O
  H69      1.0000 0.62700  0.70160  0.51880  Biso   1.000  H
  H70      1.0000 0.12700  0.20160  0.51880  Biso   1.000  H
  H71      1.0000 0.37300  0.70160  0.98120  Biso   1.000  H
  H72      1.0000 0.87300  0.20160  0.98120  Biso   1.000  H
  H73      1.0000 0.37300  0.29840  0.48120  Biso   1.000  H
  H74      1.0000 0.87300  0.79840  0.48120  Biso   1.000  H
  H75      1.0000 0.62700  0.29840  0.01880  Biso   1.000  H
  H76      1.0000 0.12700  0.79840  0.01880  Biso   1.000  H
