data_image0
_cell_length_a       3.7208
_cell_length_b       15.9058
_cell_length_c       11.7364
_cell_angle_alpha    90
_cell_angle_beta     94.532
_cell_angle_gamma    90

_symmetry_space_group_name_H-M    "P 1"
_symmetry_int_tables_number       1

loop_
  _symmetry_equiv_pos_as_xyz
  'x, y, z'

loop_
  _atom_site_label
  _atom_site_occupancy
  _atom_site_fract_x
  _atom_site_fract_y
  _atom_site_fract_z
  _atom_site_thermal_displace_type
  _atom_site_B_iso_or_equiv
  _atom_site_type_symbol
  Cu1      1.0000 0.50000  0.50000  0.50000  Biso   1.000  Cu
  Cu2      1.0000 0.50000  0.00000  0.00000  Biso   1.000  Cu
  Cl1      1.0000 0.84930  0.55220  0.36365  Biso   1.000  Cl
  Cl2      1.0000 0.15070  0.05220  0.13635  Biso   1.000  Cl
  Cl3      1.0000 0.15070  0.44780  0.63635  Biso   1.000  Cl
  Cl4      1.0000 0.84930  0.94780  0.86365  Biso   1.000  Cl
  F1       1.0000 0.18400  0.30250  0.14740  Biso   1.000  F
  F2       1.0000 0.81600  0.80250  0.35260  Biso   1.000  F
  F3       1.0000 0.81600  0.69750  0.85260  Biso   1.000  F
  F4       1.0000 0.18400  0.19750  0.64740  Biso   1.000  F
  N1       1.0000 0.48300  0.38690  0.41860  Biso   1.000  N
  N2       1.0000 0.51700  0.88690  0.08140  Biso   1.000  N
  N3       1.0000 0.51700  0.61310  0.58140  Biso   1.000  N
  N4       1.0000 0.48300  0.11310  0.91860  Biso   1.000  N
  C1       1.0000 0.35400  0.38120  0.31190  Biso   1.000  C
  C2       1.0000 0.64600  0.88120  0.18810  Biso   1.000  C
  C3       1.0000 0.64600  0.61880  0.68810  Biso   1.000  C
  C4       1.0000 0.35400  0.11880  0.81190  Biso   1.000  C
  H1       1.0000 0.27380  0.42970  0.27340  Biso   1.000  H
  H2       1.0000 0.72620  0.92970  0.22660  Biso   1.000  H
  H3       1.0000 0.72620  0.57030  0.72660  Biso   1.000  H
  H4       1.0000 0.27380  0.07030  0.77340  Biso   1.000  H
  C5       1.0000 0.33400  0.30520  0.25470  Biso   1.000  C
  C6       1.0000 0.66600  0.80520  0.24530  Biso   1.000  C
  C7       1.0000 0.66600  0.69480  0.74530  Biso   1.000  C
  C8       1.0000 0.33400  0.19480  0.75470  Biso   1.000  C
  C9       1.0000 0.45800  0.23260  0.30940  Biso   1.000  C
  C10      1.0000 0.54200  0.73260  0.19060  Biso   1.000  C
  C11      1.0000 0.54200  0.76740  0.69060  Biso   1.000  C
  C12      1.0000 0.45800  0.26740  0.80940  Biso   1.000  C
  H5       1.0000 0.44670  0.18100  0.27180  Biso   1.000  H
  H6       1.0000 0.55330  0.68100  0.22820  Biso   1.000  H
  H7       1.0000 0.55330  0.81900  0.72820  Biso   1.000  H
  H8       1.0000 0.44670  0.31900  0.77180  Biso   1.000  H
  C13      1.0000 0.59700  0.23870  0.41930  Biso   1.000  C
  C14      1.0000 0.40300  0.73870  0.08070  Biso   1.000  C
  C15      1.0000 0.40300  0.76130  0.58070  Biso   1.000  C
  C16      1.0000 0.59700  0.26130  0.91930  Biso   1.000  C
  H9       1.0000 0.68830  0.19150  0.45850  Biso   1.000  H
  H10      1.0000 0.31170  0.69150  0.04150  Biso   1.000  H
  H11      1.0000 0.31170  0.80850  0.54150  Biso   1.000  H
  H12      1.0000 0.68830  0.30850  0.95850  Biso   1.000  H
  C17      1.0000 0.60100  0.31740  0.47270  Biso   1.000  C
  C18      1.0000 0.39900  0.81740  0.02730  Biso   1.000  C
  C19      1.0000 0.39900  0.68260  0.52730  Biso   1.000  C
  C20      1.0000 0.60100  0.18260  0.97270  Biso   1.000  C
  H13      1.0000 0.68990  0.32140  0.54890  Biso   1.000  H
  H14      1.0000 0.31010  0.82140  0.95110  Biso   1.000  H
  H15      1.0000 0.31010  0.67860  0.45110  Biso   1.000  H
  H16      1.0000 0.68990  0.17860  0.04890  Biso   1.000  H
