data_image0
_cell_length_a       7.273
_cell_length_b       7.457
_cell_length_c       12.135
_cell_angle_alpha    74.22
_cell_angle_beta     79.934
_cell_angle_gamma    70.113

_symmetry_space_group_name_H-M    "P 1"
_symmetry_int_tables_number       1

loop_
  _symmetry_equiv_pos_as_xyz
  'x, y, z'

loop_
  _atom_site_label
  _atom_site_occupancy
  _atom_site_fract_x
  _atom_site_fract_y
  _atom_site_fract_z
  _atom_site_thermal_displace_type
  _atom_site_B_iso_or_equiv
  _atom_site_type_symbol
  Cu1      1.0000 0.16409  0.25018  0.29754  Biso   1.000  Cu
  Cu2      1.0000 0.83591  0.74982  0.70246  Biso   1.000  Cu
  O1       1.0000 0.42730  0.18670  0.34210  Biso   1.000  O
  O2       1.0000 0.57270  0.81330  0.65790  Biso   1.000  O
  O3       1.0000 0.73950  0.02270  0.35850  Biso   1.000  O
  O4       1.0000 0.26050  0.97730  0.64150  Biso   1.000  O
  O5       1.0000 0.27780  0.25180  0.13440  Biso   1.000  O
  O6       1.0000 0.72220  0.74820  0.86560  Biso   1.000  O
  O7       1.0000 0.58260  0.14990  0.05450  Biso   1.000  O
  O8       1.0000 0.41740  0.85010  0.94550  Biso   1.000  O
  O9       1.0000 0.20510  0.91810  0.33452  Biso   1.000  O
  O10      1.0000 0.79490  0.08190  0.66548  Biso   1.000  O
  O11      1.0000 0.27550  0.51170  0.47000  Biso   1.000  O
  O12      1.0000 0.72450  0.48830  0.53000  Biso   1.000  O
  O13      1.0000 0.13070  0.58740  0.27390  Biso   1.000  O
  O14      1.0000 0.86930  0.41260  0.72610  Biso   1.000  O
  O15      1.0000 0.06920  0.25090  0.46290  Biso   1.000  O
  O16      1.0000 0.93080  0.74910  0.53710  Biso   1.000  O
  O17      1.0000 0.89170  0.32330  0.26260  Biso   1.000  O
  O18      1.0000 0.10830  0.67670  0.73740  Biso   1.000  O
  C1       1.0000 0.57380  0.03450  0.33780  Biso   1.000  C
  C2       1.0000 0.42620  0.96550  0.66220  Biso   1.000  C
  C3       1.0000 0.44020  0.11790  0.12030  Biso   1.000  C
  C4       1.0000 0.55980  0.88210  0.87970  Biso   1.000  C
  C5       1.0000 0.46120  0.90850  0.18800  Biso   1.000  C
  C6       1.0000 0.53880  0.09150  0.81200  Biso   1.000  C
  C7       1.0000 0.54550  0.86040  0.30730  Biso   1.000  C
  C8       1.0000 0.45450  0.13960  0.69270  Biso   1.000  C
  C9       1.0000 0.38230  0.79110  0.38810  Biso   1.000  C
  C10      1.0000 0.61770  0.20890  0.61190  Biso   1.000  C
  C11      1.0000 0.39170  0.59010  0.37500  Biso   1.000  C
  C12      1.0000 0.60830  0.40990  0.62500  Biso   1.000  C
  C13      1.0000 0.30410  0.64260  0.25730  Biso   1.000  C
  C14      1.0000 0.69590  0.35740  0.74270  Biso   1.000  C
  C15      1.0000 0.26480  0.86420  0.22410  Biso   1.000  C
  C16      1.0000 0.73520  0.13580  0.77590  Biso   1.000  C
  H1       1.0000 0.53200  0.82800  0.14200  Biso   1.000  H
  H2       1.0000 0.46800  0.17200  0.85800  Biso   1.000  H
  H3       1.0000 0.66200  0.75600  0.30800  Biso   1.000  H
  H4       1.0000 0.33800  0.24400  0.69200  Biso   1.000  H
  H5       1.0000 0.37300  0.79700  0.46800  Biso   1.000  H
  H6       1.0000 0.62700  0.20300  0.53200  Biso   1.000  H
  H7       1.0000 0.51200  0.50500  0.37500  Biso   1.000  H
  H8       1.0000 0.48800  0.49500  0.62500  Biso   1.000  H
  H9       1.0000 0.40200  0.57700  0.19800  Biso   1.000  H
  H10      1.0000 0.59800  0.42300  0.80200  Biso   1.000  H
  H11      1.0000 0.16500  0.93200  0.17500  Biso   1.000  H
  H12      1.0000 0.83500  0.06800  0.82500  Biso   1.000  H
  H13      1.0000 0.24700  0.44700  0.45400  Biso   1.000  H
  H14      1.0000 0.75300  0.55300  0.54600  Biso   1.000  H
  H15      1.0000 0.07200  0.65100  0.22700  Biso   1.000  H
  H16      1.0000 0.92800  0.34900  0.77300  Biso   1.000  H
  H17      1.0000 0.11400  0.17100  0.51800  Biso   1.000  H
  H18      1.0000 0.88600  0.82900  0.48200  Biso   1.000  H
  H19      1.0000 0.95600  0.31000  0.48400  Biso   1.000  H
  H20      1.0000 0.04400  0.69000  0.51600  Biso   1.000  H
  H21      1.0000 0.84400  0.24300  0.28400  Biso   1.000  H
  H22      1.0000 0.15600  0.75700  0.71600  Biso   1.000  H
  H23      1.0000 0.85900  0.35800  0.19900  Biso   1.000  H
  H24      1.0000 0.14100  0.64200  0.80100  Biso   1.000  H
  O19      1.0000 0.22190  0.58780  0.95080  Biso   1.000  O
  O20      1.0000 0.77810  0.41220  0.04920  Biso   1.000  O
  H25      1.0000 0.25400  0.48400  0.00800  Biso   1.000  H
  H26      1.0000 0.74600  0.51600  0.99200  Biso   1.000  H
  H27      1.0000 0.30200  0.63800  0.95800  Biso   1.000  H
  H28      1.0000 0.69800  0.36200  0.04200  Biso   1.000  H
  O21      1.0000 0.92380  0.80580  0.09190  Biso   1.000  O
  O22      1.0000 0.07620  0.19420  0.90810  Biso   1.000  O
  H29      1.0000 0.85800  0.88900  0.08300  Biso   1.000  H
  H30      1.0000 0.14200  0.11100  0.91700  Biso   1.000  H
  H31      1.0000 0.96600  0.77600  0.04500  Biso   1.000  H
  H32      1.0000 0.03400  0.22400  0.95500  Biso   1.000  H
