data_image0
_cell_length_a       8.6204
_cell_length_b       9.85
_cell_length_c       8.348
_cell_angle_alpha    111.46
_cell_angle_beta     102.5
_cell_angle_gamma    71.818

_symmetry_space_group_name_H-M    "P 1"
_symmetry_int_tables_number       1

loop_
  _symmetry_equiv_pos_as_xyz
  'x, y, z'

loop_
  _atom_site_label
  _atom_site_occupancy
  _atom_site_fract_x
  _atom_site_fract_y
  _atom_site_fract_z
  _atom_site_thermal_displace_type
  _atom_site_B_iso_or_equiv
  _atom_site_type_symbol
  Cu1      1.0000 0.50000  0.50000  0.50000  Biso   1.000  Cu
  Cu2      1.0000 0.50000  0.00000  0.00000  Biso   1.000  Cu
  Cl1      1.0000 0.41400  0.31580  0.27530  Biso   1.000  Cl
  Cl2      1.0000 0.58600  0.68420  0.72470  Biso   1.000  Cl
  Cl3      1.0000 0.76850  0.96640  0.07170  Biso   1.000  Cl
  Cl4      1.0000 0.23150  0.03360  0.92830  Biso   1.000  Cl
  S1       1.0000 0.77500  0.15970  0.56200  Biso   1.000  S
  S2       1.0000 0.22500  0.84030  0.43800  Biso   1.000  S
  S3       1.0000 0.93620  0.52470  0.18290  Biso   1.000  S
  S4       1.0000 0.06380  0.47530  0.81710  Biso   1.000  S
  S5       1.0000 0.47800  0.90500  0.22640  Biso   1.000  S
  S6       1.0000 0.52200  0.09500  0.77360  Biso   1.000  S
  N1       1.0000 0.72590  0.39230  0.44750  Biso   1.000  N
  N2       1.0000 0.27410  0.60770  0.55250  Biso   1.000  N
  N3       1.0000 0.76010  0.47340  0.36510  Biso   1.000  N
  N4       1.0000 0.23990  0.52660  0.63490  Biso   1.000  N
  C1       1.0000 0.82590  0.26470  0.46100  Biso   1.000  C
  C2       1.0000 0.17410  0.73530  0.53900  Biso   1.000  C
  C3       1.0000 0.97300  0.20700  0.38300  Biso   1.000  C
  C4       1.0000 0.02700  0.79300  0.61700  Biso   1.000  C
  C5       1.0000 0.01000  0.28600  0.30100  Biso   1.000  C
  C6       1.0000 0.99000  0.71400  0.69900  Biso   1.000  C
  C7       1.0000 0.89640  0.42150  0.29400  Biso   1.000  C
  C8       1.0000 0.10360  0.57850  0.70600  Biso   1.000  C
  C9       1.0000 0.73100  0.64100  0.13800  Biso   1.000  C
  C10      1.0000 0.26900  0.35900  0.86200  Biso   1.000  C
  C11      1.0000 0.67400  0.78000  0.28500  Biso   1.000  C
  C12      1.0000 0.32600  0.22000  0.71500  Biso   1.000  C
  C13      1.0000 0.34400  0.77900  0.13600  Biso   1.000  C
  C14      1.0000 0.65600  0.22100  0.86400  Biso   1.000  C
  C15      1.0000 0.67200  0.29800  0.74200  Biso   1.000  C
  C16      1.0000 0.32800  0.70200  0.25800  Biso   1.000  C
