data_image0
_cell_length_a       6.6465
_cell_length_b       7.5421
_cell_length_c       10.4307
_cell_angle_alpha    108.431
_cell_angle_beta     96.643
_cell_angle_gamma    96.737

_symmetry_space_group_name_H-M    "P 1"
_symmetry_int_tables_number       1

loop_
  _symmetry_equiv_pos_as_xyz
  'x, y, z'

loop_
  _atom_site_label
  _atom_site_occupancy
  _atom_site_fract_x
  _atom_site_fract_y
  _atom_site_fract_z
  _atom_site_thermal_displace_type
  _atom_site_B_iso_or_equiv
  _atom_site_type_symbol
  Cu1      1.0000 0.00000  0.00000  0.00000  Biso   1.000  Cu
  O1       1.0000 0.18210  0.22558  0.12970  Biso   1.000  O
  O2       1.0000 0.81790  0.77442  0.87030  Biso   1.000  O
  O3       1.0000 0.22150  0.42094  0.34558  Biso   1.000  O
  O4       1.0000 0.77850  0.57906  0.65442  Biso   1.000  O
  O5       1.0000 0.24200  0.94400  0.34545  Biso   1.000  O
  O6       1.0000 0.75800  0.05600  0.65455  Biso   1.000  O
  O7       1.0000 0.22580  0.81210  0.11984  Biso   1.000  O
  O8       1.0000 0.77420  0.18790  0.88016  Biso   1.000  O
  N1       1.0000 0.82420  0.05500  0.14220  Biso   1.000  N
  N2       1.0000 0.17580  0.94500  0.85780  Biso   1.000  N
  C1       1.0000 0.12500  0.29040  0.24574  Biso   1.000  C
  C2       1.0000 0.87500  0.70960  0.75426  Biso   1.000  C
  C3       1.0000 0.91710  0.19510  0.25714  Biso   1.000  C
  C4       1.0000 0.08290  0.80490  0.74286  Biso   1.000  C
  C5       1.0000 0.82600  0.24710  0.37250  Biso   1.000  C
  C6       1.0000 0.17400  0.75290  0.62750  Biso   1.000  C
  H1       1.0000 0.88400  0.34000  0.44600  Biso   1.000  H
  H2       1.0000 0.11600  0.66000  0.55400  Biso   1.000  H
  C7       1.0000 0.63180  0.15290  0.36857  Biso   1.000  C
  C8       1.0000 0.36820  0.84710  0.63143  Biso   1.000  C
  H3       1.0000 0.57400  0.18100  0.44200  Biso   1.000  H
  H4       1.0000 0.42600  0.81900  0.55800  Biso   1.000  H
  C9       1.0000 0.53150  0.01480  0.24883  Biso   1.000  C
  C10      1.0000 0.46850  0.98520  0.75117  Biso   1.000  C
  C11      1.0000 0.31500  0.91310  0.23573  Biso   1.000  C
  C12      1.0000 0.68500  0.08690  0.76427  Biso   1.000  C
  C13      1.0000 0.63490  0.96890  0.13749  Biso   1.000  C
  C14      1.0000 0.36510  0.03110  0.86251  Biso   1.000  C
  H5       1.0000 0.57300  0.87700  0.06000  Biso   1.000  H
  H6       1.0000 0.42700  0.12300  0.94000  Biso   1.000  H
  N3       1.0000 0.58410  0.58000  0.29411  Biso   1.000  N
  N4       1.0000 0.41590  0.42000  0.70589  Biso   1.000  N
  H7       1.0000 0.48600  0.55600  0.31800  Biso   1.000  H
  H8       1.0000 0.51400  0.44400  0.68200  Biso   1.000  H
  C15      1.0000 0.62440  0.50310  0.16440  Biso   1.000  C
  C16      1.0000 0.37560  0.49690  0.83560  Biso   1.000  C
  H9       1.0000 0.52900  0.41000  0.10100  Biso   1.000  H
  H10      1.0000 0.47100  0.59000  0.89900  Biso   1.000  H
  C17      1.0000 0.74340  0.70910  0.36790  Biso   1.000  C
  C18      1.0000 0.25660  0.29090  0.63210  Biso   1.000  C
  H11      1.0000 0.75000  0.78600  0.46000  Biso   1.000  H
  H12      1.0000 0.25000  0.21400  0.54000  Biso   1.000  H
  C19      1.0000 0.81320  0.58830  0.16150  Biso   1.000  C
  C20      1.0000 0.18680  0.41170  0.83850  Biso   1.000  C
  H13      1.0000 0.88600  0.56900  0.09300  Biso   1.000  H
  H14      1.0000 0.11400  0.43100  0.90700  Biso   1.000  H
  N5       1.0000 0.88360  0.71630  0.28913  Biso   1.000  N
  N6       1.0000 0.11640  0.28370  0.71087  Biso   1.000  N
  H15      1.0000 0.00600  0.79700  0.31900  Biso   1.000  H
  H16      1.0000 0.99400  0.20300  0.68100  Biso   1.000  H
