data_image0
_cell_length_a       14.0597
_cell_length_b       9.4711
_cell_length_c       14.5223
_cell_angle_alpha    90
_cell_angle_beta     106.626
_cell_angle_gamma    90

_symmetry_space_group_name_H-M    "P 1"
_symmetry_int_tables_number       1

loop_
  _symmetry_equiv_pos_as_xyz
  'x, y, z'

loop_
  _atom_site_label
  _atom_site_occupancy
  _atom_site_fract_x
  _atom_site_fract_y
  _atom_site_fract_z
  _atom_site_thermal_displace_type
  _atom_site_B_iso_or_equiv
  _atom_site_type_symbol
  Cu1      1.0000 0.81714  0.80939  0.22282  Biso   1.000  Cu
  Cu2      1.0000 0.68286  0.30939  0.27718  Biso   1.000  Cu
  Cu3      1.0000 0.18286  0.19061  0.77718  Biso   1.000  Cu
  Cu4      1.0000 0.31714  0.69061  0.72282  Biso   1.000  Cu
  Cl1      1.0000 0.74331  0.97369  0.63634  Biso   1.000  Cl
  Cl2      1.0000 0.75669  0.47369  0.86366  Biso   1.000  Cl
  Cl3      1.0000 0.25669  0.02631  0.36366  Biso   1.000  Cl
  Cl4      1.0000 0.24331  0.52631  0.13634  Biso   1.000  Cl
  N1       1.0000 0.81304  0.91090  0.10006  Biso   1.000  N
  N2       1.0000 0.68696  0.41090  0.39994  Biso   1.000  N
  N3       1.0000 0.18696  0.08910  0.89994  Biso   1.000  N
  N4       1.0000 0.31304  0.58910  0.60006  Biso   1.000  N
  N5       1.0000 0.92476  0.69200  0.19033  Biso   1.000  N
  N6       1.0000 0.57524  0.19200  0.30967  Biso   1.000  N
  N7       1.0000 0.07524  0.30800  0.80967  Biso   1.000  N
  N8       1.0000 0.42476  0.80800  0.69033  Biso   1.000  N
  N9       1.0000 0.91789  0.81570  0.35394  Biso   1.000  N
  N10      1.0000 0.58211  0.31570  0.14606  Biso   1.000  N
  N11      1.0000 0.08211  0.18430  0.64606  Biso   1.000  N
  N12      1.0000 0.41789  0.68430  0.85394  Biso   1.000  N
  O1       1.0000 0.74937  0.60765  0.21184  Biso   1.000  O
  O2       1.0000 0.75063  0.10765  0.28816  Biso   1.000  O
  O3       1.0000 0.25063  0.39235  0.78816  Biso   1.000  O
  O4       1.0000 0.24937  0.89235  0.71184  Biso   1.000  O
  O5       1.0000 0.79743  0.38655  0.24797  Biso   1.000  O
  O6       1.0000 0.70257  0.88655  0.25203  Biso   1.000  O
  O7       1.0000 0.20257  0.61345  0.75203  Biso   1.000  O
  O8       1.0000 0.29743  0.11345  0.74797  Biso   1.000  O
  O9       1.0000 0.68080  0.87040  0.65240  Biso   1.000  O
  O10      1.0000 0.81920  0.37040  0.84760  Biso   1.000  O
  O11      1.0000 0.31920  0.12960  0.34760  Biso   1.000  O
  O12      1.0000 0.18080  0.62960  0.15240  Biso   1.000  O
  O13      1.0000 0.84200  0.95600  0.69570  Biso   1.000  O
  O14      1.0000 0.65800  0.45600  0.80430  Biso   1.000  O
  O15      1.0000 0.15800  0.04400  0.30430  Biso   1.000  O
  O16      1.0000 0.34200  0.54400  0.19570  Biso   1.000  O
  O17      1.0000 0.71260  0.10940  0.65110  Biso   1.000  O
  O18      1.0000 0.78740  0.60940  0.84890  Biso   1.000  O
  O19      1.0000 0.28740  0.89060  0.34890  Biso   1.000  O
  O20      1.0000 0.21260  0.39060  0.15110  Biso   1.000  O
  O21      1.0000 0.75000  0.96390  0.54000  Biso   1.000  O
  O22      1.0000 0.75000  0.46390  0.96000  Biso   1.000  O
  O23      1.0000 0.25000  0.03610  0.46000  Biso   1.000  O
  O24      1.0000 0.25000  0.53610  0.04000  Biso   1.000  O
  C1       1.0000 0.76620  0.03230  0.06740  Biso   1.000  C
  C2       1.0000 0.73380  0.53230  0.43260  Biso   1.000  C
  C3       1.0000 0.23380  0.96770  0.93260  Biso   1.000  C
  C4       1.0000 0.26620  0.46770  0.56740  Biso   1.000  C
  H1       1.0000 0.73100  0.07760  0.10410  Biso   1.000  H
  H2       1.0000 0.76900  0.57760  0.39590  Biso   1.000  H
  H3       1.0000 0.26900  0.92240  0.89590  Biso   1.000  H
  H4       1.0000 0.23100  0.42240  0.60410  Biso   1.000  H
  C5       1.0000 0.76820  0.09280  0.98140  Biso   1.000  C
  C6       1.0000 0.73180  0.59280  0.51860  Biso   1.000  C
  C7       1.0000 0.23180  0.90720  0.01860  Biso   1.000  C
  C8       1.0000 0.26820  0.40720  0.48140  Biso   1.000  C
  H5       1.0000 0.73380  0.17590  0.95980  Biso   1.000  H
  H6       1.0000 0.76620  0.67590  0.54020  Biso   1.000  H
  H7       1.0000 0.26620  0.82410  0.04020  Biso   1.000  H
  H8       1.0000 0.23380  0.32410  0.45980  Biso   1.000  H
  C9       1.0000 0.82220  0.02720  0.92880  Biso   1.000  C
  C10      1.0000 0.67780  0.52720  0.57120  Biso   1.000  C
  C11      1.0000 0.17780  0.97280  0.07120  Biso   1.000  C
  C12      1.0000 0.32220  0.47280  0.42880  Biso   1.000  C
  H9       1.0000 0.82560  0.06610  0.87100  Biso   1.000  H
  H10      1.0000 0.67440  0.56610  0.62900  Biso   1.000  H
  H11      1.0000 0.17440  0.93390  0.12900  Biso   1.000  H
  H12      1.0000 0.32560  0.43390  0.37100  Biso   1.000  H
  C13      1.0000 0.87140  0.90380  0.96200  Biso   1.000  C
  C14      1.0000 0.62860  0.40380  0.53800  Biso   1.000  C
  C15      1.0000 0.12860  0.09620  0.03800  Biso   1.000  C
  C16      1.0000 0.37140  0.59620  0.46200  Biso   1.000  C
  H13      1.0000 0.90780  0.85800  0.92660  Biso   1.000  H
  H14      1.0000 0.59220  0.35800  0.57340  Biso   1.000  H
  H15      1.0000 0.09220  0.14200  0.07340  Biso   1.000  H
  H16      1.0000 0.40780  0.64200  0.42660  Biso   1.000  H
  C17      1.0000 0.86630  0.84790  0.04893  Biso   1.000  C
  C18      1.0000 0.63370  0.34790  0.45107  Biso   1.000  C
  C19      1.0000 0.13370  0.15210  0.95107  Biso   1.000  C
  C20      1.0000 0.36630  0.65210  0.54893  Biso   1.000  C
  C21      1.0000 0.91260  0.70860  0.08630  Biso   1.000  C
  C22      1.0000 0.58740  0.20860  0.41370  Biso   1.000  C
  C23      1.0000 0.08740  0.29140  0.91370  Biso   1.000  C
  C24      1.0000 0.41260  0.79140  0.58630  Biso   1.000  C
  H17      1.0000 0.87130  0.63270  0.05160  Biso   1.000  H
  H18      1.0000 0.62870  0.13270  0.44840  Biso   1.000  H
  H19      1.0000 0.12870  0.36730  0.94840  Biso   1.000  H
  H20      1.0000 0.37130  0.86730  0.55160  Biso   1.000  H
  H21      1.0000 0.97710  0.70140  0.07470  Biso   1.000  H
  H22      1.0000 0.52290  0.20140  0.42530  Biso   1.000  H
  H23      1.0000 0.02290  0.29860  0.92530  Biso   1.000  H
  H24      1.0000 0.47710  0.79860  0.57470  Biso   1.000  H
  C25      1.0000 0.01822  0.75730  0.25100  Biso   1.000  C
  C26      1.0000 0.48178  0.25730  0.24900  Biso   1.000  C
  C27      1.0000 0.98178  0.24270  0.74900  Biso   1.000  C
  C28      1.0000 0.51822  0.74270  0.75100  Biso   1.000  C
  H25      1.0000 0.02930  0.84740  0.22390  Biso   1.000  H
  H26      1.0000 0.47070  0.34740  0.27610  Biso   1.000  H
  H27      1.0000 0.97070  0.15260  0.77610  Biso   1.000  H
  H28      1.0000 0.52930  0.65260  0.72390  Biso   1.000  H
  H29      1.0000 0.07420  0.69620  0.25310  Biso   1.000  H
  H30      1.0000 0.42580  0.19620  0.24690  Biso   1.000  H
  H31      1.0000 0.92580  0.30380  0.74690  Biso   1.000  H
  H32      1.0000 0.57420  0.80380  0.75310  Biso   1.000  H
  C29      1.0000 0.00912  0.77840  0.35070  Biso   1.000  C
  C30      1.0000 0.49088  0.27840  0.14930  Biso   1.000  C
  C31      1.0000 0.99088  0.22160  0.64930  Biso   1.000  C
  C32      1.0000 0.50912  0.72160  0.85070  Biso   1.000  C
  C33      1.0000 0.08670  0.76360  0.43390  Biso   1.000  C
  C34      1.0000 0.41330  0.26360  0.06610  Biso   1.000  C
  C35      1.0000 0.91330  0.23640  0.56610  Biso   1.000  C
  C36      1.0000 0.58670  0.73640  0.93390  Biso   1.000  C
  H33      1.0000 0.14970  0.73800  0.43110  Biso   1.000  H
  H34      1.0000 0.35030  0.23800  0.06890  Biso   1.000  H
  H35      1.0000 0.85030  0.26200  0.56890  Biso   1.000  H
  H36      1.0000 0.64970  0.76200  0.93110  Biso   1.000  H
  C37      1.0000 0.06830  0.78810  0.52190  Biso   1.000  C
  C38      1.0000 0.43170  0.28810  0.97810  Biso   1.000  C
  C39      1.0000 0.93170  0.21190  0.47810  Biso   1.000  C
  C40      1.0000 0.56830  0.71190  0.02190  Biso   1.000  C
  H37      1.0000 0.11910  0.77780  0.57880  Biso   1.000  H
  H38      1.0000 0.38090  0.27780  0.92120  Biso   1.000  H
  H39      1.0000 0.88090  0.22220  0.42120  Biso   1.000  H
  H40      1.0000 0.61910  0.72220  0.07880  Biso   1.000  H
  C41      1.0000 0.97560  0.82740  0.52430  Biso   1.000  C
  C42      1.0000 0.52440  0.32740  0.97570  Biso   1.000  C
  C43      1.0000 0.02440  0.17260  0.47570  Biso   1.000  C
  C44      1.0000 0.47560  0.67260  0.02430  Biso   1.000  C
  H41      1.0000 0.96270  0.84460  0.58260  Biso   1.000  H
  H42      1.0000 0.53730  0.34460  0.91740  Biso   1.000  H
  H43      1.0000 0.03730  0.15540  0.41740  Biso   1.000  H
  H44      1.0000 0.46270  0.65540  0.08260  Biso   1.000  H
  C45      1.0000 0.90110  0.84110  0.43876  Biso   1.000  C
  C46      1.0000 0.59890  0.34110  0.06124  Biso   1.000  C
  C47      1.0000 0.09890  0.15890  0.56124  Biso   1.000  C
  C48      1.0000 0.40110  0.65890  0.93876  Biso   1.000  C
  H45      1.0000 0.83800  0.86860  0.44010  Biso   1.000  H
  H46      1.0000 0.66200  0.36860  0.05990  Biso   1.000  H
  H47      1.0000 0.16200  0.13140  0.55990  Biso   1.000  H
  H48      1.0000 0.33800  0.63140  0.94010  Biso   1.000  H
  C49      1.0000 0.91664  0.54090  0.21970  Biso   1.000  C
  C50      1.0000 0.58336  0.04090  0.28030  Biso   1.000  C
  C51      1.0000 0.08336  0.45910  0.78030  Biso   1.000  C
  C52      1.0000 0.41664  0.95910  0.71970  Biso   1.000  C
  H49      1.0000 0.95710  0.53810  0.28700  Biso   1.000  H
  H50      1.0000 0.54290  0.03810  0.21300  Biso   1.000  H
  H51      1.0000 0.04290  0.46190  0.71300  Biso   1.000  H
  H52      1.0000 0.45710  0.96190  0.78700  Biso   1.000  H
  C53      1.0000 0.81167  0.51180  0.22494  Biso   1.000  C
  C54      1.0000 0.68833  0.01180  0.27506  Biso   1.000  C
  C55      1.0000 0.18833  0.48820  0.77506  Biso   1.000  C
  C56      1.0000 0.31167  0.98820  0.72494  Biso   1.000  C
  C57      1.0000 0.96290  0.43260  0.17190  Biso   1.000  C
  C58      1.0000 0.53710  0.93260  0.32810  Biso   1.000  C
  C59      1.0000 0.03710  0.56740  0.82810  Biso   1.000  C
  C60      1.0000 0.46290  0.06740  0.67190  Biso   1.000  C
  H53      1.0000 0.91550  0.40860  0.11100  Biso   1.000  H
  H54      1.0000 0.58450  0.90860  0.38900  Biso   1.000  H
  H55      1.0000 0.08450  0.59140  0.88900  Biso   1.000  H
  H56      1.0000 0.41550  0.09140  0.61100  Biso   1.000  H
  H57      1.0000 0.01980  0.47540  0.15760  Biso   1.000  H
  H58      1.0000 0.48020  0.97540  0.34240  Biso   1.000  H
  H59      1.0000 0.98020  0.52460  0.84240  Biso   1.000  H
  H60      1.0000 0.51980  0.02460  0.65760  Biso   1.000  H
  C61      1.0000 0.99620  0.30000  0.22500  Biso   1.000  C
  C62      1.0000 0.50380  0.80000  0.27500  Biso   1.000  C
  C63      1.0000 0.00380  0.70000  0.77500  Biso   1.000  C
  C64      1.0000 0.49620  0.20000  0.72500  Biso   1.000  C
  H61      1.0000 0.02370  0.23850  0.18670  Biso   1.000  H
  H62      1.0000 0.47630  0.73850  0.31330  Biso   1.000  H
  H63      1.0000 0.97630  0.76150  0.81330  Biso   1.000  H
  H64      1.0000 0.52370  0.26150  0.68670  Biso   1.000  H
  H65      1.0000 0.94070  0.25460  0.23860  Biso   1.000  H
  H66      1.0000 0.55930  0.75460  0.26140  Biso   1.000  H
  H67      1.0000 0.05930  0.74540  0.76140  Biso   1.000  H
  H68      1.0000 0.44070  0.24540  0.73860  Biso   1.000  H
  H69      1.0000 0.04580  0.32080  0.28420  Biso   1.000  H
  H70      1.0000 0.45420  0.82080  0.21580  Biso   1.000  H
  H71      1.0000 0.95420  0.67920  0.71580  Biso   1.000  H
  H72      1.0000 0.54580  0.17920  0.78420  Biso   1.000  H
