data_image0
_cell_length_a       8.194
_cell_length_b       9.959
_cell_length_c       15.358
_cell_angle_alpha    104.27
_cell_angle_beta     103.99
_cell_angle_gamma    91.1

_symmetry_space_group_name_H-M    "P 1"
_symmetry_int_tables_number       1

loop_
  _symmetry_equiv_pos_as_xyz
  'x, y, z'

loop_
  _atom_site_label
  _atom_site_occupancy
  _atom_site_fract_x
  _atom_site_fract_y
  _atom_site_fract_z
  _atom_site_thermal_displace_type
  _atom_site_B_iso_or_equiv
  _atom_site_type_symbol
  Cu1      1.0000 0.00000  0.00000  0.00000  Biso   1.000  Cu
  Cu2      1.0000 0.91120  0.48991  0.41438  Biso   1.000  Cu
  Cu3      1.0000 0.08880  0.51009  0.58562  Biso   1.000  Cu
  N1       1.0000 0.16910  0.10370  0.11617  Biso   1.000  N
  N2       1.0000 0.83090  0.89630  0.88383  Biso   1.000  N
  N3       1.0000 0.75440  0.46750  0.27445  Biso   1.000  N
  N4       1.0000 0.24560  0.53250  0.72555  Biso   1.000  N
  O1       1.0000 0.98960  0.84510  0.05617  Biso   1.000  O
  O2       1.0000 0.01040  0.15490  0.94383  Biso   1.000  O
  O3       1.0000 0.76330  0.87850  0.10790  Biso   1.000  O
  O4       1.0000 0.23670  0.12150  0.89210  Biso   1.000  O
  O5       1.0000 0.56010  0.89310  0.22950  Biso   1.000  O
  O6       1.0000 0.43990  0.10690  0.77050  Biso   1.000  O
  H1       1.0000 0.61430  0.88690  0.19040  Biso   1.000  H
  H2       1.0000 0.38570  0.11310  0.80960  Biso   1.000  H
  O7       1.0000 0.98940  0.30280  0.38880  Biso   1.000  O
  O8       1.0000 0.01060  0.69720  0.61120  Biso   1.000  O
  O9       1.0000 0.85860  0.67890  0.46710  Biso   1.000  O
  O10      1.0000 0.14140  0.32110  0.53290  Biso   1.000  O
  O11      1.0000 0.72900  0.41640  0.45697  Biso   1.000  O
  O12      1.0000 0.27100  0.58360  0.54303  Biso   1.000  O
  O13      1.0000 0.12230  0.56470  0.39836  Biso   1.000  O
  O14      1.0000 0.87770  0.43530  0.60164  Biso   1.000  O
  O15      1.0000 0.77560  0.11920  0.06742  Biso   1.000  O
  O16      1.0000 0.22440  0.88080  0.93258  Biso   1.000  O
  H3       1.0000 0.74800  0.04240  0.07240  Biso   1.000  H
  H4       1.0000 0.25200  0.95760  0.92760  Biso   1.000  H
  C1       1.0000 0.88750  0.81540  0.09730  Biso   1.000  C
  C2       1.0000 0.11250  0.18460  0.90270  Biso   1.000  C
  C3       1.0000 0.91810  0.68970  0.13650  Biso   1.000  C
  C4       1.0000 0.08190  0.31030  0.86350  Biso   1.000  C
  H5       1.0000 0.90590  0.71470  0.19960  Biso   1.000  H
  H6       1.0000 0.09410  0.28530  0.80040  Biso   1.000  H
  H7       1.0000 0.83050  0.61660  0.10050  Biso   1.000  H
  H8       1.0000 0.16950  0.38340  0.89950  Biso   1.000  H
  C5       1.0000 0.07820  0.63450  0.13760  Biso   1.000  C
  C6       1.0000 0.92180  0.36550  0.86240  Biso   1.000  C
  H9       1.0000 0.09420  0.61190  0.07590  Biso   1.000  H
  H10      1.0000 0.90580  0.38810  0.92410  Biso   1.000  H
  H11      1.0000 0.08170  0.55210  0.15970  Biso   1.000  H
  H12      1.0000 0.91830  0.44790  0.84030  Biso   1.000  H
  H13      1.0000 0.16630  0.70240  0.17810  Biso   1.000  H
  H14      1.0000 0.83370  0.29760  0.82190  Biso   1.000  H
  C7       1.0000 0.29840  0.04110  0.15720  Biso   1.000  C
  C8       1.0000 0.70160  0.95890  0.84280  Biso   1.000  C
  H15      1.0000 0.30610  0.94750  0.13100  Biso   1.000  H
  H16      1.0000 0.69390  0.05250  0.86900  Biso   1.000  H
  C9       1.0000 0.41840  0.10700  0.23490  Biso   1.000  C
  C10      1.0000 0.58160  0.89300  0.76510  Biso   1.000  C
  C11      1.0000 0.40300  0.24510  0.27500  Biso   1.000  C
  C12      1.0000 0.59700  0.75490  0.72500  Biso   1.000  C
  H17      1.0000 0.48250  0.29410  0.32830  Biso   1.000  H
  H18      1.0000 0.51750  0.70590  0.67170  Biso   1.000  H
  C13      1.0000 0.26980  0.30810  0.23530  Biso   1.000  C
  C14      1.0000 0.73020  0.69190  0.76470  Biso   1.000  C
  H19      1.0000 0.25610  0.40010  0.26250  Biso   1.000  H
  H20      1.0000 0.74390  0.59990  0.73750  Biso   1.000  H
  C15      1.0000 0.15610  0.23670  0.15560  Biso   1.000  C
  C16      1.0000 0.84390  0.76330  0.84440  Biso   1.000  C
  H21      1.0000 0.06770  0.28210  0.12820  Biso   1.000  H
  H22      1.0000 0.93230  0.71790  0.87180  Biso   1.000  H
  C17      1.0000 0.56350  0.03190  0.27680  Biso   1.000  C
  C18      1.0000 0.43650  0.96810  0.72320  Biso   1.000  C
  H23      1.0000 0.66870  0.07980  0.27830  Biso   1.000  H
  H24      1.0000 0.33130  0.92020  0.72170  Biso   1.000  H
  H25      1.0000 0.56190  0.03680  0.34050  Biso   1.000  H
  H26      1.0000 0.43810  0.96320  0.65950  Biso   1.000  H
  C19      1.0000 0.08500  0.25710  0.45020  Biso   1.000  C
  C20      1.0000 0.91500  0.74290  0.54980  Biso   1.000  C
  C21      1.0000 0.14050  0.11360  0.42070  Biso   1.000  C
  C22      1.0000 0.85950  0.88640  0.57930  Biso   1.000  C
  H27      1.0000 0.25680  0.12360  0.41750  Biso   1.000  H
  H28      1.0000 0.74320  0.87640  0.58250  Biso   1.000  H
  H29      1.0000 0.13960  0.06780  0.46950  Biso   1.000  H
  H30      1.0000 0.86040  0.93220  0.53050  Biso   1.000  H
  C23      1.0000 0.04740  0.02300  0.33510  Biso   1.000  C
  C24      1.0000 0.95260  0.97700  0.66490  Biso   1.000  C
  H31      1.0000 0.95270  0.97620  0.34510  Biso   1.000  H
  H32      1.0000 0.04730  0.02380  0.65490  Biso   1.000  H
  H33      1.0000 0.11890  0.95560  0.31160  Biso   1.000  H
  H34      1.0000 0.88110  0.04440  0.68840  Biso   1.000  H
  H35      1.0000 0.00800  0.07610  0.29090  Biso   1.000  H
  H36      1.0000 0.99200  0.92390  0.70910  Biso   1.000  H
  C25      1.0000 0.74550  0.40280  0.53680  Biso   1.000  C
  C26      1.0000 0.25450  0.59720  0.46320  Biso   1.000  C
  C27      1.0000 0.59360  0.34610  0.55970  Biso   1.000  C
  C28      1.0000 0.40640  0.65390  0.44030  Biso   1.000  C
  H37      1.0000 0.56500  0.41670  0.60850  Biso   1.000  H
  H38      1.0000 0.43500  0.58330  0.39150  Biso   1.000  H
  H39      1.0000 0.49910  0.32980  0.50520  Biso   1.000  H
  H40      1.0000 0.50090  0.67020  0.49480  Biso   1.000  H
  C29      1.0000 0.61260  0.22130  0.58880  Biso   1.000  C
  C30      1.0000 0.38740  0.77870  0.41120  Biso   1.000  C
  H41      1.0000 0.64180  0.15040  0.54150  Biso   1.000  H
  H42      1.0000 0.35820  0.84960  0.45850  Biso   1.000  H
  H43      1.0000 0.50850  0.19170  0.59940  Biso   1.000  H
  H44      1.0000 0.49150  0.80830  0.40060  Biso   1.000  H
  H45      1.0000 0.70040  0.23750  0.64530  Biso   1.000  H
  H46      1.0000 0.29960  0.76250  0.35470  Biso   1.000  H
  C31      1.0000 0.74700  0.35130  0.20780  Biso   1.000  C
  C32      1.0000 0.25300  0.64870  0.79220  Biso   1.000  C
  H47      1.0000 0.82060  0.28460  0.22040  Biso   1.000  H
  H48      1.0000 0.17940  0.71540  0.77960  Biso   1.000  H
  C33      1.0000 0.63640  0.32450  0.12130  Biso   1.000  C
  C34      1.0000 0.36360  0.67550  0.87870  Biso   1.000  C
  C35      1.0000 0.52680  0.42340  0.10390  Biso   1.000  C
  C36      1.0000 0.47320  0.57660  0.89610  Biso   1.000  C
  H49      1.0000 0.44860  0.40870  0.04660  Biso   1.000  H
  H50      1.0000 0.55140  0.59130  0.95340  Biso   1.000  H
  C37      1.0000 0.53430  0.54340  0.17170  Biso   1.000  C
  C38      1.0000 0.46570  0.45660  0.82830  Biso   1.000  C
  H51      1.0000 0.46190  0.61170  0.16110  Biso   1.000  H
  H52      1.0000 0.53810  0.38830  0.83890  Biso   1.000  H
  C39      1.0000 0.64860  0.56150  0.25470  Biso   1.000  C
  C40      1.0000 0.35140  0.43850  0.74530  Biso   1.000  C
  H53      1.0000 0.65320  0.64400  0.30010  Biso   1.000  H
  H54      1.0000 0.34680  0.35600  0.69990  Biso   1.000  H
  C41      1.0000 0.63240  0.19060  0.04780  Biso   1.000  C
  C42      1.0000 0.36760  0.80940  0.95220  Biso   1.000  C
  H55      1.0000 0.53340  0.13100  0.04240  Biso   1.000  H
  H56      1.0000 0.46660  0.86900  0.95760  Biso   1.000  H
  H57      1.0000 0.62200  0.21170  0.98850  Biso   1.000  H
  H58      1.0000 0.37800  0.78830  0.01150  Biso   1.000  H
