data_image0
_cell_length_a       18.631
_cell_length_b       9.7039
_cell_length_c       19.276
_cell_angle_alpha    90
_cell_angle_beta     99.002
_cell_angle_gamma    90

_symmetry_space_group_name_H-M    "P 1"
_symmetry_int_tables_number       1

loop_
  _symmetry_equiv_pos_as_xyz
  'x, y, z'

loop_
  _atom_site_label
  _atom_site_occupancy
  _atom_site_fract_x
  _atom_site_fract_y
  _atom_site_fract_z
  _atom_site_thermal_displace_type
  _atom_site_B_iso_or_equiv
  _atom_site_type_symbol
  C1       1.0000 0.62410  0.77060  0.71140  Biso   1.000  C
  C2       1.0000 0.12410  0.27060  0.71140  Biso   1.000  C
  C3       1.0000 0.37590  0.77060  0.78860  Biso   1.000  C
  C4       1.0000 0.87590  0.27060  0.78860  Biso   1.000  C
  C5       1.0000 0.37590  0.22940  0.28860  Biso   1.000  C
  C6       1.0000 0.87590  0.72940  0.28860  Biso   1.000  C
  C7       1.0000 0.62410  0.22940  0.21140  Biso   1.000  C
  C8       1.0000 0.12410  0.72940  0.21140  Biso   1.000  C
  C9       1.0000 0.69750  0.76990  0.69150  Biso   1.000  C
  C10      1.0000 0.19750  0.26990  0.69150  Biso   1.000  C
  C11      1.0000 0.30250  0.76990  0.80850  Biso   1.000  C
  C12      1.0000 0.80250  0.26990  0.80850  Biso   1.000  C
  C13      1.0000 0.30250  0.23010  0.30850  Biso   1.000  C
  C14      1.0000 0.80250  0.73010  0.30850  Biso   1.000  C
  C15      1.0000 0.69750  0.23010  0.19150  Biso   1.000  C
  C16      1.0000 0.19750  0.73010  0.19150  Biso   1.000  C
  C17      1.0000 0.73790  0.88880  0.69420  Biso   1.000  C
  C18      1.0000 0.23790  0.38880  0.69420  Biso   1.000  C
  C19      1.0000 0.26210  0.88880  0.80580  Biso   1.000  C
  C20      1.0000 0.76210  0.38880  0.80580  Biso   1.000  C
  C21      1.0000 0.26210  0.11120  0.30580  Biso   1.000  C
  C22      1.0000 0.76210  0.61120  0.30580  Biso   1.000  C
  C23      1.0000 0.73790  0.11120  0.19420  Biso   1.000  C
  C24      1.0000 0.23790  0.61120  0.19420  Biso   1.000  C
  H1       1.0000 0.71930  0.97020  0.70970  Biso   1.000  H
  H2       1.0000 0.21930  0.47020  0.70970  Biso   1.000  H
  H3       1.0000 0.28070  0.97020  0.79030  Biso   1.000  H
  H4       1.0000 0.78070  0.47020  0.79030  Biso   1.000  H
  H5       1.0000 0.28070  0.02980  0.29030  Biso   1.000  H
  H6       1.0000 0.78070  0.52980  0.29030  Biso   1.000  H
  H7       1.0000 0.71930  0.02980  0.20970  Biso   1.000  H
  H8       1.0000 0.21930  0.52980  0.20970  Biso   1.000  H
  C25      1.0000 0.80550  0.88820  0.67420  Biso   1.000  C
  C26      1.0000 0.30550  0.38820  0.67420  Biso   1.000  C
  C27      1.0000 0.19450  0.88820  0.82580  Biso   1.000  C
  C28      1.0000 0.69450  0.38820  0.82580  Biso   1.000  C
  C29      1.0000 0.19450  0.11180  0.32580  Biso   1.000  C
  C30      1.0000 0.69450  0.61180  0.32580  Biso   1.000  C
  C31      1.0000 0.80550  0.11180  0.17420  Biso   1.000  C
  C32      1.0000 0.30550  0.61180  0.17420  Biso   1.000  C
  H9       1.0000 0.83240  0.96930  0.67620  Biso   1.000  H
  H10      1.0000 0.33240  0.46930  0.67620  Biso   1.000  H
  H11      1.0000 0.16760  0.96930  0.82380  Biso   1.000  H
  H12      1.0000 0.66760  0.46930  0.82380  Biso   1.000  H
  H13      1.0000 0.16760  0.03070  0.32380  Biso   1.000  H
  H14      1.0000 0.66760  0.53070  0.32380  Biso   1.000  H
  H15      1.0000 0.83240  0.03070  0.17620  Biso   1.000  H
  H16      1.0000 0.33240  0.53070  0.17620  Biso   1.000  H
  C33      1.0000 0.83310  0.77150  0.65160  Biso   1.000  C
  C34      1.0000 0.33310  0.27150  0.65160  Biso   1.000  C
  C35      1.0000 0.16690  0.77150  0.84840  Biso   1.000  C
  C36      1.0000 0.66690  0.27150  0.84840  Biso   1.000  C
  C37      1.0000 0.16690  0.22850  0.34840  Biso   1.000  C
  C38      1.0000 0.66690  0.72850  0.34840  Biso   1.000  C
  C39      1.0000 0.83310  0.22850  0.15160  Biso   1.000  C
  C40      1.0000 0.33310  0.72850  0.15160  Biso   1.000  C
  H17      1.0000 0.87830  0.77270  0.63690  Biso   1.000  H
  H18      1.0000 0.37830  0.27270  0.63690  Biso   1.000  H
  H19      1.0000 0.12170  0.77270  0.86310  Biso   1.000  H
  H20      1.0000 0.62170  0.27270  0.86310  Biso   1.000  H
  H21      1.0000 0.12170  0.22730  0.36310  Biso   1.000  H
  H22      1.0000 0.62170  0.72730  0.36310  Biso   1.000  H
  H23      1.0000 0.87830  0.22730  0.13690  Biso   1.000  H
  H24      1.0000 0.37830  0.72730  0.13690  Biso   1.000  H
  C41      1.0000 0.79480  0.65130  0.65030  Biso   1.000  C
  C42      1.0000 0.29480  0.15130  0.65030  Biso   1.000  C
  C43      1.0000 0.20520  0.65130  0.84970  Biso   1.000  C
  C44      1.0000 0.70520  0.15130  0.84970  Biso   1.000  C
  C45      1.0000 0.20520  0.34870  0.34970  Biso   1.000  C
  C46      1.0000 0.70520  0.84870  0.34970  Biso   1.000  C
  C47      1.0000 0.79480  0.34870  0.15030  Biso   1.000  C
  C48      1.0000 0.29480  0.84870  0.15030  Biso   1.000  C
  H25      1.0000 0.81490  0.57000  0.63630  Biso   1.000  H
  H26      1.0000 0.31490  0.07000  0.63630  Biso   1.000  H
  H27      1.0000 0.18510  0.57000  0.86370  Biso   1.000  H
  H28      1.0000 0.68510  0.07000  0.86370  Biso   1.000  H
  H29      1.0000 0.18510  0.43000  0.36370  Biso   1.000  H
  H30      1.0000 0.68510  0.93000  0.36370  Biso   1.000  H
  H31      1.0000 0.81490  0.43000  0.13630  Biso   1.000  H
  H32      1.0000 0.31490  0.93000  0.13630  Biso   1.000  H
  C49      1.0000 0.72600  0.65000  0.66980  Biso   1.000  C
  C50      1.0000 0.22600  0.15000  0.66980  Biso   1.000  C
  C51      1.0000 0.27400  0.65000  0.83020  Biso   1.000  C
  C52      1.0000 0.77400  0.15000  0.83020  Biso   1.000  C
  C53      1.0000 0.27400  0.35000  0.33020  Biso   1.000  C
  C54      1.0000 0.77400  0.85000  0.33020  Biso   1.000  C
  C55      1.0000 0.72600  0.35000  0.16980  Biso   1.000  C
  C56      1.0000 0.22600  0.85000  0.16980  Biso   1.000  C
  H33      1.0000 0.69950  0.56840  0.66810  Biso   1.000  H
  H34      1.0000 0.19950  0.06840  0.66810  Biso   1.000  H
  H35      1.0000 0.30050  0.56840  0.83190  Biso   1.000  H
  H36      1.0000 0.80050  0.06840  0.83190  Biso   1.000  H
  H37      1.0000 0.30050  0.43160  0.33190  Biso   1.000  H
  H38      1.0000 0.80050  0.93160  0.33190  Biso   1.000  H
  H39      1.0000 0.69950  0.43160  0.16810  Biso   1.000  H
  H40      1.0000 0.19950  0.93160  0.16810  Biso   1.000  H
  C57      1.0000 0.43580  0.77930  0.62400  Biso   1.000  C
  C58      1.0000 0.93580  0.27930  0.62400  Biso   1.000  C
  C59      1.0000 0.56420  0.77930  0.87600  Biso   1.000  C
  C60      1.0000 0.06420  0.27930  0.87600  Biso   1.000  C
  C61      1.0000 0.56420  0.22070  0.37600  Biso   1.000  C
  C62      1.0000 0.06420  0.72070  0.37600  Biso   1.000  C
  C63      1.0000 0.43580  0.22070  0.12400  Biso   1.000  C
  C64      1.0000 0.93580  0.72070  0.12400  Biso   1.000  C
  C65      1.0000 0.39550  0.78170  0.55180  Biso   1.000  C
  C66      1.0000 0.89550  0.28170  0.55180  Biso   1.000  C
  C67      1.0000 0.60450  0.78170  0.94820  Biso   1.000  C
  C68      1.0000 0.10450  0.28170  0.94820  Biso   1.000  C
  C69      1.0000 0.60450  0.21830  0.44820  Biso   1.000  C
  C70      1.0000 0.10450  0.71830  0.44820  Biso   1.000  C
  C71      1.0000 0.39550  0.21830  0.05180  Biso   1.000  C
  C72      1.0000 0.89550  0.71830  0.05180  Biso   1.000  C
  C73      1.0000 0.39360  0.89950  0.51130  Biso   1.000  C
  C74      1.0000 0.89360  0.39950  0.51130  Biso   1.000  C
  C75      1.0000 0.60640  0.89950  0.98870  Biso   1.000  C
  C76      1.0000 0.10640  0.39950  0.98870  Biso   1.000  C
  C77      1.0000 0.60640  0.10050  0.48870  Biso   1.000  C
  C78      1.0000 0.10640  0.60050  0.48870  Biso   1.000  C
  C79      1.0000 0.39360  0.10050  0.01130  Biso   1.000  C
  C80      1.0000 0.89360  0.60050  0.01130  Biso   1.000  C
  H41      1.0000 0.41770  0.97820  0.53000  Biso   1.000  H
  H42      1.0000 0.91770  0.47820  0.53000  Biso   1.000  H
  H43      1.0000 0.58230  0.97820  0.97000  Biso   1.000  H
  H44      1.0000 0.08230  0.47820  0.97000  Biso   1.000  H
  H45      1.0000 0.58230  0.02180  0.47000  Biso   1.000  H
  H46      1.0000 0.08230  0.52180  0.47000  Biso   1.000  H
  H47      1.0000 0.41770  0.02180  0.03000  Biso   1.000  H
  H48      1.0000 0.91770  0.52180  0.03000  Biso   1.000  H
  C81      1.0000 0.35620  0.90230  0.44310  Biso   1.000  C
  C82      1.0000 0.85620  0.40230  0.44310  Biso   1.000  C
  C83      1.0000 0.64380  0.90230  0.05690  Biso   1.000  C
  C84      1.0000 0.14380  0.40230  0.05690  Biso   1.000  C
  C85      1.0000 0.64380  0.09770  0.55690  Biso   1.000  C
  C86      1.0000 0.14380  0.59770  0.55690  Biso   1.000  C
  C87      1.0000 0.35620  0.09770  0.94310  Biso   1.000  C
  C88      1.0000 0.85620  0.59770  0.94310  Biso   1.000  C
  H49      1.0000 0.35560  0.98260  0.41670  Biso   1.000  H
  H50      1.0000 0.85560  0.48260  0.41670  Biso   1.000  H
  H51      1.0000 0.64440  0.98260  0.08330  Biso   1.000  H
  H52      1.0000 0.14440  0.48260  0.08330  Biso   1.000  H
  H53      1.0000 0.64440  0.01740  0.58330  Biso   1.000  H
  H54      1.0000 0.14440  0.51740  0.58330  Biso   1.000  H
  H55      1.0000 0.35560  0.01740  0.91670  Biso   1.000  H
  H56      1.0000 0.85560  0.51740  0.91670  Biso   1.000  H
  C89      1.0000 0.32050  0.78820  0.41470  Biso   1.000  C
  C90      1.0000 0.82050  0.28820  0.41470  Biso   1.000  C
  C91      1.0000 0.67950  0.78820  0.08530  Biso   1.000  C
  C92      1.0000 0.17950  0.28820  0.08530  Biso   1.000  C
  C93      1.0000 0.67950  0.21180  0.58530  Biso   1.000  C
  C94      1.0000 0.17950  0.71180  0.58530  Biso   1.000  C
  C95      1.0000 0.32050  0.21180  0.91470  Biso   1.000  C
  C96      1.0000 0.82050  0.71180  0.91470  Biso   1.000  C
  H57      1.0000 0.29600  0.78890  0.36870  Biso   1.000  H
  H58      1.0000 0.79600  0.28890  0.36870  Biso   1.000  H
  H59      1.0000 0.70400  0.78890  0.13130  Biso   1.000  H
  H60      1.0000 0.20400  0.28890  0.13130  Biso   1.000  H
  H61      1.0000 0.70400  0.21110  0.63130  Biso   1.000  H
  H62      1.0000 0.20400  0.71110  0.63130  Biso   1.000  H
  H63      1.0000 0.29600  0.21110  0.86870  Biso   1.000  H
  H64      1.0000 0.79600  0.71110  0.86870  Biso   1.000  H
  C97      1.0000 0.32150  0.67490  0.45460  Biso   1.000  C
  C98      1.0000 0.82150  0.17490  0.45460  Biso   1.000  C
  C99      1.0000 0.67850  0.67490  0.04540  Biso   1.000  C
  C100     1.0000 0.17850  0.17490  0.04540  Biso   1.000  C
  C101     1.0000 0.67850  0.32510  0.54540  Biso   1.000  C
  C102     1.0000 0.17850  0.82510  0.54540  Biso   1.000  C
  C103     1.0000 0.32150  0.32510  0.95460  Biso   1.000  C
  C104     1.0000 0.82150  0.82510  0.95460  Biso   1.000  C
  H65      1.0000 0.29470  0.59850  0.43660  Biso   1.000  H
  H66      1.0000 0.79470  0.09850  0.43660  Biso   1.000  H
  H67      1.0000 0.70530  0.59850  0.06340  Biso   1.000  H
  H68      1.0000 0.20530  0.09850  0.06340  Biso   1.000  H
  H69      1.0000 0.70530  0.40150  0.56340  Biso   1.000  H
  H70      1.0000 0.20530  0.90150  0.56340  Biso   1.000  H
  H71      1.0000 0.29470  0.40150  0.93660  Biso   1.000  H
  H72      1.0000 0.79470  0.90150  0.93660  Biso   1.000  H
  C105     1.0000 0.36090  0.66750  0.52170  Biso   1.000  C
  C106     1.0000 0.86090  0.16750  0.52170  Biso   1.000  C
  C107     1.0000 0.63910  0.66750  0.97830  Biso   1.000  C
  C108     1.0000 0.13910  0.16750  0.97830  Biso   1.000  C
  C109     1.0000 0.63910  0.33250  0.47830  Biso   1.000  C
  C110     1.0000 0.13910  0.83250  0.47830  Biso   1.000  C
  C111     1.0000 0.36090  0.33250  0.02170  Biso   1.000  C
  C112     1.0000 0.86090  0.83250  0.02170  Biso   1.000  C
  H73      1.0000 0.36380  0.58470  0.54620  Biso   1.000  H
  H74      1.0000 0.86380  0.08470  0.54620  Biso   1.000  H
  H75      1.0000 0.63620  0.58470  0.95380  Biso   1.000  H
  H76      1.0000 0.13620  0.08470  0.95380  Biso   1.000  H
  H77      1.0000 0.63620  0.41530  0.45380  Biso   1.000  H
  H78      1.0000 0.13620  0.91530  0.45380  Biso   1.000  H
  H79      1.0000 0.36380  0.41530  0.04620  Biso   1.000  H
  H80      1.0000 0.86380  0.91530  0.04620  Biso   1.000  H
  C113     1.0000 0.52960  0.34660  0.70310  Biso   1.000  C
  C114     1.0000 0.02960  0.84660  0.70310  Biso   1.000  C
  C115     1.0000 0.47040  0.34660  0.79690  Biso   1.000  C
  C116     1.0000 0.97040  0.84660  0.79690  Biso   1.000  C
  C117     1.0000 0.47040  0.65340  0.29690  Biso   1.000  C
  C118     1.0000 0.97040  0.15340  0.29690  Biso   1.000  C
  C119     1.0000 0.52960  0.65340  0.20310  Biso   1.000  C
  C120     1.0000 0.02960  0.15340  0.20310  Biso   1.000  C
  H81      1.0000 0.55070  0.39280  0.66910  Biso   1.000  H
  H82      1.0000 0.05070  0.89280  0.66910  Biso   1.000  H
  H83      1.0000 0.44930  0.39280  0.83090  Biso   1.000  H
  H84      1.0000 0.94930  0.89280  0.83090  Biso   1.000  H
  H85      1.0000 0.44930  0.60720  0.33090  Biso   1.000  H
  H86      1.0000 0.94930  0.10720  0.33090  Biso   1.000  H
  H87      1.0000 0.55070  0.60720  0.16910  Biso   1.000  H
  H88      1.0000 0.05070  0.10720  0.16910  Biso   1.000  H
  C121     1.0000 0.52960  0.20430  0.70390  Biso   1.000  C
  C122     1.0000 0.02960  0.70430  0.70390  Biso   1.000  C
  C123     1.0000 0.47040  0.20430  0.79610  Biso   1.000  C
  C124     1.0000 0.97040  0.70430  0.79610  Biso   1.000  C
  C125     1.0000 0.47040  0.79570  0.29610  Biso   1.000  C
  C126     1.0000 0.97040  0.29570  0.29610  Biso   1.000  C
  C127     1.0000 0.52960  0.79570  0.20390  Biso   1.000  C
  C128     1.0000 0.02960  0.29570  0.20390  Biso   1.000  C
  H89      1.0000 0.55120  0.15720  0.67060  Biso   1.000  H
  H90      1.0000 0.05120  0.65720  0.67060  Biso   1.000  H
  H91      1.0000 0.44880  0.15720  0.82940  Biso   1.000  H
  H92      1.0000 0.94880  0.65720  0.82940  Biso   1.000  H
  H93      1.0000 0.44880  0.84280  0.32940  Biso   1.000  H
  H94      1.0000 0.94880  0.34280  0.32940  Biso   1.000  H
  H95      1.0000 0.55120  0.84280  0.17060  Biso   1.000  H
  H96      1.0000 0.05120  0.34280  0.17060  Biso   1.000  H
  Cu1      1.0000 0.50000  0.64226  0.75000  Biso   1.000  Cu
  Cu2      1.0000 0.00000  0.14226  0.75000  Biso   1.000  Cu
  Cu3      1.0000 0.50000  0.35774  0.25000  Biso   1.000  Cu
  Cu4      1.0000 0.00000  0.85774  0.25000  Biso   1.000  Cu
  Cu5      1.0000 0.50000  0.90866  0.75000  Biso   1.000  Cu
  Cu6      1.0000 0.00000  0.40866  0.75000  Biso   1.000  Cu
  Cu7      1.0000 0.50000  0.09134  0.25000  Biso   1.000  Cu
  Cu8      1.0000 0.00000  0.59134  0.25000  Biso   1.000  Cu
  N1       1.0000 0.50000  0.41870  0.75000  Biso   1.000  N
  N2       1.0000 0.00000  0.91870  0.75000  Biso   1.000  N
  N3       1.0000 0.50000  0.58130  0.25000  Biso   1.000  N
  N4       1.0000 0.00000  0.08130  0.25000  Biso   1.000  N
  N5       1.0000 0.50000  0.13300  0.75000  Biso   1.000  N
  N6       1.0000 0.00000  0.63300  0.75000  Biso   1.000  N
  N7       1.0000 0.50000  0.86700  0.25000  Biso   1.000  N
  N8       1.0000 0.00000  0.36700  0.25000  Biso   1.000  N
  O1       1.0000 0.59120  0.65750  0.71290  Biso   1.000  O
  O2       1.0000 0.09120  0.15750  0.71290  Biso   1.000  O
  O3       1.0000 0.40880  0.65750  0.78710  Biso   1.000  O
  O4       1.0000 0.90880  0.15750  0.78710  Biso   1.000  O
  O5       1.0000 0.40880  0.34250  0.28710  Biso   1.000  O
  O6       1.0000 0.90880  0.84250  0.28710  Biso   1.000  O
  O7       1.0000 0.59120  0.34250  0.21290  Biso   1.000  O
  O8       1.0000 0.09120  0.84250  0.21290  Biso   1.000  O
  O9       1.0000 0.59790  0.88540  0.72560  Biso   1.000  O
  O10      1.0000 0.09790  0.38540  0.72560  Biso   1.000  O
  O11      1.0000 0.40210  0.88540  0.77440  Biso   1.000  O
  O12      1.0000 0.90210  0.38540  0.77440  Biso   1.000  O
  O13      1.0000 0.40210  0.11460  0.27440  Biso   1.000  O
  O14      1.0000 0.90210  0.61460  0.27440  Biso   1.000  O
  O15      1.0000 0.59790  0.11460  0.22560  Biso   1.000  O
  O16      1.0000 0.09790  0.61460  0.22560  Biso   1.000  O
  O17      1.0000 0.44490  0.66510  0.65490  Biso   1.000  O
  O18      1.0000 0.94490  0.16510  0.65490  Biso   1.000  O
  O19      1.0000 0.55510  0.66510  0.84510  Biso   1.000  O
  O20      1.0000 0.05510  0.16510  0.84510  Biso   1.000  O
  O21      1.0000 0.55510  0.33490  0.34510  Biso   1.000  O
  O22      1.0000 0.05510  0.83490  0.34510  Biso   1.000  O
  O23      1.0000 0.44490  0.33490  0.15490  Biso   1.000  O
  O24      1.0000 0.94490  0.83490  0.15490  Biso   1.000  O
  O25      1.0000 0.45830  0.89320  0.65130  Biso   1.000  O
  O26      1.0000 0.95830  0.39320  0.65130  Biso   1.000  O
  O27      1.0000 0.54170  0.89320  0.84870  Biso   1.000  O
  O28      1.0000 0.04170  0.39320  0.84870  Biso   1.000  O
  O29      1.0000 0.54170  0.10680  0.34870  Biso   1.000  O
  O30      1.0000 0.04170  0.60680  0.34870  Biso   1.000  O
  O31      1.0000 0.45830  0.10680  0.15130  Biso   1.000  O
  O32      1.0000 0.95830  0.60680  0.15130  Biso   1.000  O
  Kr1      1.0000 0.57266  0.69090  0.51288  Biso   1.000  Kr
  Kr2      1.0000 0.07266  0.19090  0.51288  Biso   1.000  Kr
  Kr3      1.0000 0.42734  0.69090  0.98712  Biso   1.000  Kr
  Kr4      1.0000 0.92734  0.19090  0.98712  Biso   1.000  Kr
  Kr5      1.0000 0.42734  0.30910  0.48712  Biso   1.000  Kr
  Kr6      1.0000 0.92734  0.80910  0.48712  Biso   1.000  Kr
  Kr7      1.0000 0.57266  0.30910  0.01288  Biso   1.000  Kr
  Kr8      1.0000 0.07266  0.80910  0.01288  Biso   1.000  Kr
