data_image0
_cell_length_a       18.396
_cell_length_b       9.702
_cell_length_c       19.188
_cell_angle_alpha    90
_cell_angle_beta     98.001
_cell_angle_gamma    90

_symmetry_space_group_name_H-M    "P 1"
_symmetry_int_tables_number       1

loop_
  _symmetry_equiv_pos_as_xyz
  'x, y, z'

loop_
  _atom_site_label
  _atom_site_occupancy
  _atom_site_fract_x
  _atom_site_fract_y
  _atom_site_fract_z
  _atom_site_thermal_displace_type
  _atom_site_B_iso_or_equiv
  _atom_site_type_symbol
  Ar1      1.0000 0.57450  0.69070  0.51690  Biso   1.000  Ar
  Ar2      1.0000 0.07450  0.19070  0.51690  Biso   1.000  Ar
  Ar3      1.0000 0.42550  0.69070  0.98310  Biso   1.000  Ar
  Ar4      1.0000 0.92550  0.19070  0.98310  Biso   1.000  Ar
  Ar5      1.0000 0.42550  0.30930  0.48310  Biso   1.000  Ar
  Ar6      1.0000 0.92550  0.80930  0.48310  Biso   1.000  Ar
  Ar7      1.0000 0.57450  0.30930  0.01690  Biso   1.000  Ar
  Ar8      1.0000 0.07450  0.80930  0.01690  Biso   1.000  Ar
  C1       1.0000 0.62660  0.77130  0.71140  Biso   1.000  C
  C2       1.0000 0.12660  0.27130  0.71140  Biso   1.000  C
  C3       1.0000 0.37340  0.77130  0.78860  Biso   1.000  C
  C4       1.0000 0.87340  0.27130  0.78860  Biso   1.000  C
  C5       1.0000 0.37340  0.22870  0.28860  Biso   1.000  C
  C6       1.0000 0.87340  0.72870  0.28860  Biso   1.000  C
  C7       1.0000 0.62660  0.22870  0.21140  Biso   1.000  C
  C8       1.0000 0.12660  0.72870  0.21140  Biso   1.000  C
  C9       1.0000 0.69990  0.77100  0.68960  Biso   1.000  C
  C10      1.0000 0.19990  0.27100  0.68960  Biso   1.000  C
  C11      1.0000 0.30010  0.77100  0.81040  Biso   1.000  C
  C12      1.0000 0.80010  0.27100  0.81040  Biso   1.000  C
  C13      1.0000 0.30010  0.22900  0.31040  Biso   1.000  C
  C14      1.0000 0.80010  0.72900  0.31040  Biso   1.000  C
  C15      1.0000 0.69990  0.22900  0.18960  Biso   1.000  C
  C16      1.0000 0.19990  0.72900  0.18960  Biso   1.000  C
  C17      1.0000 0.74200  0.88880  0.69290  Biso   1.000  C
  C18      1.0000 0.24200  0.38880  0.69290  Biso   1.000  C
  C19      1.0000 0.25800  0.88880  0.80710  Biso   1.000  C
  C20      1.0000 0.75800  0.38880  0.80710  Biso   1.000  C
  C21      1.0000 0.25800  0.11120  0.30710  Biso   1.000  C
  C22      1.0000 0.75800  0.61120  0.30710  Biso   1.000  C
  C23      1.0000 0.74200  0.11120  0.19290  Biso   1.000  C
  C24      1.0000 0.24200  0.61120  0.19290  Biso   1.000  C
  H1       1.0000 0.72490  0.96900  0.71160  Biso   1.000  H
  H2       1.0000 0.22490  0.46900  0.71160  Biso   1.000  H
  H3       1.0000 0.27510  0.96900  0.78840  Biso   1.000  H
  H4       1.0000 0.77510  0.46900  0.78840  Biso   1.000  H
  H5       1.0000 0.27510  0.03100  0.28840  Biso   1.000  H
  H6       1.0000 0.77510  0.53100  0.28840  Biso   1.000  H
  H7       1.0000 0.72490  0.03100  0.21160  Biso   1.000  H
  H8       1.0000 0.22490  0.53100  0.21160  Biso   1.000  H
  C25      1.0000 0.80860  0.88930  0.66890  Biso   1.000  C
  C26      1.0000 0.30860  0.38930  0.66890  Biso   1.000  C
  C27      1.0000 0.19140  0.88930  0.83110  Biso   1.000  C
  C28      1.0000 0.69140  0.38930  0.83110  Biso   1.000  C
  C29      1.0000 0.19140  0.11070  0.33110  Biso   1.000  C
  C30      1.0000 0.69140  0.61070  0.33110  Biso   1.000  C
  C31      1.0000 0.80860  0.11070  0.16890  Biso   1.000  C
  C32      1.0000 0.30860  0.61070  0.16890  Biso   1.000  C
  H9       1.0000 0.83560  0.97060  0.67060  Biso   1.000  H
  H10      1.0000 0.33560  0.47060  0.67060  Biso   1.000  H
  H11      1.0000 0.16440  0.97060  0.82940  Biso   1.000  H
  H12      1.0000 0.66440  0.47060  0.82940  Biso   1.000  H
  H13      1.0000 0.16440  0.02940  0.32940  Biso   1.000  H
  H14      1.0000 0.66440  0.52940  0.32940  Biso   1.000  H
  H15      1.0000 0.83560  0.02940  0.17060  Biso   1.000  H
  H16      1.0000 0.33560  0.52940  0.17060  Biso   1.000  H
  C33      1.0000 0.83570  0.77470  0.64310  Biso   1.000  C
  C34      1.0000 0.33570  0.27470  0.64310  Biso   1.000  C
  C35      1.0000 0.16430  0.77470  0.85690  Biso   1.000  C
  C36      1.0000 0.66430  0.27470  0.85690  Biso   1.000  C
  C37      1.0000 0.16430  0.22530  0.35690  Biso   1.000  C
  C38      1.0000 0.66430  0.72530  0.35690  Biso   1.000  C
  C39      1.0000 0.83570  0.22530  0.14310  Biso   1.000  C
  C40      1.0000 0.33570  0.72530  0.14310  Biso   1.000  C
  H17      1.0000 0.88000  0.77830  0.62500  Biso   1.000  H
  H18      1.0000 0.38000  0.27830  0.62500  Biso   1.000  H
  H19      1.0000 0.12000  0.77830  0.87500  Biso   1.000  H
  H20      1.0000 0.62000  0.27830  0.87500  Biso   1.000  H
  H21      1.0000 0.12000  0.22170  0.37500  Biso   1.000  H
  H22      1.0000 0.62000  0.72170  0.37500  Biso   1.000  H
  H23      1.0000 0.88000  0.22170  0.12500  Biso   1.000  H
  H24      1.0000 0.38000  0.72170  0.12500  Biso   1.000  H
  C41      1.0000 0.79820  0.65080  0.64330  Biso   1.000  C
  C42      1.0000 0.29820  0.15080  0.64330  Biso   1.000  C
  C43      1.0000 0.20180  0.65080  0.85670  Biso   1.000  C
  C44      1.0000 0.70180  0.15080  0.85670  Biso   1.000  C
  C45      1.0000 0.20180  0.34920  0.35670  Biso   1.000  C
  C46      1.0000 0.70180  0.84920  0.35670  Biso   1.000  C
  C47      1.0000 0.79820  0.34920  0.14330  Biso   1.000  C
  C48      1.0000 0.29820  0.84920  0.14330  Biso   1.000  C
  H25      1.0000 0.81830  0.56960  0.62870  Biso   1.000  H
  H26      1.0000 0.31830  0.06960  0.62870  Biso   1.000  H
  H27      1.0000 0.18170  0.56960  0.87130  Biso   1.000  H
  H28      1.0000 0.68170  0.06960  0.87130  Biso   1.000  H
  H29      1.0000 0.18170  0.43040  0.37130  Biso   1.000  H
  H30      1.0000 0.68170  0.93040  0.37130  Biso   1.000  H
  H31      1.0000 0.81830  0.43040  0.12870  Biso   1.000  H
  H32      1.0000 0.31830  0.93040  0.12870  Biso   1.000  H
  C49      1.0000 0.72910  0.65110  0.66600  Biso   1.000  C
  C50      1.0000 0.22910  0.15110  0.66600  Biso   1.000  C
  C51      1.0000 0.27090  0.65110  0.83400  Biso   1.000  C
  C52      1.0000 0.77090  0.15110  0.83400  Biso   1.000  C
  C53      1.0000 0.27090  0.34890  0.33400  Biso   1.000  C
  C54      1.0000 0.77090  0.84890  0.33400  Biso   1.000  C
  C55      1.0000 0.72910  0.34890  0.16600  Biso   1.000  C
  C56      1.0000 0.22910  0.84890  0.16600  Biso   1.000  C
  H33      1.0000 0.70250  0.56960  0.66520  Biso   1.000  H
  H34      1.0000 0.20250  0.06960  0.66520  Biso   1.000  H
  H35      1.0000 0.29750  0.56960  0.83480  Biso   1.000  H
  H36      1.0000 0.79750  0.06960  0.83480  Biso   1.000  H
  H37      1.0000 0.29750  0.43040  0.33480  Biso   1.000  H
  H38      1.0000 0.79750  0.93040  0.33480  Biso   1.000  H
  H39      1.0000 0.70250  0.43040  0.16520  Biso   1.000  H
  H40      1.0000 0.20250  0.93040  0.16520  Biso   1.000  H
  C57      1.0000 0.43870  0.77940  0.62260  Biso   1.000  C
  C58      1.0000 0.93870  0.27940  0.62260  Biso   1.000  C
  C59      1.0000 0.56130  0.77940  0.87740  Biso   1.000  C
  C60      1.0000 0.06130  0.27940  0.87740  Biso   1.000  C
  C61      1.0000 0.56130  0.22060  0.37740  Biso   1.000  C
  C62      1.0000 0.06130  0.72060  0.37740  Biso   1.000  C
  C63      1.0000 0.43870  0.22060  0.12260  Biso   1.000  C
  C64      1.0000 0.93870  0.72060  0.12260  Biso   1.000  C
  C65      1.0000 0.39900  0.78300  0.55020  Biso   1.000  C
  C66      1.0000 0.89900  0.28300  0.55020  Biso   1.000  C
  C67      1.0000 0.60100  0.78300  0.94980  Biso   1.000  C
  C68      1.0000 0.10100  0.28300  0.94980  Biso   1.000  C
  C69      1.0000 0.60100  0.21700  0.44980  Biso   1.000  C
  C70      1.0000 0.10100  0.71700  0.44980  Biso   1.000  C
  C71      1.0000 0.39900  0.21700  0.05020  Biso   1.000  C
  C72      1.0000 0.89900  0.71700  0.05020  Biso   1.000  C
  C73      1.0000 0.39480  0.90210  0.51130  Biso   1.000  C
  C74      1.0000 0.89480  0.40210  0.51130  Biso   1.000  C
  C75      1.0000 0.60520  0.90210  0.98870  Biso   1.000  C
  C76      1.0000 0.10520  0.40210  0.98870  Biso   1.000  C
  C77      1.0000 0.60520  0.09790  0.48870  Biso   1.000  C
  C78      1.0000 0.10520  0.59790  0.48870  Biso   1.000  C
  C79      1.0000 0.39480  0.09790  0.01130  Biso   1.000  C
  C80      1.0000 0.89480  0.59790  0.01130  Biso   1.000  C
  H41      1.0000 0.41780  0.98150  0.53060  Biso   1.000  H
  H42      1.0000 0.91780  0.48150  0.53060  Biso   1.000  H
  H43      1.0000 0.58220  0.98150  0.96940  Biso   1.000  H
  H44      1.0000 0.08220  0.48150  0.96940  Biso   1.000  H
  H45      1.0000 0.58220  0.01850  0.46940  Biso   1.000  H
  H46      1.0000 0.08220  0.51850  0.46940  Biso   1.000  H
  H47      1.0000 0.41780  0.01850  0.03060  Biso   1.000  H
  H48      1.0000 0.91780  0.51850  0.03060  Biso   1.000  H
  C81      1.0000 0.35720  0.90570  0.44420  Biso   1.000  C
  C82      1.0000 0.85720  0.40570  0.44420  Biso   1.000  C
  C83      1.0000 0.64280  0.90570  0.05580  Biso   1.000  C
  C84      1.0000 0.14280  0.40570  0.05580  Biso   1.000  C
  C85      1.0000 0.64280  0.09430  0.55580  Biso   1.000  C
  C86      1.0000 0.14280  0.59430  0.55580  Biso   1.000  C
  C87      1.0000 0.35720  0.09430  0.94420  Biso   1.000  C
  C88      1.0000 0.85720  0.59430  0.94420  Biso   1.000  C
  H49      1.0000 0.35630  0.98670  0.41820  Biso   1.000  H
  H50      1.0000 0.85630  0.48670  0.41820  Biso   1.000  H
  H51      1.0000 0.64370  0.98670  0.08180  Biso   1.000  H
  H52      1.0000 0.14370  0.48670  0.08180  Biso   1.000  H
  H53      1.0000 0.64370  0.01330  0.58180  Biso   1.000  H
  H54      1.0000 0.14370  0.51330  0.58180  Biso   1.000  H
  H55      1.0000 0.35630  0.01330  0.91820  Biso   1.000  H
  H56      1.0000 0.85630  0.51330  0.91820  Biso   1.000  H
  C89      1.0000 0.32130  0.79270  0.41540  Biso   1.000  C
  C90      1.0000 0.82130  0.29270  0.41540  Biso   1.000  C
  C91      1.0000 0.67870  0.79270  0.08460  Biso   1.000  C
  C92      1.0000 0.17870  0.29270  0.08460  Biso   1.000  C
  C93      1.0000 0.67870  0.20730  0.58460  Biso   1.000  C
  C94      1.0000 0.17870  0.70730  0.58460  Biso   1.000  C
  C95      1.0000 0.32130  0.20730  0.91540  Biso   1.000  C
  C96      1.0000 0.82130  0.70730  0.91540  Biso   1.000  C
  H57      1.0000 0.29490  0.79690  0.37040  Biso   1.000  H
  H58      1.0000 0.79490  0.29690  0.37040  Biso   1.000  H
  H59      1.0000 0.70510  0.79690  0.12960  Biso   1.000  H
  H60      1.0000 0.20510  0.29690  0.12960  Biso   1.000  H
  H61      1.0000 0.70510  0.20310  0.62960  Biso   1.000  H
  H62      1.0000 0.20510  0.70310  0.62960  Biso   1.000  H
  H63      1.0000 0.29490  0.20310  0.87040  Biso   1.000  H
  H64      1.0000 0.79490  0.70310  0.87040  Biso   1.000  H
  C97      1.0000 0.32420  0.67720  0.45170  Biso   1.000  C
  C98      1.0000 0.82420  0.17720  0.45170  Biso   1.000  C
  C99      1.0000 0.67580  0.67720  0.04830  Biso   1.000  C
  C100     1.0000 0.17580  0.17720  0.04830  Biso   1.000  C
  C101     1.0000 0.67580  0.32280  0.54830  Biso   1.000  C
  C102     1.0000 0.17580  0.82280  0.54830  Biso   1.000  C
  C103     1.0000 0.32420  0.32280  0.95170  Biso   1.000  C
  C104     1.0000 0.82420  0.82280  0.95170  Biso   1.000  C
  H65      1.0000 0.30010  0.59960  0.43150  Biso   1.000  H
  H66      1.0000 0.80010  0.09960  0.43150  Biso   1.000  H
  H67      1.0000 0.69990  0.59960  0.06850  Biso   1.000  H
  H68      1.0000 0.19990  0.09960  0.06850  Biso   1.000  H
  H69      1.0000 0.69990  0.40040  0.56850  Biso   1.000  H
  H70      1.0000 0.19990  0.90040  0.56850  Biso   1.000  H
  H71      1.0000 0.30010  0.40040  0.93150  Biso   1.000  H
  H72      1.0000 0.80010  0.90040  0.93150  Biso   1.000  H
  C105     1.0000 0.36290  0.66790  0.52010  Biso   1.000  C
  C106     1.0000 0.86290  0.16790  0.52010  Biso   1.000  C
  C107     1.0000 0.63710  0.66790  0.97990  Biso   1.000  C
  C108     1.0000 0.13710  0.16790  0.97990  Biso   1.000  C
  C109     1.0000 0.63710  0.33210  0.47990  Biso   1.000  C
  C110     1.0000 0.13710  0.83210  0.47990  Biso   1.000  C
  C111     1.0000 0.36290  0.33210  0.02010  Biso   1.000  C
  C112     1.0000 0.86290  0.83210  0.02010  Biso   1.000  C
  H73      1.0000 0.36420  0.58530  0.54490  Biso   1.000  H
  H74      1.0000 0.86420  0.08530  0.54490  Biso   1.000  H
  H75      1.0000 0.63580  0.58530  0.95510  Biso   1.000  H
  H76      1.0000 0.13580  0.08530  0.95510  Biso   1.000  H
  H77      1.0000 0.63580  0.41470  0.45510  Biso   1.000  H
  H78      1.0000 0.13580  0.91470  0.45510  Biso   1.000  H
  H79      1.0000 0.36420  0.41470  0.04490  Biso   1.000  H
  H80      1.0000 0.86420  0.91470  0.04490  Biso   1.000  H
  C113     1.0000 0.53150  0.34480  0.70300  Biso   1.000  C
  C114     1.0000 0.03150  0.84480  0.70300  Biso   1.000  C
  C115     1.0000 0.46850  0.34480  0.79700  Biso   1.000  C
  C116     1.0000 0.96850  0.84480  0.79700  Biso   1.000  C
  C117     1.0000 0.46850  0.65520  0.29700  Biso   1.000  C
  C118     1.0000 0.96850  0.15520  0.29700  Biso   1.000  C
  C119     1.0000 0.53150  0.65520  0.20300  Biso   1.000  C
  C120     1.0000 0.03150  0.15520  0.20300  Biso   1.000  C
  H81      1.0000 0.55410  0.39140  0.66960  Biso   1.000  H
  H82      1.0000 0.05410  0.89140  0.66960  Biso   1.000  H
  H83      1.0000 0.44590  0.39140  0.83040  Biso   1.000  H
  H84      1.0000 0.94590  0.89140  0.83040  Biso   1.000  H
  H85      1.0000 0.44590  0.60860  0.33040  Biso   1.000  H
  H86      1.0000 0.94590  0.10860  0.33040  Biso   1.000  H
  H87      1.0000 0.55410  0.60860  0.16960  Biso   1.000  H
  H88      1.0000 0.05410  0.10860  0.16960  Biso   1.000  H
  C121     1.0000 0.53100  0.20310  0.70330  Biso   1.000  C
  C122     1.0000 0.03100  0.70310  0.70330  Biso   1.000  C
  C123     1.0000 0.46900  0.20310  0.79670  Biso   1.000  C
  C124     1.0000 0.96900  0.70310  0.79670  Biso   1.000  C
  C125     1.0000 0.46900  0.79690  0.29670  Biso   1.000  C
  C126     1.0000 0.96900  0.29690  0.29670  Biso   1.000  C
  C127     1.0000 0.53100  0.79690  0.20330  Biso   1.000  C
  C128     1.0000 0.03100  0.29690  0.20330  Biso   1.000  C
  H89      1.0000 0.55310  0.15590  0.66960  Biso   1.000  H
  H90      1.0000 0.05310  0.65590  0.66960  Biso   1.000  H
  H91      1.0000 0.44690  0.15590  0.83040  Biso   1.000  H
  H92      1.0000 0.94690  0.65590  0.83040  Biso   1.000  H
  H93      1.0000 0.44690  0.84410  0.33040  Biso   1.000  H
  H94      1.0000 0.94690  0.34410  0.33040  Biso   1.000  H
  H95      1.0000 0.55310  0.84410  0.16960  Biso   1.000  H
  H96      1.0000 0.05310  0.34410  0.16960  Biso   1.000  H
  Cu1      1.0000 0.50000  0.64159  0.75000  Biso   1.000  Cu
  Cu2      1.0000 0.00000  0.14159  0.75000  Biso   1.000  Cu
  Cu3      1.0000 0.50000  0.35841  0.25000  Biso   1.000  Cu
  Cu4      1.0000 0.00000  0.85841  0.25000  Biso   1.000  Cu
  Cu5      1.0000 0.50000  0.90843  0.75000  Biso   1.000  Cu
  Cu6      1.0000 0.00000  0.40843  0.75000  Biso   1.000  Cu
  Cu7      1.0000 0.50000  0.09157  0.25000  Biso   1.000  Cu
  Cu8      1.0000 0.00000  0.59157  0.25000  Biso   1.000  Cu
  N1       1.0000 0.50000  0.41660  0.75000  Biso   1.000  N
  N2       1.0000 0.00000  0.91660  0.75000  Biso   1.000  N
  N3       1.0000 0.50000  0.58340  0.25000  Biso   1.000  N
  N4       1.0000 0.00000  0.08340  0.25000  Biso   1.000  N
  N5       1.0000 0.50000  0.13210  0.75000  Biso   1.000  N
  N6       1.0000 0.00000  0.63210  0.75000  Biso   1.000  N
  N7       1.0000 0.50000  0.86790  0.25000  Biso   1.000  N
  N8       1.0000 0.00000  0.36790  0.25000  Biso   1.000  N
  O1       1.0000 0.59350  0.65760  0.71350  Biso   1.000  O
  O2       1.0000 0.09350  0.15760  0.71350  Biso   1.000  O
  O3       1.0000 0.40650  0.65760  0.78650  Biso   1.000  O
  O4       1.0000 0.90650  0.15760  0.78650  Biso   1.000  O
  O5       1.0000 0.40650  0.34240  0.28650  Biso   1.000  O
  O6       1.0000 0.90650  0.84240  0.28650  Biso   1.000  O
  O7       1.0000 0.59350  0.34240  0.21350  Biso   1.000  O
  O8       1.0000 0.09350  0.84240  0.21350  Biso   1.000  O
  O9       1.0000 0.59980  0.88570  0.72710  Biso   1.000  O
  O10      1.0000 0.09980  0.38570  0.72710  Biso   1.000  O
  O11      1.0000 0.40020  0.88570  0.77290  Biso   1.000  O
  O12      1.0000 0.90020  0.38570  0.77290  Biso   1.000  O
  O13      1.0000 0.40020  0.11430  0.27290  Biso   1.000  O
  O14      1.0000 0.90020  0.61430  0.27290  Biso   1.000  O
  O15      1.0000 0.59980  0.11430  0.22710  Biso   1.000  O
  O16      1.0000 0.09980  0.61430  0.22710  Biso   1.000  O
  O17      1.0000 0.44690  0.66510  0.65390  Biso   1.000  O
  O18      1.0000 0.94690  0.16510  0.65390  Biso   1.000  O
  O19      1.0000 0.55310  0.66510  0.84610  Biso   1.000  O
  O20      1.0000 0.05310  0.16510  0.84610  Biso   1.000  O
  O21      1.0000 0.55310  0.33490  0.34610  Biso   1.000  O
  O22      1.0000 0.05310  0.83490  0.34610  Biso   1.000  O
  O23      1.0000 0.44690  0.33490  0.15390  Biso   1.000  O
  O24      1.0000 0.94690  0.83490  0.15390  Biso   1.000  O
  O25      1.0000 0.46090  0.89190  0.65020  Biso   1.000  O
  O26      1.0000 0.96090  0.39190  0.65020  Biso   1.000  O
  O27      1.0000 0.53910  0.89190  0.84980  Biso   1.000  O
  O28      1.0000 0.03910  0.39190  0.84980  Biso   1.000  O
  O29      1.0000 0.53910  0.10810  0.34980  Biso   1.000  O
  O30      1.0000 0.03910  0.60810  0.34980  Biso   1.000  O
  O31      1.0000 0.46090  0.10810  0.15020  Biso   1.000  O
  O32      1.0000 0.96090  0.60810  0.15020  Biso   1.000  O
