data_image0
_cell_length_a       9.74
_cell_length_b       10.471
_cell_length_c       10.867
_cell_angle_alpha    70.741
_cell_angle_beta     65.519
_cell_angle_gamma    63.558

_symmetry_space_group_name_H-M    "P 1"
_symmetry_int_tables_number       1

loop_
  _symmetry_equiv_pos_as_xyz
  'x, y, z'

loop_
  _atom_site_label
  _atom_site_occupancy
  _atom_site_fract_x
  _atom_site_fract_y
  _atom_site_fract_z
  _atom_site_thermal_displace_type
  _atom_site_B_iso_or_equiv
  _atom_site_type_symbol
  C1       1.0000 0.83410  0.24390  0.07920  Biso   1.000  C
  C2       1.0000 0.16590  0.75610  0.92080  Biso   1.000  C
  C3       1.0000 0.73510  0.39390  0.11320  Biso   1.000  C
  C4       1.0000 0.26490  0.60610  0.88680  Biso   1.000  C
  C5       1.0000 0.80910  0.47170  0.12740  Biso   1.000  C
  C6       1.0000 0.19090  0.52830  0.87260  Biso   1.000  C
  H1       1.0000 0.92020  0.43440  0.11100  Biso   1.000  H
  H2       1.0000 0.07980  0.56560  0.88900  Biso   1.000  H
  C7       1.0000 0.71610  0.60560  0.16630  Biso   1.000  C
  C8       1.0000 0.28390  0.39440  0.83370  Biso   1.000  C
  H3       1.0000 0.76500  0.66000  0.17410  Biso   1.000  H
  H4       1.0000 0.23500  0.34000  0.82590  Biso   1.000  H
  C9       1.0000 0.55250  0.65830  0.19350  Biso   1.000  C
  C10      1.0000 0.44750  0.34170  0.80650  Biso   1.000  C
  H5       1.0000 0.49030  0.74680  0.22310  Biso   1.000  H
  H6       1.0000 0.50970  0.25320  0.77690  Biso   1.000  H
  C11      1.0000 0.47890  0.58200  0.17700  Biso   1.000  C
  C12      1.0000 0.52110  0.41800  0.82300  Biso   1.000  C
  H7       1.0000 0.36800  0.62020  0.19280  Biso   1.000  H
  H8       1.0000 0.63200  0.37980  0.80720  Biso   1.000  H
  C13      1.0000 0.57080  0.44840  0.13850  Biso   1.000  C
  C14      1.0000 0.42920  0.55160  0.86150  Biso   1.000  C
  H9       1.0000 0.52160  0.39510  0.12940  Biso   1.000  H
  H10      1.0000 0.47840  0.60490  0.87060  Biso   1.000  H
  C15      1.0000 0.95850  0.86660  0.24900  Biso   1.000  C
  C16      1.0000 0.04150  0.13340  0.75100  Biso   1.000  C
  C17      1.0000 0.93830  0.78740  0.39740  Biso   1.000  C
  C18      1.0000 0.06170  0.21260  0.60260  Biso   1.000  C
  C19      1.0000 0.02080  0.78880  0.47240  Biso   1.000  C
  C20      1.0000 0.97920  0.21120  0.52760  Biso   1.000  C
  H11      1.0000 0.09130  0.83930  0.43320  Biso   1.000  H
  H12      1.0000 0.90870  0.16070  0.56680  Biso   1.000  H
  C21      1.0000 0.99950  0.71610  0.60470  Biso   1.000  C
  C22      1.0000 0.00050  0.28390  0.39530  Biso   1.000  C
  H13      1.0000 0.05610  0.71730  0.65510  Biso   1.000  H
  H14      1.0000 0.94390  0.28270  0.34490  Biso   1.000  H
  C23      1.0000 0.89650  0.64160  0.66410  Biso   1.000  C
  C24      1.0000 0.10350  0.35840  0.33590  Biso   1.000  C
  H15      1.0000 0.88230  0.59290  0.75450  Biso   1.000  H
  H16      1.0000 0.11770  0.40710  0.24550  Biso   1.000  H
  C25      1.0000 0.81370  0.63930  0.58890  Biso   1.000  C
  C26      1.0000 0.18630  0.36070  0.41110  Biso   1.000  C
  H17      1.0000 0.74400  0.58810  0.62780  Biso   1.000  H
  H18      1.0000 0.25600  0.41190  0.37220  Biso   1.000  H
  C27      1.0000 0.83490  0.71260  0.45730  Biso   1.000  C
  C28      1.0000 0.16510  0.28740  0.54270  Biso   1.000  C
  H19      1.0000 0.77790  0.71190  0.40700  Biso   1.000  H
  H20      1.0000 0.22210  0.28810  0.59300  Biso   1.000  H
  C29      1.0000 0.36240  0.06000  0.08820  Biso   1.000  C
  C30      1.0000 0.63760  0.94000  0.91180  Biso   1.000  C
  H21      1.0000 0.26600  0.10380  0.15260  Biso   1.000  H
  H22      1.0000 0.73400  0.89620  0.84740  Biso   1.000  H
  C31      1.0000 0.50030  0.05710  0.09450  Biso   1.000  C
  C32      1.0000 0.49970  0.94290  0.90550  Biso   1.000  C
  H23      1.0000 0.49520  0.09760  0.16140  Biso   1.000  H
  H24      1.0000 0.50480  0.90240  0.83860  Biso   1.000  H
  Cu1      1.0000 0.12922  0.01060  0.99710  Biso   1.000  Cu
  Cu2      1.0000 0.87078  0.98940  0.00290  Biso   1.000  Cu
  N1       1.0000 0.35270  0.00550  0.99770  Biso   1.000  N
  N2       1.0000 0.64730  0.99450  0.00230  Biso   1.000  N
  O1       1.0000 0.98370  0.19840  0.05980  Biso   1.000  O
  O2       1.0000 0.01630  0.80160  0.94020  Biso   1.000  O
  O3       1.0000 0.76430  0.17710  0.06380  Biso   1.000  O
  O4       1.0000 0.23570  0.82290  0.93620  Biso   1.000  O
  O5       1.0000 0.07660  0.91220  0.19020  Biso   1.000  O
  O6       1.0000 0.92340  0.08780  0.80980  Biso   1.000  O
  O7       1.0000 0.85850  0.88620  0.19330  Biso   1.000  O
  O8       1.0000 0.14150  0.11380  0.80670  Biso   1.000  O
  Xe1      1.0000 0.62400  0.14780  0.47800  Biso   1.000  Xe
  Xe2      1.0000 0.37600  0.85220  0.52200  Biso   1.000  Xe
