data_image0
_cell_length_a       8.812
_cell_length_b       15.972
_cell_length_c       8.831
_cell_angle_alpha    90
_cell_angle_beta     114.33
_cell_angle_gamma    90

_symmetry_space_group_name_H-M    "P 1"
_symmetry_int_tables_number       1

loop_
  _symmetry_equiv_pos_as_xyz
  'x, y, z'

loop_
  _atom_site_label
  _atom_site_occupancy
  _atom_site_fract_x
  _atom_site_fract_y
  _atom_site_fract_z
  _atom_site_thermal_displace_type
  _atom_site_B_iso_or_equiv
  _atom_site_type_symbol
  Cu1      1.0000 0.19010  0.25000  0.20720  Biso   1.000  Cu
  Cu2      1.0000 0.80990  0.75000  0.79280  Biso   1.000  Cu
  Zn1      1.0000 0.68690  0.25000  0.32290  Biso   1.000  Zn
  Zn2      1.0000 0.31310  0.75000  0.67710  Biso   1.000  Zn
  Cl1      1.0000 0.90760  0.25000  0.25880  Biso   1.000  Cl
  Cl2      1.0000 0.09240  0.75000  0.74120  Biso   1.000  Cl
  Cl3      1.0000 0.44070  0.25000  0.09420  Biso   1.000  Cl
  Cl4      1.0000 0.55930  0.75000  0.90580  Biso   1.000  Cl
  Cl5      1.0000 0.69350  0.13270  0.47110  Biso   1.000  Cl
  Cl6      1.0000 0.30650  0.63270  0.52890  Biso   1.000  Cl
  Cl7      1.0000 0.30650  0.86730  0.52890  Biso   1.000  Cl
  Cl8      1.0000 0.69350  0.36730  0.47110  Biso   1.000  Cl
  N1       1.0000 0.29170  0.34380  0.36420  Biso   1.000  N
  N2       1.0000 0.70830  0.84380  0.63580  Biso   1.000  N
  N3       1.0000 0.70830  0.65620  0.63580  Biso   1.000  N
  N4       1.0000 0.29170  0.15620  0.36420  Biso   1.000  N
  O1       1.0000 0.06630  0.33300  0.01650  Biso   1.000  O
  O2       1.0000 0.93370  0.83300  0.98350  Biso   1.000  O
  O3       1.0000 0.93370  0.66700  0.98350  Biso   1.000  O
  O4       1.0000 0.06630  0.16700  0.01650  Biso   1.000  O
  C1       1.0000 0.22200  0.45130  0.14500  Biso   1.000  C
  C2       1.0000 0.77800  0.95130  0.85500  Biso   1.000  C
  C3       1.0000 0.77800  0.54870  0.85500  Biso   1.000  C
  C4       1.0000 0.22200  0.04870  0.14500  Biso   1.000  C
  C5       1.0000 0.23400  0.50400  0.85100  Biso   1.000  C
  C6       1.0000 0.76600  0.00400  0.14900  Biso   1.000  C
  C7       1.0000 0.76600  0.49600  0.14900  Biso   1.000  C
  C8       1.0000 0.23400  0.99600  0.85100  Biso   1.000  C
  C9       1.0000 0.15100  0.43000  0.85000  Biso   1.000  C
  C10      1.0000 0.84900  0.93000  0.15000  Biso   1.000  C
  C11      1.0000 0.84900  0.57000  0.15000  Biso   1.000  C
  C12      1.0000 0.15100  0.07000  0.85000  Biso   1.000  C
  C13      1.0000 0.31500  0.55100  0.99500  Biso   1.000  C
  C14      1.0000 0.68500  0.05100  0.00500  Biso   1.000  C
  C15      1.0000 0.68500  0.44900  0.00500  Biso   1.000  C
  C16      1.0000 0.31500  0.94900  0.99500  Biso   1.000  C
  C17      1.0000 0.30500  0.52280  0.14300  Biso   1.000  C
  C18      1.0000 0.69500  0.02280  0.85700  Biso   1.000  C
  C19      1.0000 0.69500  0.47720  0.85700  Biso   1.000  C
  C20      1.0000 0.30500  0.97720  0.14300  Biso   1.000  C
  C21      1.0000 0.14600  0.40540  0.00100  Biso   1.000  C
  C22      1.0000 0.85400  0.90540  0.99900  Biso   1.000  C
  C23      1.0000 0.85400  0.59460  0.99900  Biso   1.000  C
  C24      1.0000 0.14600  0.09460  0.00100  Biso   1.000  C
  C25      1.0000 0.20200  0.42480  0.30100  Biso   1.000  C
  C26      1.0000 0.79800  0.92480  0.69900  Biso   1.000  C
  C27      1.0000 0.79800  0.57520  0.69900  Biso   1.000  C
  C28      1.0000 0.20200  0.07520  0.30100  Biso   1.000  C
  C29      1.0000 0.39300  0.25000  0.61400  Biso   1.000  C
  C30      1.0000 0.60700  0.75000  0.38600  Biso   1.000  C
  C31      1.0000 0.29800  0.33010  0.53900  Biso   1.000  C
  C32      1.0000 0.70200  0.83010  0.46100  Biso   1.000  C
  C33      1.0000 0.70200  0.66990  0.46100  Biso   1.000  C
  C34      1.0000 0.29800  0.16990  0.53900  Biso   1.000  C
  C35      1.0000 0.96200  0.28890  0.86700  Biso   1.000  C
  C36      1.0000 0.03800  0.78890  0.13300  Biso   1.000  C
  C37      1.0000 0.03800  0.71110  0.13300  Biso   1.000  C
  C38      1.0000 0.96200  0.21110  0.86700  Biso   1.000  C
