data_image0
_cell_length_a       13.275
_cell_length_b       9.3039
_cell_length_c       9.4844
_cell_angle_alpha    90
_cell_angle_beta     108.21
_cell_angle_gamma    90

_symmetry_space_group_name_H-M    "P 1"
_symmetry_int_tables_number       1

loop_
  _symmetry_equiv_pos_as_xyz
  'x, y, z'

loop_
  _atom_site_label
  _atom_site_occupancy
  _atom_site_fract_x
  _atom_site_fract_y
  _atom_site_fract_z
  _atom_site_thermal_displace_type
  _atom_site_B_iso_or_equiv
  _atom_site_type_symbol
  Cu1      1.0000 0.70000  0.66064  0.49627  Biso   1.000  Cu
  Cu2      1.0000 0.30000  0.16064  0.00373  Biso   1.000  Cu
  Cu3      1.0000 0.30000  0.33936  0.50373  Biso   1.000  Cu
  Cu4      1.0000 0.70000  0.83936  0.99627  Biso   1.000  Cu
  O1       1.0000 0.76483  0.52368  0.65231  Biso   1.000  O
  O2       1.0000 0.23517  0.02368  0.84769  Biso   1.000  O
  O3       1.0000 0.23517  0.47632  0.34769  Biso   1.000  O
  O4       1.0000 0.76483  0.97632  0.15231  Biso   1.000  O
  O5       1.0000 0.75925  0.29652  0.72053  Biso   1.000  O
  O6       1.0000 0.24075  0.79652  0.77947  Biso   1.000  O
  O7       1.0000 0.24075  0.70348  0.27947  Biso   1.000  O
  O8       1.0000 0.75925  0.20348  0.22053  Biso   1.000  O
  O9       1.0000 0.64843  0.74383  0.29904  Biso   1.000  O
  O10      1.0000 0.35157  0.24383  0.20096  Biso   1.000  O
  O11      1.0000 0.35157  0.25617  0.70096  Biso   1.000  O
  O12      1.0000 0.64843  0.75617  0.79904  Biso   1.000  O
  O13      1.0000 0.57913  0.68606  0.06133  Biso   1.000  O
  O14      1.0000 0.42087  0.18606  0.43867  Biso   1.000  O
  O15      1.0000 0.42087  0.31394  0.93867  Biso   1.000  O
  O16      1.0000 0.57913  0.81394  0.56133  Biso   1.000  O
  O17      1.0000 0.89043  0.16496  0.49340  Biso   1.000  O
  O18      1.0000 0.10957  0.66496  0.00660  Biso   1.000  O
  O19      1.0000 0.10957  0.83504  0.50660  Biso   1.000  O
  O20      1.0000 0.89043  0.33504  0.99340  Biso   1.000  O
  H1       1.0000 0.85400  0.16400  0.40300  Biso   1.000  H
  H2       1.0000 0.14600  0.66400  0.09700  Biso   1.000  H
  H3       1.0000 0.14600  0.83600  0.59700  Biso   1.000  H
  H4       1.0000 0.85400  0.33600  0.90300  Biso   1.000  H
  N1       1.0000 0.60537  0.49192  0.40058  Biso   1.000  N
  N2       1.0000 0.39463  0.99192  0.09942  Biso   1.000  N
  N3       1.0000 0.39463  0.50808  0.59942  Biso   1.000  N
  N4       1.0000 0.60537  0.00808  0.90058  Biso   1.000  N
  N5       1.0000 0.80562  0.81538  0.58450  Biso   1.000  N
  N6       1.0000 0.19438  0.31538  0.91550  Biso   1.000  N
  N7       1.0000 0.19438  0.18462  0.41550  Biso   1.000  N
  N8       1.0000 0.80562  0.68462  0.08450  Biso   1.000  N
  C1       1.0000 0.73333  0.39360  0.62799  Biso   1.000  C
  C2       1.0000 0.26667  0.89360  0.87201  Biso   1.000  C
  C3       1.0000 0.26667  0.60640  0.37201  Biso   1.000  C
  C4       1.0000 0.73333  0.10640  0.12799  Biso   1.000  C
  C5       1.0000 0.66061  0.35992  0.47230  Biso   1.000  C
  C6       1.0000 0.33939  0.85992  0.02770  Biso   1.000  C
  C7       1.0000 0.33939  0.64008  0.52770  Biso   1.000  C
  C8       1.0000 0.66061  0.14008  0.97230  Biso   1.000  C
  H5       1.0000 0.70200  0.32070  0.41330  Biso   1.000  H
  H6       1.0000 0.29800  0.82070  0.08670  Biso   1.000  H
  H7       1.0000 0.29800  0.67930  0.58670  Biso   1.000  H
  H8       1.0000 0.70200  0.17930  0.91330  Biso   1.000  H
  H9       1.0000 0.60880  0.28840  0.47770  Biso   1.000  H
  H10      1.0000 0.39120  0.78840  0.02230  Biso   1.000  H
  H11      1.0000 0.39120  0.71160  0.52230  Biso   1.000  H
  H12      1.0000 0.60880  0.21160  0.97770  Biso   1.000  H
  C9       1.0000 0.59409  0.50091  0.23937  Biso   1.000  C
  C10      1.0000 0.40591  0.00091  0.26063  Biso   1.000  C
  C11      1.0000 0.40591  0.49909  0.76063  Biso   1.000  C
  C12      1.0000 0.59409  0.99909  0.73937  Biso   1.000  C
  H13      1.0000 0.52500  0.46470  0.18160  Biso   1.000  H
  H14      1.0000 0.47500  0.96470  0.31840  Biso   1.000  H
  H15      1.0000 0.47500  0.53530  0.81840  Biso   1.000  H
  H16      1.0000 0.52500  0.03530  0.68160  Biso   1.000  H
  H17      1.0000 0.64770  0.44140  0.21830  Biso   1.000  H
  H18      1.0000 0.35230  0.94140  0.28170  Biso   1.000  H
  H19      1.0000 0.35230  0.55860  0.78170  Biso   1.000  H
  H20      1.0000 0.64770  0.05860  0.71830  Biso   1.000  H
  C13      1.0000 0.60610  0.65525  0.19464  Biso   1.000  C
  C14      1.0000 0.39390  0.15525  0.30536  Biso   1.000  C
  C15      1.0000 0.39390  0.34475  0.80536  Biso   1.000  C
  C16      1.0000 0.60610  0.84475  0.69464  Biso   1.000  C
  C17      1.0000 0.49846  0.50779  0.41914  Biso   1.000  C
  C18      1.0000 0.50154  0.00779  0.08086  Biso   1.000  C
  C19      1.0000 0.50154  0.49221  0.58086  Biso   1.000  C
  C20      1.0000 0.49846  0.99221  0.91914  Biso   1.000  C
  H21      1.0000 0.45130  0.43550  0.35970  Biso   1.000  H
  H22      1.0000 0.54870  0.93550  0.14030  Biso   1.000  H
  H23      1.0000 0.54870  0.56450  0.64030  Biso   1.000  H
  H24      1.0000 0.45130  0.06450  0.85970  Biso   1.000  H
  H25      1.0000 0.46990  0.60150  0.38270  Biso   1.000  H
  H26      1.0000 0.53010  0.10150  0.11730  Biso   1.000  H
  H27      1.0000 0.53010  0.39850  0.61730  Biso   1.000  H
  H28      1.0000 0.46990  0.89850  0.88270  Biso   1.000  H
  C21      1.0000 0.86523  0.80700  0.72750  Biso   1.000  C
  C22      1.0000 0.13477  0.30700  0.77250  Biso   1.000  C
  C23      1.0000 0.13477  0.19300  0.27250  Biso   1.000  C
  C24      1.0000 0.86523  0.69300  0.22750  Biso   1.000  C
  H29      1.0000 0.86100  0.72480  0.78130  Biso   1.000  H
  H30      1.0000 0.13900  0.22480  0.71870  Biso   1.000  H
  H31      1.0000 0.13900  0.27520  0.21870  Biso   1.000  H
  H32      1.0000 0.86100  0.77520  0.28130  Biso   1.000  H
  C25      1.0000 0.93250  0.91630  0.79710  Biso   1.000  C
  C26      1.0000 0.06750  0.41630  0.70290  Biso   1.000  C
  C27      1.0000 0.06750  0.08370  0.20290  Biso   1.000  C
  C28      1.0000 0.93250  0.58370  0.29710  Biso   1.000  C
  H33      1.0000 0.97290  0.90770  0.89640  Biso   1.000  H
  H34      1.0000 0.02710  0.40770  0.60360  Biso   1.000  H
  H35      1.0000 0.02710  0.09230  0.10360  Biso   1.000  H
  H36      1.0000 0.97290  0.59230  0.39640  Biso   1.000  H
  C29      1.0000 0.93920  0.03780  0.71890  Biso   1.000  C
  C30      1.0000 0.06080  0.53780  0.78110  Biso   1.000  C
  C31      1.0000 0.06080  0.96220  0.28110  Biso   1.000  C
  C32      1.0000 0.93920  0.46220  0.21890  Biso   1.000  C
  H37      1.0000 0.98320  0.11320  0.76530  Biso   1.000  H
  H38      1.0000 0.01680  0.61320  0.73470  Biso   1.000  H
  H39      1.0000 0.01680  0.88680  0.23470  Biso   1.000  H
  H40      1.0000 0.98320  0.38680  0.26530  Biso   1.000  H
  C33      1.0000 0.87979  0.04750  0.56970  Biso   1.000  C
  C34      1.0000 0.12021  0.54750  0.93030  Biso   1.000  C
  C35      1.0000 0.12021  0.95250  0.43030  Biso   1.000  C
  C36      1.0000 0.87979  0.45250  0.06970  Biso   1.000  C
  C37      1.0000 0.81251  0.93470  0.50797  Biso   1.000  C
  C38      1.0000 0.18749  0.43470  0.99203  Biso   1.000  C
  C39      1.0000 0.18749  0.06530  0.49203  Biso   1.000  C
  C40      1.0000 0.81251  0.56530  0.00797  Biso   1.000  C
  H41      1.0000 0.77030  0.94170  0.40940  Biso   1.000  H
  H42      1.0000 0.22970  0.44170  0.09060  Biso   1.000  H
  H43      1.0000 0.22970  0.05830  0.59060  Biso   1.000  H
  H44      1.0000 0.77030  0.55830  0.90940  Biso   1.000  H
