data_image0
_cell_length_a       10.263
_cell_length_b       6.54
_cell_length_c       6.795
_cell_angle_alpha    90
_cell_angle_beta     94.8
_cell_angle_gamma    90

_symmetry_space_group_name_H-M    "P 1"
_symmetry_int_tables_number       1

loop_
  _symmetry_equiv_pos_as_xyz
  'x, y, z'

loop_
  _atom_site_label
  _atom_site_occupancy
  _atom_site_fract_x
  _atom_site_fract_y
  _atom_site_fract_z
  _atom_site_thermal_displace_type
  _atom_site_B_iso_or_equiv
  _atom_site_type_symbol
  Cu1      1.0000 0.48230  0.25000  0.19290  Biso   1.000  Cu
  Cu2      1.0000 0.51770  0.75000  0.80710  Biso   1.000  Cu
  O1       1.0000 0.37980  0.78210  0.59400  Biso   1.000  O
  O2       1.0000 0.62020  0.28210  0.40600  Biso   1.000  O
  O3       1.0000 0.33560  0.45240  0.64240  Biso   1.000  O
  O4       1.0000 0.66440  0.95240  0.35760  Biso   1.000  O
  O5       1.0000 0.44330  0.57170  0.22270  Biso   1.000  O
  O6       1.0000 0.55670  0.07170  0.77730  Biso   1.000  O
  O7       1.0000 0.38230  0.80230  0.98890  Biso   1.000  O
  O8       1.0000 0.61770  0.30230  0.01110  Biso   1.000  O
  O9       1.0000 0.33800  0.21410  0.98350  Biso   1.000  O
  O10      1.0000 0.66200  0.71410  0.01650  Biso   1.000  O
  O11      1.0000 0.35830  0.13970  0.38000  Biso   1.000  O
  O12      1.0000 0.64170  0.63970  0.62000  Biso   1.000  O
  C1       1.0000 0.20420  0.63610  0.39700  Biso   1.000  C
  C2       1.0000 0.79580  0.13610  0.60300  Biso   1.000  C
  C3       1.0000 0.22540  0.69030  0.20160  Biso   1.000  C
  C4       1.0000 0.77460  0.19030  0.79840  Biso   1.000  C
  C5       1.0000 0.11980  0.72810  0.06480  Biso   1.000  C
  C6       1.0000 0.88020  0.22810  0.93520  Biso   1.000  C
  C7       1.0000 0.99270  0.71060  0.11710  Biso   1.000  C
  C8       1.0000 0.00730  0.21060  0.88290  Biso   1.000  C
  C9       1.0000 0.97190  0.64740  0.31200  Biso   1.000  C
  C10      1.0000 0.02810  0.14740  0.68800  Biso   1.000  C
  C11      1.0000 0.07710  0.61450  0.44990  Biso   1.000  C
  C12      1.0000 0.92290  0.11450  0.55010  Biso   1.000  C
  C13      1.0000 0.31440  0.61400  0.55250  Biso   1.000  C
  C14      1.0000 0.68560  0.11400  0.44750  Biso   1.000  C
  C15      1.0000 0.36060  0.68570  0.13640  Biso   1.000  C
  C16      1.0000 0.63940  0.18570  0.86360  Biso   1.000  C
  H1       1.0000 0.13600  0.77800  0.93300  Biso   1.000  H
  H2       1.0000 0.86400  0.27800  0.06700  Biso   1.000  H
  H3       1.0000 0.91500  0.80100  0.03100  Biso   1.000  H
  H4       1.0000 0.08500  0.30100  0.96900  Biso   1.000  H
  H5       1.0000 0.88500  0.63100  0.36300  Biso   1.000  H
  H6       1.0000 0.11500  0.13100  0.63700  Biso   1.000  H
  H7       1.0000 0.06100  0.56300  0.58700  Biso   1.000  H
  H8       1.0000 0.93900  0.06300  0.41300  Biso   1.000  H
  H9       1.0000 0.34200  0.26700  0.87900  Biso   1.000  H
  H10      1.0000 0.65800  0.76700  0.12100  Biso   1.000  H
  H11      1.0000 0.33300  0.07700  0.95900  Biso   1.000  H
  H12      1.0000 0.66700  0.57700  0.04100  Biso   1.000  H
  H13      1.0000 0.37800  0.02700  0.43600  Biso   1.000  H
  H14      1.0000 0.62200  0.52700  0.56400  Biso   1.000  H
  H15      1.0000 0.35400  0.22900  0.46100  Biso   1.000  H
  H16      1.0000 0.64600  0.72900  0.53900  Biso   1.000  H
