data_image0
_cell_length_a       11.1999
_cell_length_b       17.297
_cell_length_c       14.0431
_cell_angle_alpha    90
_cell_angle_beta     124.762
_cell_angle_gamma    90

_symmetry_space_group_name_H-M    "P 1"
_symmetry_int_tables_number       1

loop_
  _symmetry_equiv_pos_as_xyz
  'x, y, z'

loop_
  _atom_site_label
  _atom_site_occupancy
  _atom_site_fract_x
  _atom_site_fract_y
  _atom_site_fract_z
  _atom_site_thermal_displace_type
  _atom_site_B_iso_or_equiv
  _atom_site_type_symbol
  Cu1      1.0000 0.89661  0.64854  0.50700  Biso   1.000  Cu
  Cu2      1.0000 0.10339  0.14854  0.99300  Biso   1.000  Cu
  Cu3      1.0000 0.10339  0.35146  0.49300  Biso   1.000  Cu
  Cu4      1.0000 0.89661  0.85146  0.00700  Biso   1.000  Cu
  Cu5      1.0000 0.14058  0.51842  0.61392  Biso   1.000  Cu
  Cu6      1.0000 0.85942  0.01842  0.88608  Biso   1.000  Cu
  Cu7      1.0000 0.85942  0.48158  0.38608  Biso   1.000  Cu
  Cu8      1.0000 0.14058  0.98158  0.11392  Biso   1.000  Cu
  O1       1.0000 0.92260  0.53770  0.52740  Biso   1.000  O
  O2       1.0000 0.07740  0.03770  0.97260  Biso   1.000  O
  O3       1.0000 0.07740  0.46230  0.47260  Biso   1.000  O
  O4       1.0000 0.92260  0.96230  0.02740  Biso   1.000  O
  H1       1.0000 0.88900  0.52600  0.54900  Biso   1.000  H
  H2       1.0000 0.11100  0.02600  0.95100  Biso   1.000  H
  H3       1.0000 0.11100  0.47400  0.45100  Biso   1.000  H
  H4       1.0000 0.88900  0.97400  0.04900  Biso   1.000  H
  O5       1.0000 0.86410  0.75930  0.48370  Biso   1.000  O
  O6       1.0000 0.13590  0.25930  0.01630  Biso   1.000  O
  O7       1.0000 0.13590  0.24070  0.51630  Biso   1.000  O
  O8       1.0000 0.86410  0.74070  0.98370  Biso   1.000  O
  O9       1.0000 0.24720  0.89100  0.08970  Biso   1.000  O
  O10      1.0000 0.75280  0.39100  0.41030  Biso   1.000  O
  O11      1.0000 0.75280  0.10900  0.91030  Biso   1.000  O
  O12      1.0000 0.24720  0.60900  0.58970  Biso   1.000  O
  O13      1.0000 0.03040  0.85730  0.93510  Biso   1.000  O
  O14      1.0000 0.96960  0.35730  0.56490  Biso   1.000  O
  O15      1.0000 0.96960  0.14270  0.06490  Biso   1.000  O
  O16      1.0000 0.03040  0.64270  0.43510  Biso   1.000  O
  O17      1.0000 0.03560  0.66980  0.67120  Biso   1.000  O
  O18      1.0000 0.96440  0.16980  0.82880  Biso   1.000  O
  O19      1.0000 0.96440  0.33020  0.32880  Biso   1.000  O
  O20      1.0000 0.03560  0.83020  0.17120  Biso   1.000  O
  O21      1.0000 0.18370  0.56740  0.75290  Biso   1.000  O
  O22      1.0000 0.81630  0.06740  0.74710  Biso   1.000  O
  O23      1.0000 0.81630  0.43260  0.24710  Biso   1.000  O
  O24      1.0000 0.18370  0.93260  0.25290  Biso   1.000  O
  N1       1.0000 0.61590  0.67920  0.27900  Biso   1.000  N
  N2       1.0000 0.38410  0.17920  0.22100  Biso   1.000  N
  N3       1.0000 0.38410  0.32080  0.72100  Biso   1.000  N
  N4       1.0000 0.61590  0.82080  0.77900  Biso   1.000  N
  N5       1.0000 0.72080  0.62980  0.34910  Biso   1.000  N
  N6       1.0000 0.27920  0.12980  0.15090  Biso   1.000  N
  N7       1.0000 0.27920  0.37020  0.65090  Biso   1.000  N
  N8       1.0000 0.72080  0.87020  0.84910  Biso   1.000  N
  N9       1.0000 0.70820  0.56620  0.29280  Biso   1.000  N
  N10      1.0000 0.29180  0.06620  0.20720  Biso   1.000  N
  N11      1.0000 0.29180  0.43380  0.70720  Biso   1.000  N
  N12      1.0000 0.70820  0.93380  0.79280  Biso   1.000  N
  N13      1.0000 0.59430  0.57190  0.18320  Biso   1.000  N
  N14      1.0000 0.40570  0.07190  0.31680  Biso   1.000  N
  N15      1.0000 0.40570  0.42810  0.81680  Biso   1.000  N
  N16      1.0000 0.59430  0.92810  0.68320  Biso   1.000  N
  N17      1.0000 0.71530  0.85970  0.39480  Biso   1.000  N
  N18      1.0000 0.28470  0.35970  0.10520  Biso   1.000  N
  N19      1.0000 0.28470  0.14030  0.60520  Biso   1.000  N
  N20      1.0000 0.71530  0.64030  0.89480  Biso   1.000  N
  C1       1.0000 0.53890  0.64190  0.17770  Biso   1.000  C
  C2       1.0000 0.46110  0.14190  0.32230  Biso   1.000  C
  C3       1.0000 0.46110  0.35810  0.82230  Biso   1.000  C
  C4       1.0000 0.53890  0.85810  0.67770  Biso   1.000  C
  C5       1.0000 0.40870  0.67530  0.07420  Biso   1.000  C
  C6       1.0000 0.59130  0.17530  0.42580  Biso   1.000  C
  C7       1.0000 0.59130  0.32470  0.92580  Biso   1.000  C
  C8       1.0000 0.40870  0.82470  0.57420  Biso   1.000  C
  C9       1.0000 0.35660  0.74540  0.08460  Biso   1.000  C
  C10      1.0000 0.64340  0.24540  0.41540  Biso   1.000  C
  C11      1.0000 0.64340  0.25460  0.91540  Biso   1.000  C
  C12      1.0000 0.35660  0.75460  0.58460  Biso   1.000  C
  H5       1.0000 0.40850  0.77180  0.15480  Biso   1.000  H
  H6       1.0000 0.59150  0.27180  0.34520  Biso   1.000  H
  H7       1.0000 0.59150  0.22820  0.84520  Biso   1.000  H
  H8       1.0000 0.40850  0.72820  0.65480  Biso   1.000  H
  C13      1.0000 0.22820  0.77650  0.99150  Biso   1.000  C
  C14      1.0000 0.77180  0.27650  0.50850  Biso   1.000  C
  C15      1.0000 0.77180  0.22350  0.00850  Biso   1.000  C
  C16      1.0000 0.22820  0.72350  0.49150  Biso   1.000  C
  C17      1.0000 0.15630  0.73820  0.88560  Biso   1.000  C
  C18      1.0000 0.84370  0.23820  0.61440  Biso   1.000  C
  C19      1.0000 0.84370  0.26180  0.11440  Biso   1.000  C
  C20      1.0000 0.15630  0.76180  0.38560  Biso   1.000  C
  H9       1.0000 0.07040  0.75870  0.82250  Biso   1.000  H
  H10      1.0000 0.92960  0.25870  0.67750  Biso   1.000  H
  H11      1.0000 0.92960  0.24130  0.17750  Biso   1.000  H
  H12      1.0000 0.07040  0.74130  0.32250  Biso   1.000  H
  C21      1.0000 0.21060  0.67020  0.87270  Biso   1.000  C
  C22      1.0000 0.78940  0.17020  0.62730  Biso   1.000  C
  C23      1.0000 0.78940  0.32980  0.12730  Biso   1.000  C
  C24      1.0000 0.21060  0.82980  0.37270  Biso   1.000  C
  C25      1.0000 0.33600  0.63750  0.96820  Biso   1.000  C
  C26      1.0000 0.66400  0.13750  0.53180  Biso   1.000  C
  C27      1.0000 0.66400  0.36250  0.03180  Biso   1.000  C
  C28      1.0000 0.33600  0.86250  0.46820  Biso   1.000  C
  H13      1.0000 0.37070  0.59060  0.96080  Biso   1.000  H
  H14      1.0000 0.62930  0.09060  0.53920  Biso   1.000  H
  H15      1.0000 0.62930  0.40940  0.03920  Biso   1.000  H
  H16      1.0000 0.37070  0.90940  0.46080  Biso   1.000  H
  C29      1.0000 0.16380  0.84780  0.00580  Biso   1.000  C
  C30      1.0000 0.83620  0.34780  0.49420  Biso   1.000  C
  C31      1.0000 0.83620  0.15220  0.99420  Biso   1.000  C
  C32      1.0000 0.16380  0.65220  0.50580  Biso   1.000  C
  C33      1.0000 0.13700  0.63190  0.75550  Biso   1.000  C
  C34      1.0000 0.86300  0.13190  0.74450  Biso   1.000  C
  C35      1.0000 0.86300  0.36810  0.24450  Biso   1.000  C
  C36      1.0000 0.13700  0.86810  0.25550  Biso   1.000  C
  C37      1.0000 0.76680  0.79930  0.46250  Biso   1.000  C
  C38      1.0000 0.23320  0.29930  0.03750  Biso   1.000  C
  C39      1.0000 0.23320  0.20070  0.53750  Biso   1.000  C
  C40      1.0000 0.76680  0.70070  0.96250  Biso   1.000  C
  C41      1.0000 0.68970  0.78130  0.52330  Biso   1.000  C
  C42      1.0000 0.31030  0.28130  0.97670  Biso   1.000  C
  C43      1.0000 0.31030  0.21870  0.47670  Biso   1.000  C
  C44      1.0000 0.68970  0.71870  0.02330  Biso   1.000  C
  H17      1.0000 0.64060  0.73250  0.49630  Biso   1.000  H
  H18      1.0000 0.35940  0.23250  0.00370  Biso   1.000  H
  H19      1.0000 0.35940  0.26750  0.50370  Biso   1.000  H
  H20      1.0000 0.64060  0.76750  0.99630  Biso   1.000  H
  H21      1.0000 0.62040  0.82120  0.50550  Biso   1.000  H
  H22      1.0000 0.37960  0.32120  0.99450  Biso   1.000  H
  H23      1.0000 0.37960  0.17880  0.49450  Biso   1.000  H
  H24      1.0000 0.62040  0.67880  0.00550  Biso   1.000  H
  H25      1.0000 0.76060  0.77900  0.60560  Biso   1.000  H
  H26      1.0000 0.23940  0.27900  0.89440  Biso   1.000  H
  H27      1.0000 0.23940  0.22100  0.39440  Biso   1.000  H
  H28      1.0000 0.76060  0.72100  0.10560  Biso   1.000  H
  C45      1.0000 0.78900  0.86700  0.32510  Biso   1.000  C
  C46      1.0000 0.21100  0.36700  0.17490  Biso   1.000  C
  C47      1.0000 0.21100  0.13300  0.67490  Biso   1.000  C
  C48      1.0000 0.78900  0.63300  0.82510  Biso   1.000  C
  H29      1.0000 0.79940  0.81640  0.30240  Biso   1.000  H
  H30      1.0000 0.20060  0.31640  0.19760  Biso   1.000  H
  H31      1.0000 0.20060  0.18360  0.69760  Biso   1.000  H
  H32      1.0000 0.79940  0.68360  0.80240  Biso   1.000  H
  H33      1.0000 0.88280  0.89070  0.37380  Biso   1.000  H
  H34      1.0000 0.11720  0.39070  0.12620  Biso   1.000  H
  H35      1.0000 0.11720  0.10930  0.62620  Biso   1.000  H
  H36      1.0000 0.88280  0.60930  0.87380  Biso   1.000  H
  H37      1.0000 0.72850  0.89820  0.25720  Biso   1.000  H
  H38      1.0000 0.27150  0.39820  0.24280  Biso   1.000  H
  H39      1.0000 0.27150  0.10180  0.74280  Biso   1.000  H
  H40      1.0000 0.72850  0.60180  0.75720  Biso   1.000  H
  C49      1.0000 0.60030  0.91210  0.36790  Biso   1.000  C
  C50      1.0000 0.39970  0.41210  0.13210  Biso   1.000  C
  C51      1.0000 0.39970  0.08790  0.63210  Biso   1.000  C
  C52      1.0000 0.60030  0.58790  0.86790  Biso   1.000  C
  H41      1.0000 0.51940  0.88330  0.35590  Biso   1.000  H
  H42      1.0000 0.48060  0.38330  0.14410  Biso   1.000  H
  H43      1.0000 0.48060  0.11670  0.64410  Biso   1.000  H
  H44      1.0000 0.51940  0.61670  0.85590  Biso   1.000  H
  H45      1.0000 0.57010  0.94040  0.29880  Biso   1.000  H
  H46      1.0000 0.42990  0.44040  0.20120  Biso   1.000  H
  H47      1.0000 0.42990  0.05960  0.70120  Biso   1.000  H
  H48      1.0000 0.57010  0.55960  0.79880  Biso   1.000  H
  H49      1.0000 0.63450  0.94750  0.43110  Biso   1.000  H
  H50      1.0000 0.36550  0.44750  0.06890  Biso   1.000  H
  H51      1.0000 0.36550  0.05250  0.56890  Biso   1.000  H
  H52      1.0000 0.63450  0.55250  0.93110  Biso   1.000  H
  O25      1.0000 0.41060  0.57980  0.38580  Biso   1.000  O
  O26      1.0000 0.58940  0.07980  0.11420  Biso   1.000  O
  O27      1.0000 0.58940  0.42020  0.61420  Biso   1.000  O
  O28      1.0000 0.41060  0.92020  0.88580  Biso   1.000  O
  O29      1.0000 0.22000  0.65330  0.20500  Biso   1.000  O
  O30      1.0000 0.78000  0.15330  0.29500  Biso   1.000  O
  O31      1.0000 0.78000  0.34670  0.79500  Biso   1.000  O
  O32      1.0000 0.22000  0.84670  0.70500  Biso   1.000  O
  O33      1.0000 0.25300  0.59550  0.28800  Biso   1.000  O
  O34      1.0000 0.74700  0.09550  0.21200  Biso   1.000  O
  O35      1.0000 0.74700  0.40450  0.71200  Biso   1.000  O
  O36      1.0000 0.25300  0.90450  0.78800  Biso   1.000  O
  O37      1.0000 0.99890  0.55950  0.19020  Biso   1.000  O
  O38      1.0000 0.00110  0.05950  0.30980  Biso   1.000  O
  O39      1.0000 0.00110  0.44050  0.80980  Biso   1.000  O
  O40      1.0000 0.99890  0.94050  0.69020  Biso   1.000  O
  O41      1.0000 0.21750  0.49770  0.37110  Biso   1.000  O
  O42      1.0000 0.78250  0.99770  0.12890  Biso   1.000  O
  O43      1.0000 0.78250  0.50230  0.62890  Biso   1.000  O
  O44      1.0000 0.21750  0.00230  0.87110  Biso   1.000  O
  O45      1.0000 0.15600  0.55300  0.27990  Biso   1.000  O
  O46      1.0000 0.84400  0.05300  0.22010  Biso   1.000  O
  O47      1.0000 0.84400  0.44700  0.72010  Biso   1.000  O
  O48      1.0000 0.15600  0.94700  0.77990  Biso   1.000  O
  O49      1.0000 0.16300  0.64020  0.16200  Biso   1.000  O
  O50      1.0000 0.83700  0.14020  0.33800  Biso   1.000  O
  O51      1.0000 0.83700  0.35980  0.83800  Biso   1.000  O
  O52      1.0000 0.16300  0.85980  0.66200  Biso   1.000  O
  O53      1.0000 0.16400  0.58280  0.23940  Biso   1.000  O
  O54      1.0000 0.83600  0.08280  0.26060  Biso   1.000  O
  O55      1.0000 0.83600  0.41720  0.76060  Biso   1.000  O
  O56      1.0000 0.16400  0.91720  0.73940  Biso   1.000  O
  O57      1.0000 0.27100  0.55170  0.34000  Biso   1.000  O
  O58      1.0000 0.72900  0.05170  0.16000  Biso   1.000  O
  O59      1.0000 0.72900  0.44830  0.66000  Biso   1.000  O
  O60      1.0000 0.27100  0.94830  0.84000  Biso   1.000  O
