data_image0
_cell_length_a       9.354
_cell_length_b       17.85
_cell_length_c       11.044
_cell_angle_alpha    90
_cell_angle_beta     103.629
_cell_angle_gamma    90

_symmetry_space_group_name_H-M    "P 1"
_symmetry_int_tables_number       1

loop_
  _symmetry_equiv_pos_as_xyz
  'x, y, z'

loop_
  _atom_site_label
  _atom_site_occupancy
  _atom_site_fract_x
  _atom_site_fract_y
  _atom_site_fract_z
  _atom_site_thermal_displace_type
  _atom_site_B_iso_or_equiv
  _atom_site_type_symbol
  Cu1      1.0000 0.50000  0.00000  0.50000  Biso   1.000  Cu
  Cu2      1.0000 0.00000  0.50000  0.00000  Biso   1.000  Cu
  F1       1.0000 0.05020  0.37250  0.53430  Biso   1.000  F
  F2       1.0000 0.44980  0.87250  0.96570  Biso   1.000  F
  F3       1.0000 0.94980  0.62750  0.46570  Biso   1.000  F
  F4       1.0000 0.55020  0.12750  0.03430  Biso   1.000  F
  F5       1.0000 0.77940  0.20300  0.71270  Biso   1.000  F
  F6       1.0000 0.72060  0.70300  0.78730  Biso   1.000  F
  F7       1.0000 0.22060  0.79700  0.28730  Biso   1.000  F
  F8       1.0000 0.27940  0.29700  0.21270  Biso   1.000  F
  N1       1.0000 0.34330  0.22260  0.49770  Biso   1.000  N
  N2       1.0000 0.15670  0.72260  0.00230  Biso   1.000  N
  N3       1.0000 0.65670  0.77740  0.50230  Biso   1.000  N
  N4       1.0000 0.84330  0.27740  0.99770  Biso   1.000  N
  N5       1.0000 0.21720  0.19070  0.43340  Biso   1.000  N
  N6       1.0000 0.28280  0.69070  0.06660  Biso   1.000  N
  N7       1.0000 0.78280  0.80930  0.56660  Biso   1.000  N
  N8       1.0000 0.71720  0.30930  0.93340  Biso   1.000  N
  N9       1.0000 0.39470  0.10450  0.48610  Biso   1.000  N
  N10      1.0000 0.10530  0.60450  0.01390  Biso   1.000  N
  N11      1.0000 0.60530  0.89550  0.51390  Biso   1.000  N
  N12      1.0000 0.89470  0.39550  0.98610  Biso   1.000  N
  N13      1.0000 0.30080  0.42070  0.79940  Biso   1.000  N
  N14      1.0000 0.19920  0.92070  0.70060  Biso   1.000  N
  N15      1.0000 0.69920  0.57930  0.20060  Biso   1.000  N
  N16      1.0000 0.80080  0.07930  0.29940  Biso   1.000  N
  N17      1.0000 0.38480  0.40190  0.91320  Biso   1.000  N
  N18      1.0000 0.11520  0.90190  0.58680  Biso   1.000  N
  N19      1.0000 0.61520  0.59810  0.08680  Biso   1.000  N
  N20      1.0000 0.88480  0.09810  0.41320  Biso   1.000  N
  N21      1.0000 0.17310  0.45510  0.93020  Biso   1.000  N
  N22      1.0000 0.32690  0.95510  0.56980  Biso   1.000  N
  N23      1.0000 0.82690  0.54490  0.06980  Biso   1.000  N
  N24      1.0000 0.67310  0.04490  0.43020  Biso   1.000  N
  N25      1.0000 0.61710  0.02350  0.67840  Biso   1.000  N
  N26      1.0000 0.88290  0.52350  0.82160  Biso   1.000  N
  N27      1.0000 0.38290  0.97650  0.32160  Biso   1.000  N
  N28      1.0000 0.11710  0.47650  0.17840  Biso   1.000  N
  O1       1.0000 0.43860  0.27310  0.74100  Biso   1.000  O
  O2       1.0000 0.06140  0.77310  0.75900  Biso   1.000  O
  O3       1.0000 0.56140  0.72690  0.25900  Biso   1.000  O
  O4       1.0000 0.93860  0.22690  0.24100  Biso   1.000  O
  H1       1.0000 0.43610  0.28090  0.81360  Biso   1.000  H
  H2       1.0000 0.06390  0.78090  0.68640  Biso   1.000  H
  H3       1.0000 0.56390  0.71910  0.18640  Biso   1.000  H
  H4       1.0000 0.93610  0.21910  0.31360  Biso   1.000  H
  S1       1.0000 0.83440  0.00003  0.89342  Biso   1.000  S
  S2       1.0000 0.66560  0.50003  0.60658  Biso   1.000  S
  S3       1.0000 0.16560  0.99997  0.10658  Biso   1.000  S
  S4       1.0000 0.33440  0.49997  0.39342  Biso   1.000  S
  C1       1.0000 0.35010  0.30130  0.53030  Biso   1.000  C
  C2       1.0000 0.14990  0.80130  0.96970  Biso   1.000  C
  C3       1.0000 0.64990  0.69870  0.46970  Biso   1.000  C
  C4       1.0000 0.85010  0.19870  0.03030  Biso   1.000  C
  H5       1.0000 0.27490  0.32820  0.47070  Biso   1.000  H
  H6       1.0000 0.22510  0.82820  0.02930  Biso   1.000  H
  H7       1.0000 0.72510  0.67180  0.52930  Biso   1.000  H
  H8       1.0000 0.77490  0.17180  0.97070  Biso   1.000  H
  H9       1.0000 0.44500  0.32120  0.52550  Biso   1.000  H
  H10      1.0000 0.05500  0.82120  0.97450  Biso   1.000  H
  H11      1.0000 0.55500  0.67880  0.47450  Biso   1.000  H
  H12      1.0000 0.94500  0.17880  0.02550  Biso   1.000  H
  C5       1.0000 0.32760  0.31420  0.66190  Biso   1.000  C
  C6       1.0000 0.17240  0.81420  0.83810  Biso   1.000  C
  C7       1.0000 0.67240  0.68580  0.33810  Biso   1.000  C
  C8       1.0000 0.82760  0.18580  0.16190  Biso   1.000  C
  C9       1.0000 0.34590  0.39900  0.68730  Biso   1.000  C
  C10      1.0000 0.15410  0.89900  0.81270  Biso   1.000  C
  C11      1.0000 0.65410  0.60100  0.31270  Biso   1.000  C
  C12      1.0000 0.84590  0.10100  0.18730  Biso   1.000  C
  H13      1.0000 0.28750  0.42630  0.61680  Biso   1.000  H
  H14      1.0000 0.21250  0.92630  0.88320  Biso   1.000  H
  H15      1.0000 0.71250  0.57370  0.38320  Biso   1.000  H
  H16      1.0000 0.78750  0.07370  0.11680  Biso   1.000  H
  H17      1.0000 0.44810  0.41270  0.69570  Biso   1.000  H
  H18      1.0000 0.05190  0.91270  0.80430  Biso   1.000  H
  H19      1.0000 0.55190  0.58730  0.30430  Biso   1.000  H
  H20      1.0000 0.94810  0.08730  0.19570  Biso   1.000  H
  C13      1.0000 0.25480  0.12020  0.42960  Biso   1.000  C
  C14      1.0000 0.24520  0.62020  0.07040  Biso   1.000  C
  C15      1.0000 0.74520  0.87980  0.57040  Biso   1.000  C
  C16      1.0000 0.75480  0.37980  0.92960  Biso   1.000  C
  H21      1.0000 0.18910  0.08370  0.39040  Biso   1.000  H
  H22      1.0000 0.31090  0.58370  0.10960  Biso   1.000  H
  H23      1.0000 0.81090  0.91630  0.60960  Biso   1.000  H
  H24      1.0000 0.68910  0.41630  0.89040  Biso   1.000  H
  C17      1.0000 0.44560  0.17030  0.52890  Biso   1.000  C
  C18      1.0000 0.05440  0.67030  0.97110  Biso   1.000  C
  C19      1.0000 0.55440  0.82970  0.47110  Biso   1.000  C
  C20      1.0000 0.94560  0.32970  0.02890  Biso   1.000  C
  H25      1.0000 0.54090  0.17900  0.57510  Biso   1.000  H
  H26      1.0000 0.95910  0.67900  0.92490  Biso   1.000  H
  H27      1.0000 0.45910  0.82100  0.42490  Biso   1.000  H
  H28      1.0000 0.04090  0.32100  0.07510  Biso   1.000  H
  C21      1.0000 0.30230  0.42420  0.98820  Biso   1.000  C
  C22      1.0000 0.19770  0.92420  0.51180  Biso   1.000  C
  C23      1.0000 0.69770  0.57580  0.01180  Biso   1.000  C
  C24      1.0000 0.80230  0.07580  0.48820  Biso   1.000  C
  H29      1.0000 0.16880  0.91890  0.42570  Biso   1.000  H
  H30      1.0000 0.33120  0.41890  0.07430  Biso   1.000  H
  H31      1.0000 0.83120  0.08110  0.57430  Biso   1.000  H
  H32      1.0000 0.66880  0.58110  0.92570  Biso   1.000  H
  C25      1.0000 0.32240  0.95160  0.68830  Biso   1.000  C
  C26      1.0000 0.17760  0.45160  0.81170  Biso   1.000  C
  C27      1.0000 0.67760  0.04840  0.31170  Biso   1.000  C
  C28      1.0000 0.82240  0.54840  0.18830  Biso   1.000  C
  H33      1.0000 0.39650  0.96870  0.75420  Biso   1.000  H
  H34      1.0000 0.10350  0.46870  0.74580  Biso   1.000  H
  H35      1.0000 0.60350  0.03130  0.24580  Biso   1.000  H
  H36      1.0000 0.89650  0.53130  0.25420  Biso   1.000  H
  C29      1.0000 0.17850  0.28500  0.67350  Biso   1.000  C
  C30      1.0000 0.32150  0.78500  0.82650  Biso   1.000  C
  C31      1.0000 0.82150  0.71500  0.32650  Biso   1.000  C
  C32      1.0000 0.67850  0.21500  0.17350  Biso   1.000  C
  C33      1.0000 0.04950  0.31400  0.61290  Biso   1.000  C
  C34      1.0000 0.45050  0.81400  0.88710  Biso   1.000  C
  C35      1.0000 0.95050  0.68600  0.38710  Biso   1.000  C
  C36      1.0000 0.54950  0.18600  0.11290  Biso   1.000  C
  C37      1.0000 0.90850  0.28910  0.62360  Biso   1.000  C
  C38      1.0000 0.59150  0.78910  0.87640  Biso   1.000  C
  C39      1.0000 0.09150  0.71090  0.37640  Biso   1.000  C
  C40      1.0000 0.40850  0.21090  0.12360  Biso   1.000  C
  H37      1.0000 0.82050  0.31060  0.58100  Biso   1.000  H
  H38      1.0000 0.67950  0.81060  0.91900  Biso   1.000  H
  H39      1.0000 0.17950  0.68940  0.41900  Biso   1.000  H
  H40      1.0000 0.32050  0.18940  0.08100  Biso   1.000  H
  C41      1.0000 0.91670  0.23030  0.70300  Biso   1.000  C
  C42      1.0000 0.58330  0.73030  0.79700  Biso   1.000  C
  C43      1.0000 0.08330  0.76970  0.29700  Biso   1.000  C
  C44      1.0000 0.41670  0.26970  0.20300  Biso   1.000  C
  C45      1.0000 0.03580  0.19480  0.76410  Biso   1.000  C
  C46      1.0000 0.46420  0.69480  0.73590  Biso   1.000  C
  C47      1.0000 0.96420  0.80520  0.23590  Biso   1.000  C
  C48      1.0000 0.53580  0.30520  0.26410  Biso   1.000  C
  H41      1.0000 0.03080  0.15300  0.81330  Biso   1.000  H
  H42      1.0000 0.46920  0.65300  0.68670  Biso   1.000  H
  H43      1.0000 0.96920  0.84700  0.18670  Biso   1.000  H
  H44      1.0000 0.53080  0.34700  0.31330  Biso   1.000  H
  C49      1.0000 0.16910  0.22380  0.75040  Biso   1.000  C
  C50      1.0000 0.33090  0.72380  0.74960  Biso   1.000  C
  C51      1.0000 0.83090  0.77620  0.24960  Biso   1.000  C
  C52      1.0000 0.66910  0.27620  0.25040  Biso   1.000  C
  H45      1.0000 0.25570  0.20150  0.79430  Biso   1.000  H
  H46      1.0000 0.24430  0.70150  0.70570  Biso   1.000  H
  H47      1.0000 0.74430  0.79850  0.20570  Biso   1.000  H
  H48      1.0000 0.75570  0.29850  0.29430  Biso   1.000  H
  C53      1.0000 0.70510  0.01430  0.76790  Biso   1.000  C
  C54      1.0000 0.79490  0.51430  0.73210  Biso   1.000  C
  C55      1.0000 0.29490  0.98570  0.23210  Biso   1.000  C
  C56      1.0000 0.20510  0.48570  0.26790  Biso   1.000  C
