data_image0
_cell_length_a       11.977
_cell_length_b       12.236
_cell_length_c       12.717
_cell_angle_alpha    99.564
_cell_angle_beta     111.627
_cell_angle_gamma    103.384

_symmetry_space_group_name_H-M    "P 1"
_symmetry_int_tables_number       1

loop_
  _symmetry_equiv_pos_as_xyz
  'x, y, z'

loop_
  _atom_site_label
  _atom_site_occupancy
  _atom_site_fract_x
  _atom_site_fract_y
  _atom_site_fract_z
  _atom_site_thermal_displace_type
  _atom_site_B_iso_or_equiv
  _atom_site_type_symbol
  Cu1      1.0000 0.74223  0.83567  0.63729  Biso   1.000  Cu
  Cu2      1.0000 0.25777  0.16433  0.36271  Biso   1.000  Cu
  F1       1.0000 0.49090  0.86950  0.15290  Biso   1.000  F
  F2       1.0000 0.50910  0.13050  0.84710  Biso   1.000  F
  F3       1.0000 0.36490  0.48740  0.17270  Biso   1.000  F
  F4       1.0000 0.63510  0.51260  0.82730  Biso   1.000  F
  F5       1.0000 0.02890  0.55300  0.92470  Biso   1.000  F
  F6       1.0000 0.97110  0.44700  0.07530  Biso   1.000  F
  F7       1.0000 0.32930  0.81790  0.86010  Biso   1.000  F
  F8       1.0000 0.67070  0.18210  0.13990  Biso   1.000  F
  N1       1.0000 0.65650  0.85590  0.92400  Biso   1.000  N
  N2       1.0000 0.34350  0.14410  0.07600  Biso   1.000  N
  N3       1.0000 0.56260  0.75250  0.85710  Biso   1.000  N
  N4       1.0000 0.43740  0.24750  0.14290  Biso   1.000  N
  N5       1.0000 0.68070  0.81740  0.76320  Biso   1.000  N
  N6       1.0000 0.31930  0.18260  0.23680  Biso   1.000  N
  N7       1.0000 0.80490  0.91080  0.35730  Biso   1.000  N
  N8       1.0000 0.19510  0.08920  0.64270  Biso   1.000  N
  N9       1.0000 0.90570  0.87070  0.39710  Biso   1.000  N
  N10      1.0000 0.09430  0.12930  0.60290  Biso   1.000  N
  N11      1.0000 0.79830  0.85310  0.50830  Biso   1.000  N
  N12      1.0000 0.20170  0.14690  0.49170  Biso   1.000  N
  N13      1.0000 0.86550  0.19790  0.73610  Biso   1.000  N
  N14      1.0000 0.13450  0.80210  0.26390  Biso   1.000  N
  N15      1.0000 0.75580  0.18550  0.75100  Biso   1.000  N
  N16      1.0000 0.24420  0.81450  0.24900  Biso   1.000  N
  N17      1.0000 0.76880  0.01070  0.68020  Biso   1.000  N
  N18      1.0000 0.23120  0.98930  0.31980  Biso   1.000  N
  N19      1.0000 0.74130  0.66820  0.60880  Biso   1.000  N
  N20      1.0000 0.25870  0.33180  0.39120  Biso   1.000  N
  N21      1.0000 0.69370  0.58250  0.50380  Biso   1.000  N
  N22      1.0000 0.30630  0.41750  0.49620  Biso   1.000  N
  N23      1.0000 0.77350  0.50670  0.63540  Biso   1.000  N
  N24      1.0000 0.22650  0.49330  0.36460  Biso   1.000  N
  N25      1.0000 0.52190  0.78800  0.48860  Biso   1.000  N
  N26      1.0000 0.47810  0.21200  0.51140  Biso   1.000  N
  N27      1.0000 0.98300  0.89200  0.78880  Biso   1.000  N
  N28      1.0000 0.01700  0.10800  0.21120  Biso   1.000  N
  O1       1.0000 0.81800  0.81570  0.12720  Biso   1.000  O
  O2       1.0000 0.18200  0.18430  0.87280  Biso   1.000  O
  H1       1.0000 0.87320  0.86950  0.12670  Biso   1.000  H
  H2       1.0000 0.12680  0.13050  0.87330  Biso   1.000  H
  O3       1.0000 0.90670  0.33790  0.57820  Biso   1.000  O
  O4       1.0000 0.09330  0.66210  0.42180  Biso   1.000  O
  H3       1.0000 0.84700  0.27690  0.55050  Biso   1.000  H
  H4       1.0000 0.15300  0.72310  0.44950  Biso   1.000  H
  S1       1.0000 0.36357  0.86239  0.58042  Biso   1.000  S
  S2       1.0000 0.63643  0.13761  0.41958  Biso   1.000  S
  S3       1.0000 0.00656  0.83345  0.99344  Biso   1.000  S
  S4       1.0000 0.99344  0.16655  0.00656  Biso   1.000  S
  C1       1.0000 0.66820  0.91530  0.03840  Biso   1.000  C
  C2       1.0000 0.33180  0.08470  0.96160  Biso   1.000  C
  H5       1.0000 0.58560  0.91920  0.03030  Biso   1.000  H
  H6       1.0000 0.41440  0.08080  0.96970  Biso   1.000  H
  H7       1.0000 0.72420  0.99500  0.06210  Biso   1.000  H
  H8       1.0000 0.27580  0.00500  0.93790  Biso   1.000  H
  C3       1.0000 0.71910  0.85750  0.13690  Biso   1.000  C
  C4       1.0000 0.28090  0.14250  0.86310  Biso   1.000  C
  C5       1.0000 0.77420  0.95440  0.25470  Biso   1.000  C
  C6       1.0000 0.22580  0.04560  0.74530  Biso   1.000  C
  H9       1.0000 0.85020  0.01090  0.26190  Biso   1.000  H
  H10      1.0000 0.14980  0.98910  0.73810  Biso   1.000  H
  H11      1.0000 0.71300  0.99490  0.25280  Biso   1.000  H
  H12      1.0000 0.28700  0.00510  0.74720  Biso   1.000  H
  C7       1.0000 0.58190  0.73510  0.76170  Biso   1.000  C
  C8       1.0000 0.41810  0.26490  0.23830  Biso   1.000  C
  H13      1.0000 0.53110  0.67040  0.69700  Biso   1.000  H
  H14      1.0000 0.46890  0.32960  0.30300  Biso   1.000  H
  C9       1.0000 0.72560  0.89210  0.86840  Biso   1.000  C
  C10      1.0000 0.27440  0.10790  0.13160  Biso   1.000  C
  H15      1.0000 0.79520  0.95970  0.89860  Biso   1.000  H
  H16      1.0000 0.20480  0.04030  0.10140  Biso   1.000  H
  C11      1.0000 0.89700  0.83680  0.48820  Biso   1.000  C
  C12      1.0000 0.10300  0.16320  0.51180  Biso   1.000  C
  H17      1.0000 0.95370  0.80460  0.53400  Biso   1.000  H
  H18      1.0000 0.04630  0.19540  0.46600  Biso   1.000  H
  C13      1.0000 0.74260  0.89900  0.42380  Biso   1.000  C
  C14      1.0000 0.25740  0.10100  0.57620  Biso   1.000  C
  H19      1.0000 0.67010  0.91990  0.41290  Biso   1.000  H
  H20      1.0000 0.32990  0.08010  0.58710  Biso   1.000  H
  C15      1.0000 0.62050  0.75430  0.13730  Biso   1.000  C
  C16      1.0000 0.37950  0.24570  0.86270  Biso   1.000  C
  C17      1.0000 0.51270  0.76480  0.14930  Biso   1.000  C
  C18      1.0000 0.48730  0.23520  0.85070  Biso   1.000  C
  C19      1.0000 0.42660  0.67830  0.16060  Biso   1.000  C
  C20      1.0000 0.57340  0.32170  0.83940  Biso   1.000  C
  H21      1.0000 0.35560  0.68980  0.16820  Biso   1.000  H
  H22      1.0000 0.64440  0.31020  0.83180  Biso   1.000  H
  C21      1.0000 0.44940  0.57450  0.16010  Biso   1.000  C
  C22      1.0000 0.55060  0.42550  0.83990  Biso   1.000  C
  C23      1.0000 0.55170  0.55540  0.14790  Biso   1.000  C
  C24      1.0000 0.44830  0.44460  0.85210  Biso   1.000  C
  H23      1.0000 0.56470  0.48330  0.14710  Biso   1.000  H
  H24      1.0000 0.43530  0.51670  0.85290  Biso   1.000  H
  C25      1.0000 0.63660  0.64630  0.13660  Biso   1.000  C
  C26      1.0000 0.36340  0.35370  0.86340  Biso   1.000  C
  H25      1.0000 0.70690  0.63390  0.12820  Biso   1.000  H
  H26      1.0000 0.29310  0.36610  0.87180  Biso   1.000  H
  C27      1.0000 0.96160  0.31140  0.77450  Biso   1.000  C
  C28      1.0000 0.03840  0.68860  0.22550  Biso   1.000  C
  H27      1.0000 0.04000  0.29960  0.77790  Biso   1.000  H
  H28      1.0000 0.96000  0.70040  0.22210  Biso   1.000  H
  H29      1.0000 0.97670  0.35080  0.85360  Biso   1.000  H
  H30      1.0000 0.02330  0.64920  0.14640  Biso   1.000  H
  C29      1.0000 0.92660  0.39160  0.69460  Biso   1.000  C
  C30      1.0000 0.07340  0.60840  0.30540  Biso   1.000  C
  C31      1.0000 0.80670  0.41660  0.69570  Biso   1.000  C
  C32      1.0000 0.19330  0.58340  0.30430  Biso   1.000  C
  H31      1.0000 0.73600  0.34440  0.65770  Biso   1.000  H
  H32      1.0000 0.26400  0.65560  0.34230  Biso   1.000  H
  H33      1.0000 0.81930  0.44240  0.77680  Biso   1.000  H
  H34      1.0000 0.18070  0.55760  0.22320  Biso   1.000  H
  C33      1.0000 0.70090  0.07270  0.71440  Biso   1.000  C
  C34      1.0000 0.29910  0.92730  0.28560  Biso   1.000  C
  H35      1.0000 0.62190  0.03730  0.71180  Biso   1.000  H
  H36      1.0000 0.37810  0.96270  0.28820  Biso   1.000  H
  C35      1.0000 0.87110  0.09370  0.69470  Biso   1.000  C
  C36      1.0000 0.12890  0.90630  0.30530  Biso   1.000  C
  H37      1.0000 0.93700  0.08050  0.67810  Biso   1.000  H
  H38      1.0000 0.06300  0.91950  0.32190  Biso   1.000  H
  C37      1.0000 0.71100  0.48400  0.51900  Biso   1.000  C
  C38      1.0000 0.28900  0.51600  0.48100  Biso   1.000  C
  H39      1.0000 0.68560  0.41400  0.46180  Biso   1.000  H
  H40      1.0000 0.31440  0.58600  0.53820  Biso   1.000  H
  C39      1.0000 0.79030  0.61500  0.68830  Biso   1.000  C
  C40      1.0000 0.20970  0.38500  0.31170  Biso   1.000  C
  H41      1.0000 0.83060  0.64910  0.76920  Biso   1.000  H
  H42      1.0000 0.16940  0.35090  0.23080  Biso   1.000  H
  C41      1.0000 0.03940  0.50480  0.74160  Biso   1.000  C
  C42      1.0000 0.96060  0.49520  0.25840  Biso   1.000  C
  C43      1.0000 0.08460  0.58010  0.85340  Biso   1.000  C
  C44      1.0000 0.91540  0.41990  0.14660  Biso   1.000  C
  C45      1.0000 0.18170  0.68510  0.89530  Biso   1.000  C
  C46      1.0000 0.81830  0.31490  0.10470  Biso   1.000  C
  H43      1.0000 0.20810  0.73460  0.96990  Biso   1.000  H
  H44      1.0000 0.79190  0.26540  0.03010  Biso   1.000  H
  C47      1.0000 0.23740  0.71320  0.82230  Biso   1.000  C
  C48      1.0000 0.76260  0.28680  0.17770  Biso   1.000  C
  C49      1.0000 0.20130  0.64100  0.71320  Biso   1.000  C
  C50      1.0000 0.79870  0.35900  0.28680  Biso   1.000  C
  H45      1.0000 0.24230  0.66130  0.66650  Biso   1.000  H
  H46      1.0000 0.75770  0.33870  0.33350  Biso   1.000  H
  C51      1.0000 0.10200  0.53670  0.67320  Biso   1.000  C
  C52      1.0000 0.89800  0.46330  0.32680  Biso   1.000  C
  H47      1.0000 0.07710  0.48730  0.59900  Biso   1.000  H
  H48      1.0000 0.92290  0.51270  0.40100  Biso   1.000  H
  C53      1.0000 0.45680  0.82000  0.52750  Biso   1.000  C
  C54      1.0000 0.54320  0.18000  0.47250  Biso   1.000  C
  C55      1.0000 0.99370  0.86980  0.87250  Biso   1.000  C
  C56      1.0000 0.00630  0.13020  0.12750  Biso   1.000  C
