data_image0
_cell_length_a       5.1329
_cell_length_b       7.641
_cell_length_c       9.2397
_cell_angle_alpha    74.918
_cell_angle_beta     84.368
_cell_angle_gamma    71.469

_symmetry_space_group_name_H-M    "P 1"
_symmetry_int_tables_number       1

loop_
  _symmetry_equiv_pos_as_xyz
  'x, y, z'

loop_
  _atom_site_label
  _atom_site_occupancy
  _atom_site_fract_x
  _atom_site_fract_y
  _atom_site_fract_z
  _atom_site_thermal_displace_type
  _atom_site_B_iso_or_equiv
  _atom_site_type_symbol
  Cu1      1.0000 0.50000  0.50000  0.50000  Biso   1.000  Cu
  O1       1.0000 0.16930  0.54080  0.62570  Biso   1.000  O
  O2       1.0000 0.83070  0.45920  0.37430  Biso   1.000  O
  O3       1.0000 0.72800  0.71260  0.61660  Biso   1.000  O
  O4       1.0000 0.27200  0.28740  0.38340  Biso   1.000  O
  N1       1.0000 0.28200  0.73070  0.36120  Biso   1.000  N
  N2       1.0000 0.71800  0.26930  0.63880  Biso   1.000  N
  C1       1.0000 0.36110  0.82370  0.22910  Biso   1.000  C
  C2       1.0000 0.63890  0.17630  0.77090  Biso   1.000  C
  H1       1.0000 0.53470  0.77290  0.19000  Biso   1.000  H
  H2       1.0000 0.46530  0.22710  0.81000  Biso   1.000  H
  C3       1.0000 0.18740  0.99520  0.14950  Biso   1.000  C
  C4       1.0000 0.81260  0.00480  0.85050  Biso   1.000  C
  H3       1.0000 0.24480  0.05990  0.05850  Biso   1.000  H
  H4       1.0000 0.75520  0.94010  0.94150  Biso   1.000  H
  C5       1.0000 0.92770  0.06820  0.20790  Biso   1.000  C
  C6       1.0000 0.07230  0.93180  0.79210  Biso   1.000  C
  H5       1.0000 0.80990  0.18350  0.15690  Biso   1.000  H
  H6       1.0000 0.19010  0.81650  0.84310  Biso   1.000  H
  C7       1.0000 0.84540  0.97020  0.34050  Biso   1.000  C
  C8       1.0000 0.15460  0.02980  0.65950  Biso   1.000  C
  H7       1.0000 0.67010  0.01630  0.37960  Biso   1.000  H
  H8       1.0000 0.32990  0.98370  0.62040  Biso   1.000  H
  C9       1.0000 0.02810  0.79980  0.41660  Biso   1.000  C
  C10      1.0000 0.97190  0.20020  0.58340  Biso   1.000  C
  C11      1.0000 0.96520  0.67820  0.56420  Biso   1.000  C
  C12      1.0000 0.03480  0.32180  0.43580  Biso   1.000  C
  O5       1.0000 0.26170  0.45440  0.06120  Biso   1.000  O
  O6       1.0000 0.73830  0.54560  0.93880  Biso   1.000  O
