data_image0
_cell_length_a       8.2402
_cell_length_b       18.2164
_cell_length_c       14.1658
_cell_angle_alpha    90
_cell_angle_beta     91.122
_cell_angle_gamma    90

_symmetry_space_group_name_H-M    "P 1"
_symmetry_int_tables_number       1

loop_
  _symmetry_equiv_pos_as_xyz
  'x, y, z'

loop_
  _atom_site_label
  _atom_site_occupancy
  _atom_site_fract_x
  _atom_site_fract_y
  _atom_site_fract_z
  _atom_site_thermal_displace_type
  _atom_site_B_iso_or_equiv
  _atom_site_type_symbol
  U1       1.0000 0.47911  0.78442  0.76027  Biso   1.000  U
  U2       1.0000 0.52089  0.28442  0.23973  Biso   1.000  U
  U3       1.0000 0.05982  0.87907  0.76908  Biso   1.000  U
  U4       1.0000 0.94018  0.37907  0.23092  Biso   1.000  U
  Cu1      1.0000 0.41350  0.49346  0.80650  Biso   1.000  Cu
  Cu2      1.0000 0.58650  0.99346  0.19350  Biso   1.000  Cu
  Cu3      1.0000 0.11290  0.16127  0.68516  Biso   1.000  Cu
  Cu4      1.0000 0.88710  0.66127  0.31484  Biso   1.000  Cu
  O1       1.0000 0.50330  0.81480  0.87910  Biso   1.000  O
  O2       1.0000 0.49670  0.31480  0.12090  Biso   1.000  O
  O3       1.0000 0.46460  0.75250  0.64100  Biso   1.000  O
  O4       1.0000 0.53540  0.25250  0.35900  Biso   1.000  O
  O5       1.0000 0.11060  0.90260  0.88770  Biso   1.000  O
  O6       1.0000 0.88940  0.40260  0.11230  Biso   1.000  O
  O7       1.0000 0.01030  0.85760  0.65060  Biso   1.000  O
  O8       1.0000 0.98970  0.35760  0.34940  Biso   1.000  O
  O9       1.0000 0.41010  0.66630  0.80720  Biso   1.000  O
  O10      1.0000 0.58990  0.16630  0.19280  Biso   1.000  O
  O11      1.0000 0.24400  0.56770  0.78000  Biso   1.000  O
  O12      1.0000 0.75600  0.06770  0.22000  Biso   1.000  O
  O13      1.0000 0.87790  0.79540  0.83140  Biso   1.000  O
  O14      1.0000 0.12210  0.29540  0.16860  Biso   1.000  O
  O15      1.0000 0.71860  0.70610  0.78150  Biso   1.000  O
  O16      1.0000 0.28140  0.20610  0.21850  Biso   1.000  O
  O17      1.0000 0.19730  0.76280  0.77710  Biso   1.000  O
  O18      1.0000 0.80270  0.26280  0.22290  Biso   1.000  O
  O19      1.0000 0.12530  0.00210  0.72020  Biso   1.000  O
  O20      1.0000 0.87470  0.50210  0.27980  Biso   1.000  O
  O21      1.0000 0.29450  0.09000  0.70770  Biso   1.000  O
  O22      1.0000 0.70550  0.59000  0.29230  Biso   1.000  O
  O23      1.0000 0.65690  0.87110  0.71090  Biso   1.000  O
  O24      1.0000 0.34310  0.37110  0.28910  Biso   1.000  O
  O25      1.0000 0.81600  0.95870  0.77360  Biso   1.000  O
  O26      1.0000 0.18400  0.45870  0.22640  Biso   1.000  O
  O27      1.0000 0.33450  0.89660  0.73070  Biso   1.000  O
  O28      1.0000 0.66550  0.39660  0.26930  Biso   1.000  O
  O29      1.0000 0.63110  0.54590  0.74110  Biso   1.000  O
  O30      1.0000 0.36890  0.04590  0.25890  Biso   1.000  O
  H1       1.0000 0.64740  0.59640  0.73680  Biso   1.000  H
  H2       1.0000 0.35260  0.09640  0.26320  Biso   1.000  H
  H3       1.0000 0.67420  0.53250  0.69170  Biso   1.000  H
  H4       1.0000 0.32580  0.03250  0.30830  Biso   1.000  H
  O31      1.0000 0.51700  0.53930  0.92640  Biso   1.000  O
  O32      1.0000 0.48300  0.03930  0.07360  Biso   1.000  O
  O33      1.0000 0.28200  0.52410  0.98400  Biso   1.000  O
  O34      1.0000 0.71800  0.02410  0.01600  Biso   1.000  O
  O35      1.0000 0.44900  0.60040  0.04810  Biso   1.000  O
  O36      1.0000 0.55100  0.10040  0.95190  Biso   1.000  O
  O37      1.0000 0.89850  0.11500  0.75620  Biso   1.000  O
  O38      1.0000 0.10150  0.61500  0.24380  Biso   1.000  O
  H5       1.0000 0.88100  0.06750  0.76000  Biso   1.000  H
  H6       1.0000 0.11900  0.56750  0.24000  Biso   1.000  H
  H7       1.0000 0.82890  0.12590  0.72020  Biso   1.000  H
  H8       1.0000 0.17110  0.62590  0.27980  Biso   1.000  H
  O39      1.0000 0.01900  0.09810  0.57360  Biso   1.000  O
  O40      1.0000 0.98100  0.59810  0.42640  Biso   1.000  O
  O41      1.0000 0.11100  0.04710  0.44970  Biso   1.000  O
  O42      1.0000 0.88900  0.54710  0.55030  Biso   1.000  O
  O43      1.0000 0.21900  0.14620  0.50190  Biso   1.000  O
  O44      1.0000 0.78100  0.64620  0.49810  Biso   1.000  O
  N1       1.0000 0.34970  0.43760  0.68560  Biso   1.000  N
  N2       1.0000 0.65030  0.93760  0.31440  Biso   1.000  N
  N3       1.0000 0.52520  0.39770  0.83780  Biso   1.000  N
  N4       1.0000 0.47480  0.89770  0.16220  Biso   1.000  N
  N5       1.0000 0.16990  0.22080  0.80200  Biso   1.000  N
  N6       1.0000 0.83010  0.72080  0.19800  Biso   1.000  N
  N7       1.0000 0.99290  0.25300  0.64790  Biso   1.000  N
  N8       1.0000 0.00710  0.75300  0.35210  Biso   1.000  N
  N9       1.0000 0.41800  0.55360  0.98700  Biso   1.000  N
  N10      1.0000 0.58200  0.05360  0.01300  Biso   1.000  N
  N11      1.0000 0.11500  0.09760  0.50680  Biso   1.000  N
  N12      1.0000 0.88500  0.59760  0.49320  Biso   1.000  N
  C1       1.0000 0.26750  0.63780  0.78840  Biso   1.000  C
  C2       1.0000 0.73250  0.13780  0.21160  Biso   1.000  C
  C3       1.0000 0.13080  0.69180  0.76140  Biso   1.000  C
  C4       1.0000 0.86920  0.19180  0.23860  Biso   1.000  C
  C5       1.0000 0.99200  0.67480  0.83130  Biso   1.000  C
  C6       1.0000 0.00800  0.17480  0.16870  Biso   1.000  C
  H9       1.0000 0.95560  0.62460  0.82300  Biso   1.000  H
  H10      1.0000 0.04440  0.12460  0.17700  Biso   1.000  H
  H11      1.0000 0.03190  0.68050  0.89580  Biso   1.000  H
  H12      1.0000 0.96810  0.18050  0.10420  Biso   1.000  H
  C7       1.0000 0.85400  0.72670  0.81260  Biso   1.000  C
  C8       1.0000 0.14600  0.22670  0.18740  Biso   1.000  C
  C9       1.0000 0.09000  0.68110  0.65850  Biso   1.000  C
  C10      1.0000 0.91000  0.18110  0.34150  Biso   1.000  C
  H13      1.0000 0.99520  0.70940  0.64190  Biso   1.000  H
  H14      1.0000 0.00480  0.20940  0.35810  Biso   1.000  H
  H15      1.0000 0.06870  0.63000  0.64650  Biso   1.000  H
  H16      1.0000 0.93130  0.13000  0.35350  Biso   1.000  H
  H17      1.0000 0.17940  0.69700  0.62130  Biso   1.000  H
  H18      1.0000 0.82060  0.19700  0.37870  Biso   1.000  H
  C11      1.0000 0.26000  0.02460  0.71160  Biso   1.000  C
  C12      1.0000 0.74000  0.52460  0.28840  Biso   1.000  C
  C13      1.0000 0.39200  0.96450  0.69970  Biso   1.000  C
  C14      1.0000 0.60800  0.46450  0.30030  Biso   1.000  C
  C15      1.0000 0.54100  0.98580  0.75300  Biso   1.000  C
  C16      1.0000 0.45900  0.48580  0.24700  Biso   1.000  C
  H19      1.0000 0.51230  0.99350  0.81830  Biso   1.000  H
  H20      1.0000 0.48770  0.49350  0.18170  Biso   1.000  H
  H21      1.0000 0.57750  0.03260  0.72850  Biso   1.000  H
  H22      1.0000 0.42250  0.53260  0.27150  Biso   1.000  H
  C17      1.0000 0.68230  0.93240  0.75090  Biso   1.000  C
  C18      1.0000 0.31770  0.43240  0.24910  Biso   1.000  C
  C19      1.0000 0.42300  0.96580  0.59650  Biso   1.000  C
  C20      1.0000 0.57700  0.46580  0.40350  Biso   1.000  C
  H23      1.0000 0.45360  0.01460  0.57810  Biso   1.000  H
  H24      1.0000 0.54640  0.51460  0.42190  Biso   1.000  H
  H25      1.0000 0.32720  0.95120  0.56210  Biso   1.000  H
  H26      1.0000 0.67280  0.45120  0.43790  Biso   1.000  H
  H27      1.0000 0.51010  0.93250  0.58280  Biso   1.000  H
  H28      1.0000 0.48990  0.43250  0.41720  Biso   1.000  H
  C21      1.0000 0.26300  0.45780  0.61650  Biso   1.000  C
  C22      1.0000 0.73700  0.95780  0.38350  Biso   1.000  C
  H29      1.0000 0.22030  0.50510  0.61740  Biso   1.000  H
  H30      1.0000 0.77970  0.00510  0.38260  Biso   1.000  H
  C23      1.0000 0.22600  0.41300  0.53750  Biso   1.000  C
  C24      1.0000 0.77400  0.91300  0.46250  Biso   1.000  C
  H31      1.0000 0.15910  0.42950  0.48820  Biso   1.000  H
  H32      1.0000 0.84090  0.92950  0.51180  Biso   1.000  H
  C25      1.0000 0.29200  0.34420  0.53680  Biso   1.000  C
  C26      1.0000 0.70800  0.84420  0.46320  Biso   1.000  C
  H33      1.0000 0.27050  0.31300  0.48620  Biso   1.000  H
  H34      1.0000 0.72950  0.81300  0.51380  Biso   1.000  H
  C27      1.0000 0.39100  0.32050  0.61050  Biso   1.000  C
  C28      1.0000 0.60900  0.82050  0.38950  Biso   1.000  C
  C29      1.0000 0.41530  0.37200  0.68750  Biso   1.000  C
  C30      1.0000 0.58470  0.87200  0.31250  Biso   1.000  C
  C31      1.0000 0.50800  0.34810  0.77090  Biso   1.000  C
  C32      1.0000 0.49200  0.84810  0.22910  Biso   1.000  C
  C33      1.0000 0.58010  0.27960  0.77320  Biso   1.000  C
  C34      1.0000 0.41990  0.77960  0.22680  Biso   1.000  C
  C35      1.0000 0.67400  0.25980  0.85350  Biso   1.000  C
  C36      1.0000 0.32600  0.75980  0.14650  Biso   1.000  C
  H35      1.0000 0.72360  0.21410  0.85820  Biso   1.000  H
  H36      1.0000 0.27640  0.71410  0.14180  Biso   1.000  H
  C37      1.0000 0.68900  0.31230  0.92640  Biso   1.000  C
  C38      1.0000 0.31100  0.81230  0.07360  Biso   1.000  C
  H37      1.0000 0.75070  0.30190  0.98050  Biso   1.000  H
  H38      1.0000 0.24930  0.80190  0.01950  Biso   1.000  H
  C39      1.0000 0.61410  0.37810  0.91670  Biso   1.000  C
  C40      1.0000 0.38590  0.87810  0.08330  Biso   1.000  C
  H39      1.0000 0.62310  0.41160  0.96610  Biso   1.000  H
  H40      1.0000 0.37690  0.91160  0.03390  Biso   1.000  H
  C41      1.0000 0.46800  0.25040  0.61990  Biso   1.000  C
  C42      1.0000 0.53200  0.75040  0.38010  Biso   1.000  C
  H41      1.0000 0.45540  0.21840  0.56920  Biso   1.000  H
  H42      1.0000 0.54460  0.71840  0.43080  Biso   1.000  H
  C43      1.0000 0.55600  0.22580  0.69500  Biso   1.000  C
  C44      1.0000 0.44400  0.72580  0.30500  Biso   1.000  C
  H43      1.0000 0.59920  0.17870  0.69700  Biso   1.000  H
  H44      1.0000 0.40080  0.67870  0.30300  Biso   1.000  H
  C45      1.0000 0.26000  0.20250  0.87380  Biso   1.000  C
  C46      1.0000 0.74000  0.70250  0.12620  Biso   1.000  C
  H45      1.0000 0.31370  0.15760  0.87330  Biso   1.000  H
  H46      1.0000 0.68630  0.65760  0.12670  Biso   1.000  H
  C47      1.0000 0.27900  0.24880  0.95290  Biso   1.000  C
  C48      1.0000 0.72100  0.74880  0.04710  Biso   1.000  C
  H47      1.0000 0.33910  0.23330  0.00550  Biso   1.000  H
  H48      1.0000 0.66090  0.73330  0.99450  Biso   1.000  H
  C49      1.0000 0.21100  0.31420  0.95180  Biso   1.000  C
  C50      1.0000 0.78900  0.81420  0.04820  Biso   1.000  C
  H49      1.0000 0.22340  0.34530  0.00350  Biso   1.000  H
  H50      1.0000 0.77660  0.84530  0.99650  Biso   1.000  H
  C51      1.0000 0.12020  0.33690  0.87250  Biso   1.000  C
  C52      1.0000 0.87980  0.83690  0.12750  Biso   1.000  C
  C53      1.0000 0.09950  0.28620  0.79800  Biso   1.000  C
  C54      1.0000 0.90050  0.78620  0.20200  Biso   1.000  C
  C55      1.0000 0.00330  0.30670  0.71880  Biso   1.000  C
  C56      1.0000 0.99670  0.80670  0.28120  Biso   1.000  C
  C57      1.0000 0.92950  0.37650  0.71180  Biso   1.000  C
  C58      1.0000 0.07050  0.87650  0.28820  Biso   1.000  C
  C59      1.0000 0.83600  0.38530  0.62330  Biso   1.000  C
  C60      1.0000 0.16400  0.88530  0.37670  Biso   1.000  C
  H51      1.0000 0.78180  0.42950  0.61400  Biso   1.000  H
  H52      1.0000 0.21820  0.92950  0.38600  Biso   1.000  H
  C61      1.0000 0.82300  0.33700  0.55770  Biso   1.000  C
  C62      1.0000 0.17700  0.83700  0.44230  Biso   1.000  C
  H53      1.0000 0.76400  0.34610  0.50230  Biso   1.000  H
  H54      1.0000 0.23600  0.84610  0.49770  Biso   1.000  H
  C63      1.0000 0.90380  0.26840  0.57360  Biso   1.000  C
  C64      1.0000 0.09620  0.76840  0.42640  Biso   1.000  C
  H55      1.0000 0.89170  0.23230  0.52760  Biso   1.000  H
  H56      1.0000 0.10830  0.73230  0.47240  Biso   1.000  H
  C65      1.0000 0.04290  0.40900  0.86380  Biso   1.000  C
  C66      1.0000 0.95710  0.90900  0.13620  Biso   1.000  C
  H57      1.0000 0.05770  0.44400  0.91100  Biso   1.000  H
  H58      1.0000 0.94230  0.94400  0.08900  Biso   1.000  H
  C67      1.0000 0.94700  0.42480  0.78400  Biso   1.000  C
  C68      1.0000 0.05300  0.92480  0.21600  Biso   1.000  C
  H59      1.0000 0.89340  0.46960  0.78040  Biso   1.000  H
  H60      1.0000 0.10660  0.96960  0.21960  Biso   1.000  H
  O45      1.0000 0.56300  0.60310  0.57600  Biso   1.000  O
  O46      1.0000 0.43700  0.10310  0.42400  Biso   1.000  O
  O47      1.0000 0.85300  0.53970  0.99400  Biso   1.000  O
  O48      1.0000 0.14700  0.03970  0.00600  Biso   1.000  O
  O49      1.0000 0.37900  0.52410  0.94250  Biso   1.000  O
  O50      1.0000 0.62100  0.02410  0.05750  Biso   1.000  O
  O51      1.0000 0.22000  0.54490  0.05600  Biso   1.000  O
  O52      1.0000 0.78000  0.04490  0.94400  Biso   1.000  O
  O53      1.0000 0.11600  0.12550  0.55340  Biso   1.000  O
  O54      1.0000 0.88400  0.62550  0.44660  Biso   1.000  O
  O55      1.0000 0.05000  0.03360  0.46770  Biso   1.000  O
  O56      1.0000 0.95000  0.53360  0.53230  Biso   1.000  O
  O57      1.0000 0.88000  0.07790  0.56500  Biso   1.000  O
  O58      1.0000 0.12000  0.57790  0.43500  Biso   1.000  O
  N13      1.0000 0.01400  0.08020  0.52620  Biso   1.000  N
  N14      1.0000 0.98600  0.58020  0.47380  Biso   1.000  N
  N15      1.0000 0.34600  0.55880  0.01390  Biso   1.000  N
  N16      1.0000 0.65400  0.05880  0.98610  Biso   1.000  N
