data_image0
_cell_length_a       12.8461
_cell_length_b       13.7347
_cell_length_c       13.6634
_cell_angle_alpha    90
_cell_angle_beta     115.429
_cell_angle_gamma    90

_symmetry_space_group_name_H-M    "P 1"
_symmetry_int_tables_number       1

loop_
  _symmetry_equiv_pos_as_xyz
  'x, y, z'

loop_
  _atom_site_label
  _atom_site_occupancy
  _atom_site_fract_x
  _atom_site_fract_y
  _atom_site_fract_z
  _atom_site_thermal_displace_type
  _atom_site_B_iso_or_equiv
  _atom_site_type_symbol
  U1       1.0000 0.49027  0.83232  0.08458  Biso   1.000  U
  U2       1.0000 0.00973  0.33232  0.41542  Biso   1.000  U
  U3       1.0000 0.50973  0.16768  0.91542  Biso   1.000  U
  U4       1.0000 0.99027  0.66768  0.58458  Biso   1.000  U
  Cu1      1.0000 0.07974  0.92896  0.31739  Biso   1.000  Cu
  Cu2      1.0000 0.42026  0.42896  0.18261  Biso   1.000  Cu
  Cu3      1.0000 0.92026  0.07104  0.68261  Biso   1.000  Cu
  Cu4      1.0000 0.57974  0.57104  0.81739  Biso   1.000  Cu
  O1       1.0000 0.60430  0.84460  0.04440  Biso   1.000  O
  O2       1.0000 0.89570  0.34460  0.45560  Biso   1.000  O
  O3       1.0000 0.39570  0.15540  0.95560  Biso   1.000  O
  O4       1.0000 0.10430  0.65540  0.54440  Biso   1.000  O
  O5       1.0000 0.37280  0.82150  0.12100  Biso   1.000  O
  O6       1.0000 0.12720  0.32150  0.37900  Biso   1.000  O
  O7       1.0000 0.62720  0.17850  0.87900  Biso   1.000  O
  O8       1.0000 0.87280  0.67850  0.62100  Biso   1.000  O
  O9       1.0000 0.60860  0.83670  0.27390  Biso   1.000  O
  O10      1.0000 0.89140  0.33670  0.22610  Biso   1.000  O
  O11      1.0000 0.39140  0.16330  0.72610  Biso   1.000  O
  O12      1.0000 0.10860  0.66330  0.77390  Biso   1.000  O
  O13      1.0000 0.62550  0.93670  0.40770  Biso   1.000  O
  O14      1.0000 0.87450  0.43670  0.09230  Biso   1.000  O
  O15      1.0000 0.37450  0.06330  0.59230  Biso   1.000  O
  O16      1.0000 0.12550  0.56330  0.90770  Biso   1.000  O
  O17      1.0000 0.54130  0.99720  0.14590  Biso   1.000  O
  O18      1.0000 0.95870  0.49720  0.35410  Biso   1.000  O
  O19      1.0000 0.45870  0.00280  0.85410  Biso   1.000  O
  O20      1.0000 0.04130  0.50280  0.64590  Biso   1.000  O
  O21      1.0000 0.63820  0.07770  0.06970  Biso   1.000  O
  O22      1.0000 0.86180  0.57770  0.43030  Biso   1.000  O
  O23      1.0000 0.36180  0.92230  0.93030  Biso   1.000  O
  O24      1.0000 0.13820  0.42230  0.56970  Biso   1.000  O
  O25      1.0000 0.04940  0.05560  0.36980  Biso   1.000  O
  O26      1.0000 0.45060  0.55560  0.13020  Biso   1.000  O
  O27      1.0000 0.95060  0.94440  0.63020  Biso   1.000  O
  O28      1.0000 0.54940  0.44440  0.86980  Biso   1.000  O
  O29      1.0000 0.92960  0.17840  0.35180  Biso   1.000  O
  O30      1.0000 0.57040  0.67840  0.14820  Biso   1.000  O
  O31      1.0000 0.07040  0.82160  0.64820  Biso   1.000  O
  O32      1.0000 0.42960  0.32160  0.85180  Biso   1.000  O
  O33      1.0000 0.03290  0.85530  0.41520  Biso   1.000  O
  O34      1.0000 0.46710  0.35530  0.08480  Biso   1.000  O
  O35      1.0000 0.96710  0.14470  0.58480  Biso   1.000  O
  O36      1.0000 0.53290  0.64470  0.91520  Biso   1.000  O
  O37      1.0000 0.89390  0.77670  0.44020  Biso   1.000  O
  O38      1.0000 0.60610  0.27670  0.05980  Biso   1.000  O
  O39      1.0000 0.10610  0.22330  0.55980  Biso   1.000  O
  O40      1.0000 0.39390  0.72330  0.94020  Biso   1.000  O
  O41      1.0000 0.87360  0.94270  0.23040  Biso   1.000  O
  O42      1.0000 0.62640  0.44270  0.26960  Biso   1.000  O
  O43      1.0000 0.12640  0.05730  0.76960  Biso   1.000  O
  O44      1.0000 0.37360  0.55730  0.73040  Biso   1.000  O
  O45      1.0000 0.26580  0.92450  0.44010  Biso   1.000  O
  O46      1.0000 0.23420  0.42450  0.05990  Biso   1.000  O
  O47      1.0000 0.73420  0.07550  0.55990  Biso   1.000  O
  O48      1.0000 0.76580  0.57550  0.94010  Biso   1.000  O
  H1       1.0000 0.29820  0.97910  0.49080  Biso   1.000  H
  H2       1.0000 0.20180  0.47910  0.00920  Biso   1.000  H
  H3       1.0000 0.70180  0.02090  0.50920  Biso   1.000  H
  H4       1.0000 0.79820  0.52090  0.99080  Biso   1.000  H
  H5       1.0000 0.32430  0.91980  0.42050  Biso   1.000  H
  H6       1.0000 0.17570  0.41980  0.07950  Biso   1.000  H
  H7       1.0000 0.67570  0.08020  0.57950  Biso   1.000  H
  H8       1.0000 0.82430  0.58020  0.92050  Biso   1.000  H
  N1       1.0000 0.11080  0.98970  0.19830  Biso   1.000  N
  N2       1.0000 0.38920  0.48970  0.30170  Biso   1.000  N
  N3       1.0000 0.88920  0.01030  0.80170  Biso   1.000  N
  N4       1.0000 0.61080  0.51030  0.69830  Biso   1.000  N
  N5       1.0000 0.09400  0.80700  0.24310  Biso   1.000  N
  N6       1.0000 0.40600  0.30700  0.25690  Biso   1.000  N
  N7       1.0000 0.90600  0.19300  0.75690  Biso   1.000  N
  N8       1.0000 0.59400  0.69300  0.74310  Biso   1.000  N
  C1       1.0000 0.76240  0.95400  0.33390  Biso   1.000  C
  C2       1.0000 0.73760  0.45400  0.16610  Biso   1.000  C
  C3       1.0000 0.23760  0.04600  0.66610  Biso   1.000  C
  C4       1.0000 0.26240  0.54600  0.83390  Biso   1.000  C
  H9       1.0000 0.81410  0.97550  0.40730  Biso   1.000  H
  H10      1.0000 0.68590  0.47550  0.09270  Biso   1.000  H
  H11      1.0000 0.18590  0.02450  0.59270  Biso   1.000  H
  H12      1.0000 0.31410  0.52450  0.90730  Biso   1.000  H
  C5       1.0000 0.73900  0.04190  0.25810  Biso   1.000  C
  C6       1.0000 0.76100  0.54190  0.24190  Biso   1.000  C
  C7       1.0000 0.26100  0.95810  0.74190  Biso   1.000  C
  C8       1.0000 0.23900  0.45810  0.75810  Biso   1.000  C
  H13      1.0000 0.73590  0.10100  0.29700  Biso   1.000  H
  H14      1.0000 0.76410  0.60100  0.20300  Biso   1.000  H
  H15      1.0000 0.26410  0.89900  0.70300  Biso   1.000  H
  H16      1.0000 0.23590  0.39900  0.79700  Biso   1.000  H
  C9       1.0000 0.84930  0.04320  0.24120  Biso   1.000  C
  C10      1.0000 0.65070  0.54320  0.25880  Biso   1.000  C
  C11      1.0000 0.15070  0.95680  0.75880  Biso   1.000  C
  C12      1.0000 0.34930  0.45680  0.74120  Biso   1.000  C
  H17      1.0000 0.83200  0.07570  0.17210  Biso   1.000  H
  H18      1.0000 0.66800  0.57570  0.32790  Biso   1.000  H
  H19      1.0000 0.16800  0.92430  0.82790  Biso   1.000  H
  H20      1.0000 0.33200  0.42430  0.67210  Biso   1.000  H
  C13      1.0000 0.83150  0.88440  0.29460  Biso   1.000  C
  C14      1.0000 0.66850  0.38440  0.20540  Biso   1.000  C
  C15      1.0000 0.16850  0.11560  0.70540  Biso   1.000  C
  C16      1.0000 0.33150  0.61560  0.79460  Biso   1.000  C
  H21      1.0000 0.77970  0.83410  0.24840  Biso   1.000  H
  H22      1.0000 0.72030  0.33410  0.25160  Biso   1.000  H
  H23      1.0000 0.22030  0.16590  0.75160  Biso   1.000  H
  H24      1.0000 0.27970  0.66590  0.74840  Biso   1.000  H
  C17      1.0000 0.65770  0.90580  0.33940  Biso   1.000  C
  C18      1.0000 0.84230  0.40580  0.16060  Biso   1.000  C
  C19      1.0000 0.34230  0.09420  0.66060  Biso   1.000  C
  C20      1.0000 0.15770  0.59420  0.83940  Biso   1.000  C
  C21      1.0000 0.63150  0.03780  0.14870  Biso   1.000  C
  C22      1.0000 0.86850  0.53780  0.35130  Biso   1.000  C
  C23      1.0000 0.36850  0.96220  0.85130  Biso   1.000  C
  C24      1.0000 0.13150  0.46220  0.64870  Biso   1.000  C
  C25      1.0000 0.95190  0.09550  0.32960  Biso   1.000  C
  C26      1.0000 0.54810  0.59550  0.17040  Biso   1.000  C
  C27      1.0000 0.04810  0.90450  0.67040  Biso   1.000  C
  C28      1.0000 0.45190  0.40450  0.82960  Biso   1.000  C
  C29      1.0000 0.92900  0.83610  0.39020  Biso   1.000  C
  C30      1.0000 0.57100  0.33610  0.10980  Biso   1.000  C
  C31      1.0000 0.07100  0.16390  0.60980  Biso   1.000  C
  C32      1.0000 0.42900  0.66390  0.89020  Biso   1.000  C
  C33      1.0000 0.11860  0.08470  0.18170  Biso   1.000  C
  C34      1.0000 0.38140  0.58470  0.31830  Biso   1.000  C
  C35      1.0000 0.88140  0.91530  0.81830  Biso   1.000  C
  C36      1.0000 0.61860  0.41530  0.68170  Biso   1.000  C
  H25      1.0000 0.10720  0.12870  0.22790  Biso   1.000  H
  H26      1.0000 0.39280  0.62870  0.27210  Biso   1.000  H
  H27      1.0000 0.89280  0.87130  0.77210  Biso   1.000  H
  H28      1.0000 0.60720  0.37130  0.72790  Biso   1.000  H
  C37      1.0000 0.14280  0.12080  0.09950  Biso   1.000  C
  C38      1.0000 0.35720  0.62080  0.40050  Biso   1.000  C
  C39      1.0000 0.85720  0.87920  0.90050  Biso   1.000  C
  C40      1.0000 0.64280  0.37920  0.59950  Biso   1.000  C
  H29      1.0000 0.14640  0.18750  0.08950  Biso   1.000  H
  H30      1.0000 0.35360  0.68750  0.41050  Biso   1.000  H
  H31      1.0000 0.85360  0.81250  0.91050  Biso   1.000  H
  H32      1.0000 0.64640  0.31250  0.58950  Biso   1.000  H
  C41      1.0000 0.16170  0.05470  0.03230  Biso   1.000  C
  C42      1.0000 0.33830  0.55470  0.46770  Biso   1.000  C
  C43      1.0000 0.83830  0.94530  0.96770  Biso   1.000  C
  C44      1.0000 0.66170  0.44530  0.53230  Biso   1.000  C
  H33      1.0000 0.17930  0.07640  0.97670  Biso   1.000  H
  H34      1.0000 0.32070  0.57640  0.52330  Biso   1.000  H
  H35      1.0000 0.82070  0.92360  0.02330  Biso   1.000  H
  H36      1.0000 0.67930  0.42360  0.47670  Biso   1.000  H
  C45      1.0000 0.15400  0.95540  0.04880  Biso   1.000  C
  C46      1.0000 0.34600  0.45540  0.45120  Biso   1.000  C
  C47      1.0000 0.84600  0.04460  0.95120  Biso   1.000  C
  C48      1.0000 0.65400  0.54460  0.54880  Biso   1.000  C
  H37      1.0000 0.16690  0.91010  0.00480  Biso   1.000  H
  H38      1.0000 0.33310  0.41010  0.49520  Biso   1.000  H
  H39      1.0000 0.83310  0.08990  0.99520  Biso   1.000  H
  H40      1.0000 0.66690  0.58990  0.50480  Biso   1.000  H
  C49      1.0000 0.12680  0.92520  0.13140  Biso   1.000  C
  C50      1.0000 0.37320  0.42520  0.36860  Biso   1.000  C
  C51      1.0000 0.87320  0.07480  0.86860  Biso   1.000  C
  C52      1.0000 0.62680  0.57480  0.63140  Biso   1.000  C
  C53      1.0000 0.11220  0.82180  0.15380  Biso   1.000  C
  C54      1.0000 0.38780  0.32180  0.34620  Biso   1.000  C
  C55      1.0000 0.88780  0.17820  0.84620  Biso   1.000  C
  C56      1.0000 0.61220  0.67820  0.65380  Biso   1.000  C
  C57      1.0000 0.11590  0.74480  0.09090  Biso   1.000  C
  C58      1.0000 0.38410  0.24480  0.40910  Biso   1.000  C
  C59      1.0000 0.88410  0.25520  0.90910  Biso   1.000  C
  C60      1.0000 0.61590  0.75520  0.59090  Biso   1.000  C
  H41      1.0000 0.13120  0.75540  0.03120  Biso   1.000  H
  H42      1.0000 0.36880  0.25540  0.46880  Biso   1.000  H
  H43      1.0000 0.86880  0.24460  0.96880  Biso   1.000  H
  H44      1.0000 0.63120  0.74460  0.53120  Biso   1.000  H
  C61      1.0000 0.09640  0.65060  0.11780  Biso   1.000  C
  C62      1.0000 0.40360  0.15060  0.38220  Biso   1.000  C
  C63      1.0000 0.90360  0.34940  0.88220  Biso   1.000  C
  C64      1.0000 0.59640  0.84940  0.61780  Biso   1.000  C
  H45      1.0000 0.09590  0.59830  0.07440  Biso   1.000  H
  H46      1.0000 0.40410  0.09830  0.42560  Biso   1.000  H
  H47      1.0000 0.90410  0.40170  0.92560  Biso   1.000  H
  H48      1.0000 0.59590  0.90170  0.57440  Biso   1.000  H
  C65      1.0000 0.07800  0.63550  0.20770  Biso   1.000  C
  C66      1.0000 0.42200  0.13550  0.29230  Biso   1.000  C
  C67      1.0000 0.92200  0.36450  0.79230  Biso   1.000  C
  C68      1.0000 0.57800  0.86450  0.70770  Biso   1.000  C
  H49      1.0000 0.06520  0.57320  0.22710  Biso   1.000  H
  H50      1.0000 0.43480  0.07320  0.27290  Biso   1.000  H
  H51      1.0000 0.93480  0.42680  0.77290  Biso   1.000  H
  H52      1.0000 0.56520  0.92680  0.72710  Biso   1.000  H
  C69      1.0000 0.07900  0.71710  0.27030  Biso   1.000  C
  C70      1.0000 0.42100  0.21710  0.22970  Biso   1.000  C
  C71      1.0000 0.92100  0.28290  0.72970  Biso   1.000  C
  C72      1.0000 0.57900  0.78290  0.77030  Biso   1.000  C
  H53      1.0000 0.06870  0.70770  0.33300  Biso   1.000  H
  H54      1.0000 0.43130  0.20770  0.16700  Biso   1.000  H
  H55      1.0000 0.93130  0.29230  0.66700  Biso   1.000  H
  H56      1.0000 0.56870  0.79230  0.83300  Biso   1.000  H
  O49      1.0000 0.81010  0.73120  0.09090  Biso   1.000  O
  O50      1.0000 0.68990  0.23120  0.40910  Biso   1.000  O
  O51      1.0000 0.18990  0.26880  0.90910  Biso   1.000  O
  O52      1.0000 0.31010  0.76880  0.59090  Biso   1.000  O
  H57      1.0000 0.75510  0.77010  0.05000  Biso   1.000  H
  H58      1.0000 0.74490  0.27010  0.45000  Biso   1.000  H
  H59      1.0000 0.24490  0.22990  0.95000  Biso   1.000  H
  H60      1.0000 0.25510  0.72990  0.55000  Biso   1.000  H
  H61      1.0000 0.79720  0.68510  0.04570  Biso   1.000  H
  H62      1.0000 0.70280  0.18510  0.45430  Biso   1.000  H
  H63      1.0000 0.20280  0.31490  0.95430  Biso   1.000  H
  H64      1.0000 0.29720  0.81490  0.54570  Biso   1.000  H
  O53      1.0000 0.40030  0.86890  0.34260  Biso   1.000  O
  O54      1.0000 0.09970  0.36890  0.15740  Biso   1.000  O
  O55      1.0000 0.59970  0.13110  0.65740  Biso   1.000  O
  O56      1.0000 0.90030  0.63110  0.84260  Biso   1.000  O
  H65      1.0000 0.37540  0.84000  0.28370  Biso   1.000  H
  H66      1.0000 0.12460  0.34000  0.21630  Biso   1.000  H
  H67      1.0000 0.62460  0.16000  0.71630  Biso   1.000  H
  H68      1.0000 0.87540  0.66000  0.78370  Biso   1.000  H
  H69      1.0000 0.46220  0.88510  0.35410  Biso   1.000  H
  H70      1.0000 0.03780  0.38510  0.14590  Biso   1.000  H
  H71      1.0000 0.53780  0.11490  0.64590  Biso   1.000  H
  H72      1.0000 0.96220  0.61490  0.85410  Biso   1.000  H
