data_image0
_cell_length_a       7.1039
_cell_length_b       12.1625
_cell_length_c       22.2182
_cell_angle_alpha    103.229
_cell_angle_beta     92.916
_cell_angle_gamma    100.199

_symmetry_space_group_name_H-M    "P 1"
_symmetry_int_tables_number       1

loop_
  _symmetry_equiv_pos_as_xyz
  'x, y, z'

loop_
  _atom_site_label
  _atom_site_occupancy
  _atom_site_fract_x
  _atom_site_fract_y
  _atom_site_fract_z
  _atom_site_thermal_displace_type
  _atom_site_B_iso_or_equiv
  _atom_site_type_symbol
  U1       1.0000 0.18053  0.48260  0.24014  Biso   1.000  U
  U2       1.0000 0.81947  0.51740  0.75986  Biso   1.000  U
  U3       1.0000 0.00000  0.00000  0.00000  Biso   1.000  U
  U4       1.0000 0.00000  0.00000  0.50000  Biso   1.000  U
  Cu1      1.0000 0.61119  0.94572  0.27786  Biso   1.000  Cu
  Cu2      1.0000 0.38881  0.05428  0.72214  Biso   1.000  Cu
  O1       1.0000 0.42520  0.49760  0.22392  Biso   1.000  O
  O2       1.0000 0.57480  0.50240  0.77608  Biso   1.000  O
  O3       1.0000 0.93790  0.47000  0.25726  Biso   1.000  O
  O4       1.0000 0.06210  0.53000  0.74274  Biso   1.000  O
  O5       1.0000 0.25320  0.01290  0.99688  Biso   1.000  O
  O6       1.0000 0.74680  0.98710  0.00312  Biso   1.000  O
  O7       1.0000 0.24530  0.02390  0.48506  Biso   1.000  O
  O8       1.0000 0.75470  0.97610  0.51494  Biso   1.000  O
  O9       1.0000 0.20590  0.68240  0.25366  Biso   1.000  O
  O10      1.0000 0.79410  0.31760  0.74634  Biso   1.000  O
  O11      1.0000 0.32090  0.86590  0.30406  Biso   1.000  O
  O12      1.0000 0.67910  0.13410  0.69594  Biso   1.000  O
  O13      1.0000 0.24480  0.38380  0.31653  Biso   1.000  O
  O14      1.0000 0.75520  0.61620  0.68347  Biso   1.000  O
  O15      1.0000 0.35160  0.37210  0.41132  Biso   1.000  O
  O16      1.0000 0.64840  0.62790  0.58868  Biso   1.000  O
  O17      1.0000 0.05840  0.18450  0.08129  Biso   1.000  O
  O18      1.0000 0.94160  0.81550  0.91871  Biso   1.000  O
  O19      1.0000 0.10690  0.29840  0.17644  Biso   1.000  O
  O20      1.0000 0.89310  0.70160  0.82356  Biso   1.000  O
  O21      1.0000 0.99790  0.81960  0.02945  Biso   1.000  O
  O22      1.0000 0.00210  0.18040  0.97055  Biso   1.000  O
  O23      1.0000 0.00160  0.69880  0.09111  Biso   1.000  O
  O24      1.0000 0.99840  0.30120  0.90889  Biso   1.000  O
  O25      1.0000 0.92260  0.93980  0.38624  Biso   1.000  O
  O26      1.0000 0.07740  0.06020  0.61376  Biso   1.000  O
  O27      1.0000 0.72330  0.82640  0.30647  Biso   1.000  O
  O28      1.0000 0.27670  0.17360  0.69353  Biso   1.000  O
  O29      1.0000 0.07260  0.85766  0.55548  Biso   1.000  O
  O30      1.0000 0.92740  0.14234  0.44452  Biso   1.000  O
  O31      1.0000 0.10250  0.68450  0.56786  Biso   1.000  O
  O32      1.0000 0.89750  0.31550  0.43214  Biso   1.000  O
  O33      1.0000 0.08830  0.51830  0.13916  Biso   1.000  O
  O34      1.0000 0.91170  0.48170  0.86084  Biso   1.000  O
  H1       1.0000 0.08360  0.58430  0.13930  Biso   1.000  H
  H2       1.0000 0.91640  0.41570  0.86070  Biso   1.000  H
  H3       1.0000 0.98080  0.46320  0.12070  Biso   1.000  H
  H4       1.0000 0.01920  0.53680  0.87930  Biso   1.000  H
  O35      1.0000 0.63050  0.04850  0.35846  Biso   1.000  O
  O36      1.0000 0.36950  0.95150  0.64154  Biso   1.000  O
  H5       1.0000 0.74080  0.07980  0.38180  Biso   1.000  H
  H6       1.0000 0.25920  0.92020  0.61820  Biso   1.000  H
  H7       1.0000 0.55160  0.07900  0.37620  Biso   1.000  H
  H8       1.0000 0.44840  0.92100  0.62380  Biso   1.000  H
  N1       1.0000 0.29180  0.60520  0.34782  Biso   1.000  N
  N2       1.0000 0.70820  0.39480  0.65218  Biso   1.000  N
  N3       1.0000 0.03840  0.99850  0.11900  Biso   1.000  N
  N4       1.0000 0.96160  0.00150  0.88100  Biso   1.000  N
  N5       1.0000 0.92130  0.77950  0.44343  Biso   1.000  N
  N6       1.0000 0.07870  0.22050  0.55657  Biso   1.000  N
  N7       1.0000 0.57110  0.84760  0.19178  Biso   1.000  N
  N8       1.0000 0.42890  0.15240  0.80822  Biso   1.000  N
  N9       1.0000 0.58160  0.06740  0.23290  Biso   1.000  N
  N10      1.0000 0.41840  0.93260  0.76710  Biso   1.000  N
  C1       1.0000 0.32250  0.71920  0.35830  Biso   1.000  C
  C2       1.0000 0.67750  0.28080  0.64170  Biso   1.000  C
  C3       1.0000 0.39620  0.79130  0.41638  Biso   1.000  C
  C4       1.0000 0.60380  0.20870  0.58362  Biso   1.000  C
  H9       1.0000 0.42130  0.87100  0.42260  Biso   1.000  H
  H10      1.0000 0.57870  0.12900  0.57740  Biso   1.000  H
  C5       1.0000 0.43080  0.73950  0.46472  Biso   1.000  C
  C6       1.0000 0.56920  0.26050  0.53528  Biso   1.000  C
  H11      1.0000 0.47360  0.78490  0.50440  Biso   1.000  H
  H12      1.0000 0.52640  0.21510  0.49560  Biso   1.000  H
  C7       1.0000 0.40210  0.62210  0.45396  Biso   1.000  C
  C8       1.0000 0.59790  0.37790  0.54604  Biso   1.000  C
  H13      1.0000 0.42790  0.58720  0.48580  Biso   1.000  H
  H14      1.0000 0.57210  0.41280  0.51420  Biso   1.000  H
  C9       1.0000 0.33330  0.55530  0.39422  Biso   1.000  C
  C10      1.0000 0.66670  0.44470  0.60578  Biso   1.000  C
  C11      1.0000 0.28050  0.76240  0.30205  Biso   1.000  C
  C12      1.0000 0.71950  0.23760  0.69795  Biso   1.000  C
  C13      1.0000 0.30790  0.42660  0.37382  Biso   1.000  C
  C14      1.0000 0.69210  0.57340  0.62618  Biso   1.000  C
  C15      1.0000 0.06590  0.09710  0.16390  Biso   1.000  C
  C16      1.0000 0.93410  0.90290  0.83610  Biso   1.000  C
  C17      1.0000 0.08340  0.09970  0.22669  Biso   1.000  C
  C18      1.0000 0.91660  0.90030  0.77331  Biso   1.000  C
  H15      1.0000 0.10070  0.16900  0.25650  Biso   1.000  H
  H16      1.0000 0.89930  0.83100  0.74350  Biso   1.000  H
  C19      1.0000 0.07460  0.99600  0.24396  Biso   1.000  C
  C20      1.0000 0.92540  0.00400  0.75604  Biso   1.000  C
  H17      1.0000 0.08620  0.99490  0.28570  Biso   1.000  H
  H18      1.0000 0.91380  0.00510  0.71430  Biso   1.000  H
  C21      1.0000 0.04810  0.89420  0.19797  Biso   1.000  C
  C22      1.0000 0.95190  0.10580  0.80203  Biso   1.000  C
  H19      1.0000 0.04090  0.82380  0.20840  Biso   1.000  H
  H20      1.0000 0.95910  0.17620  0.79160  Biso   1.000  H
  C23      1.0000 0.03270  0.89960  0.13608  Biso   1.000  C
  C24      1.0000 0.96730  0.10040  0.86392  Biso   1.000  C
  C25      1.0000 0.07810  0.20070  0.13874  Biso   1.000  C
  C26      1.0000 0.92190  0.79930  0.86126  Biso   1.000  C
  C27      1.0000 0.00930  0.79640  0.08259  Biso   1.000  C
  C28      1.0000 0.99070  0.20360  0.91741  Biso   1.000  C
  C29      1.0000 0.83800  0.74550  0.38497  Biso   1.000  C
  C30      1.0000 0.16200  0.25450  0.61503  Biso   1.000  C
  C31      1.0000 0.77310  0.63130  0.35467  Biso   1.000  C
  C32      1.0000 0.22690  0.36870  0.64533  Biso   1.000  C
  H21      1.0000 0.71580  0.61080  0.31410  Biso   1.000  H
  H22      1.0000 0.28420  0.38920  0.68590  Biso   1.000  H
  C33      1.0000 0.79610  0.54710  0.38704  Biso   1.000  C
  C34      1.0000 0.20390  0.45290  0.61296  Biso   1.000  C
  H23      1.0000 0.75520  0.46930  0.36800  Biso   1.000  H
  H24      1.0000 0.24480  0.53070  0.63200  Biso   1.000  H
  C35      1.0000 0.87980  0.58140  0.44713  Biso   1.000  C
  C36      1.0000 0.12020  0.41860  0.55287  Biso   1.000  C
  H25      1.0000 0.89560  0.52700  0.46940  Biso   1.000  H
  H26      1.0000 0.10440  0.47300  0.53060  Biso   1.000  H
  C37      1.0000 0.94110  0.69890  0.47461  Biso   1.000  C
  C38      1.0000 0.05890  0.30110  0.52539  Biso   1.000  C
  C39      1.0000 0.82740  0.84500  0.35637  Biso   1.000  C
  C40      1.0000 0.17260  0.15500  0.64363  Biso   1.000  C
  C41      1.0000 0.04710  0.74710  0.53830  Biso   1.000  C
  C42      1.0000 0.95290  0.25290  0.46170  Biso   1.000  C
  C43      1.0000 0.57010  0.73490  0.17578  Biso   1.000  C
  C44      1.0000 0.42990  0.26510  0.82422  Biso   1.000  C
  H27      1.0000 0.59330  0.69770  0.20680  Biso   1.000  H
  H28      1.0000 0.40670  0.30230  0.79320  Biso   1.000  H
  C45      1.0000 0.53610  0.67150  0.11500  Biso   1.000  C
  C46      1.0000 0.46390  0.32850  0.88500  Biso   1.000  C
  H29      1.0000 0.53660  0.59300  0.10500  Biso   1.000  H
  H30      1.0000 0.46340  0.40700  0.89500  Biso   1.000  H
  C47      1.0000 0.50100  0.72800  0.06904  Biso   1.000  C
  C48      1.0000 0.49900  0.27200  0.93096  Biso   1.000  C
  H31      1.0000 0.47700  0.68770  0.02760  Biso   1.000  H
  H32      1.0000 0.52300  0.31230  0.97240  Biso   1.000  H
  C49      1.0000 0.50210  0.84500  0.08574  Biso   1.000  C
  C50      1.0000 0.49790  0.15500  0.91426  Biso   1.000  C
  H33      1.0000 0.47860  0.88380  0.05550  Biso   1.000  H
  H34      1.0000 0.52140  0.11620  0.94450  Biso   1.000  H
  C51      1.0000 0.53780  0.90360  0.14706  Biso   1.000  C
  C52      1.0000 0.46220  0.09640  0.85294  Biso   1.000  C
  C53      1.0000 0.55150  0.02870  0.17024  Biso   1.000  C
  C54      1.0000 0.44850  0.97130  0.82976  Biso   1.000  C
  C55      1.0000 0.54370  0.10440  0.13228  Biso   1.000  C
  C56      1.0000 0.45630  0.89560  0.86772  Biso   1.000  C
  H35      1.0000 0.52540  0.07720  0.08930  Biso   1.000  H
  H36      1.0000 0.47460  0.92280  0.91070  Biso   1.000  H
  C57      1.0000 0.56370  0.22070  0.15910  Biso   1.000  C
  C58      1.0000 0.43630  0.77930  0.84090  Biso   1.000  C
  H37      1.0000 0.55740  0.27230  0.13430  Biso   1.000  H
  H38      1.0000 0.44260  0.72770  0.86570  Biso   1.000  H
  C59      1.0000 0.59290  0.25980  0.22280  Biso   1.000  C
  C60      1.0000 0.40710  0.74020  0.77720  Biso   1.000  C
  H39      1.0000 0.60560  0.33760  0.24170  Biso   1.000  H
  H40      1.0000 0.39440  0.66240  0.75830  Biso   1.000  H
  C61      1.0000 0.60280  0.18010  0.25788  Biso   1.000  C
  C62      1.0000 0.39720  0.81990  0.74212  Biso   1.000  C
  H41      1.0000 0.62540  0.20640  0.30080  Biso   1.000  H
  H42      1.0000 0.37460  0.79360  0.69920  Biso   1.000  H
  O37      1.0000 0.32550  0.14260  0.37539  Biso   1.000  O
  O38      1.0000 0.67450  0.85740  0.62461  Biso   1.000  O
  H43      1.0000 0.35380  0.21080  0.39200  Biso   1.000  H
  H44      1.0000 0.64620  0.78920  0.60800  Biso   1.000  H
  H45      1.0000 0.24770  0.11110  0.38880  Biso   1.000  H
  H46      1.0000 0.75230  0.88890  0.61120  Biso   1.000  H
  O39      1.0000 0.83860  0.36000  0.05719  Biso   1.000  O
  O40      1.0000 0.16140  0.64000  0.94281  Biso   1.000  O
  O41      1.0000 0.76160  0.52390  0.99590  Biso   1.000  O
  O42      1.0000 0.23840  0.47610  0.00410  Biso   1.000  O
  O43      1.0000 0.81600  0.59450  0.96280  Biso   1.000  O
  O44      1.0000 0.18400  0.40550  0.03720  Biso   1.000  O
