data_image0
_cell_length_a       28.219
_cell_length_b       25.406
_cell_length_c       9.5433
_cell_angle_alpha    90
_cell_angle_beta     108.86
_cell_angle_gamma    90

_symmetry_space_group_name_H-M    "P 1"
_symmetry_int_tables_number       1

loop_
  _symmetry_equiv_pos_as_xyz
  'x, y, z'

loop_
  _atom_site_label
  _atom_site_occupancy
  _atom_site_fract_x
  _atom_site_fract_y
  _atom_site_fract_z
  _atom_site_thermal_displace_type
  _atom_site_B_iso_or_equiv
  _atom_site_type_symbol
  Cu1      1.0000 0.26006  0.28554  0.11249  Biso   1.000  Cu
  Cu2      1.0000 0.73994  0.28554  0.88751  Biso   1.000  Cu
  Cu3      1.0000 0.76006  0.78554  0.11249  Biso   1.000  Cu
  Cu4      1.0000 0.23994  0.78554  0.88751  Biso   1.000  Cu
  Cu5      1.0000 0.73994  0.71446  0.88751  Biso   1.000  Cu
  Cu6      1.0000 0.26006  0.71446  0.11249  Biso   1.000  Cu
  Cu7      1.0000 0.23994  0.21446  0.88751  Biso   1.000  Cu
  Cu8      1.0000 0.76006  0.21446  0.11249  Biso   1.000  Cu
  Cu9      1.0000 0.04269  0.50000  0.10979  Biso   1.000  Cu
  Cu10     1.0000 0.95731  0.50000  0.89021  Biso   1.000  Cu
  Cu11     1.0000 0.54269  0.00000  0.10979  Biso   1.000  Cu
  Cu12     1.0000 0.45731  0.00000  0.89021  Biso   1.000  Cu
  O1       1.0000 0.19024  0.30867  0.01370  Biso   1.000  O
  O2       1.0000 0.80976  0.30867  0.98630  Biso   1.000  O
  O3       1.0000 0.69024  0.80867  0.01370  Biso   1.000  O
  O4       1.0000 0.30976  0.80867  0.98630  Biso   1.000  O
  O5       1.0000 0.80976  0.69133  0.98630  Biso   1.000  O
  O6       1.0000 0.19024  0.69133  0.01370  Biso   1.000  O
  O7       1.0000 0.30976  0.19133  0.98630  Biso   1.000  O
  O8       1.0000 0.69024  0.19133  0.01370  Biso   1.000  O
  O9       1.0000 0.17331  0.24910  0.83030  Biso   1.000  O
  O10      1.0000 0.82669  0.24910  0.16970  Biso   1.000  O
  O11      1.0000 0.67331  0.74910  0.83030  Biso   1.000  O
  O12      1.0000 0.32669  0.74910  0.16970  Biso   1.000  O
  O13      1.0000 0.82669  0.75090  0.16970  Biso   1.000  O
  O14      1.0000 0.17331  0.75090  0.83030  Biso   1.000  O
  O15      1.0000 0.32669  0.25090  0.16970  Biso   1.000  O
  O16      1.0000 0.67331  0.25090  0.83030  Biso   1.000  O
  O17      1.0000 0.06431  0.44529  0.99890  Biso   1.000  O
  O18      1.0000 0.93569  0.44529  0.00110  Biso   1.000  O
  O19      1.0000 0.56431  0.94529  0.99890  Biso   1.000  O
  O20      1.0000 0.43569  0.94529  0.00110  Biso   1.000  O
  O21      1.0000 0.93569  0.55471  0.00110  Biso   1.000  O
  O22      1.0000 0.06431  0.55471  0.99890  Biso   1.000  O
  O23      1.0000 0.43569  0.05471  0.00110  Biso   1.000  O
  O24      1.0000 0.56431  0.05471  0.99890  Biso   1.000  O
  O25      1.0000 0.99173  0.44494  0.81350  Biso   1.000  O
  O26      1.0000 0.00827  0.44494  0.18650  Biso   1.000  O
  O27      1.0000 0.49173  0.94494  0.81350  Biso   1.000  O
  O28      1.0000 0.50827  0.94494  0.18650  Biso   1.000  O
  O29      1.0000 0.00827  0.55506  0.18650  Biso   1.000  O
  O30      1.0000 0.99173  0.55506  0.81350  Biso   1.000  O
  O31      1.0000 0.50827  0.05506  0.18650  Biso   1.000  O
  O32      1.0000 0.49173  0.05506  0.81350  Biso   1.000  O
  O33      1.0000 0.28032  0.33157  0.97760  Biso   1.000  O
  O34      1.0000 0.71968  0.33157  0.02240  Biso   1.000  O
  O35      1.0000 0.78032  0.83157  0.97760  Biso   1.000  O
  O36      1.0000 0.21968  0.83157  0.02240  Biso   1.000  O
  O37      1.0000 0.71968  0.66843  0.02240  Biso   1.000  O
  O38      1.0000 0.28032  0.66843  0.97760  Biso   1.000  O
  O39      1.0000 0.21968  0.16843  0.02240  Biso   1.000  O
  O40      1.0000 0.78032  0.16843  0.97760  Biso   1.000  O
  O41      1.0000 0.26380  0.27308  0.79180  Biso   1.000  O
  O42      1.0000 0.73620  0.27308  0.20820  Biso   1.000  O
  O43      1.0000 0.76380  0.77308  0.79180  Biso   1.000  O
  O44      1.0000 0.23620  0.77308  0.20820  Biso   1.000  O
  O45      1.0000 0.73620  0.72692  0.20820  Biso   1.000  O
  O46      1.0000 0.26380  0.72692  0.79180  Biso   1.000  O
  O47      1.0000 0.23620  0.22692  0.20820  Biso   1.000  O
  O48      1.0000 0.76380  0.22692  0.79180  Biso   1.000  O
  O49      1.0000 0.27416  0.32893  0.30930  Biso   1.000  O
  O50      1.0000 0.72584  0.32893  0.69070  Biso   1.000  O
  O51      1.0000 0.77416  0.82893  0.30930  Biso   1.000  O
  O52      1.0000 0.22584  0.82893  0.69070  Biso   1.000  O
  O53      1.0000 0.72584  0.67107  0.69070  Biso   1.000  O
  O54      1.0000 0.27416  0.67107  0.30930  Biso   1.000  O
  O55      1.0000 0.22584  0.17107  0.69070  Biso   1.000  O
  O56      1.0000 0.77416  0.17107  0.30930  Biso   1.000  O
  O57      1.0000 0.31040  0.40600  0.29100  Biso   1.000  O
  O58      1.0000 0.68960  0.40600  0.70900  Biso   1.000  O
  O59      1.0000 0.81040  0.90600  0.29100  Biso   1.000  O
  O60      1.0000 0.18960  0.90600  0.70900  Biso   1.000  O
  O61      1.0000 0.68960  0.59400  0.70900  Biso   1.000  O
  O62      1.0000 0.31040  0.59400  0.29100  Biso   1.000  O
  O63      1.0000 0.18960  0.09400  0.70900  Biso   1.000  O
  O64      1.0000 0.81040  0.09400  0.29100  Biso   1.000  O
  O65      1.0000 0.10516  0.50000  0.31100  Biso   1.000  O
  O66      1.0000 0.89484  0.50000  0.68900  Biso   1.000  O
  O67      1.0000 0.60516  0.00000  0.31100  Biso   1.000  O
  O68      1.0000 0.39484  0.00000  0.68900  Biso   1.000  O
  N1       1.0000 0.00000  0.28764  0.50000  Biso   1.000  N
  N2       1.0000 0.50000  0.78764  0.50000  Biso   1.000  N
  N3       1.0000 0.00000  0.71236  0.50000  Biso   1.000  N
  N4       1.0000 0.50000  0.21236  0.50000  Biso   1.000  N
  H1       1.0000 0.00000  0.25380  0.50000  Biso   1.000  H
  H2       1.0000 0.50000  0.75380  0.50000  Biso   1.000  H
  H3       1.0000 0.00000  0.74620  0.50000  Biso   1.000  H
  H4       1.0000 0.50000  0.24620  0.50000  Biso   1.000  H
  N5       1.0000 0.31780  0.50000  0.77370  Biso   1.000  N
  N6       1.0000 0.68220  0.50000  0.22630  Biso   1.000  N
  N7       1.0000 0.81780  0.00000  0.77370  Biso   1.000  N
  N8       1.0000 0.18220  0.00000  0.22630  Biso   1.000  N
  H5       1.0000 0.33540  0.50000  0.86600  Biso   1.000  H
  H6       1.0000 0.66460  0.50000  0.13400  Biso   1.000  H
  H7       1.0000 0.83540  0.00000  0.86600  Biso   1.000  H
  H8       1.0000 0.16460  0.00000  0.13400  Biso   1.000  H
  N9       1.0000 0.12310  0.50660  0.56830  Biso   1.000  N
  N10      1.0000 0.87690  0.50660  0.43170  Biso   1.000  N
  N11      1.0000 0.62310  0.00660  0.56830  Biso   1.000  N
  N12      1.0000 0.37690  0.00660  0.43170  Biso   1.000  N
  N13      1.0000 0.87690  0.49340  0.43170  Biso   1.000  N
  N14      1.0000 0.12310  0.49340  0.56830  Biso   1.000  N
  N15      1.0000 0.37690  0.99340  0.43170  Biso   1.000  N
  N16      1.0000 0.62310  0.99340  0.56830  Biso   1.000  N
  C1       1.0000 0.03307  0.31334  0.62330  Biso   1.000  C
  C2       1.0000 0.96693  0.31334  0.37670  Biso   1.000  C
  C3       1.0000 0.53307  0.81334  0.62330  Biso   1.000  C
  C4       1.0000 0.46693  0.81334  0.37670  Biso   1.000  C
  C5       1.0000 0.96693  0.68666  0.37670  Biso   1.000  C
  C6       1.0000 0.03307  0.68666  0.62330  Biso   1.000  C
  C7       1.0000 0.46693  0.18666  0.37670  Biso   1.000  C
  C8       1.0000 0.53307  0.18666  0.62330  Biso   1.000  C
  C9       1.0000 0.07941  0.29067  0.69520  Biso   1.000  C
  C10      1.0000 0.92059  0.29067  0.30480  Biso   1.000  C
  C11      1.0000 0.57941  0.79067  0.69520  Biso   1.000  C
  C12      1.0000 0.42059  0.79067  0.30480  Biso   1.000  C
  C13      1.0000 0.92059  0.70933  0.30480  Biso   1.000  C
  C14      1.0000 0.07941  0.70933  0.69520  Biso   1.000  C
  C15      1.0000 0.42059  0.20933  0.30480  Biso   1.000  C
  C16      1.0000 0.57941  0.20933  0.69520  Biso   1.000  C
  H9       1.0000 0.08870  0.26020  0.65680  Biso   1.000  H
  H10      1.0000 0.91130  0.26020  0.34320  Biso   1.000  H
  H11      1.0000 0.58870  0.76020  0.65680  Biso   1.000  H
  H12      1.0000 0.41130  0.76020  0.34320  Biso   1.000  H
  H13      1.0000 0.91130  0.73980  0.34320  Biso   1.000  H
  H14      1.0000 0.08870  0.73980  0.65680  Biso   1.000  H
  H15      1.0000 0.41130  0.23980  0.34320  Biso   1.000  H
  H16      1.0000 0.58870  0.23980  0.65680  Biso   1.000  H
  C17      1.0000 0.11193  0.31266  0.82290  Biso   1.000  C
  C18      1.0000 0.88807  0.31266  0.17710  Biso   1.000  C
  C19      1.0000 0.61193  0.81266  0.82290  Biso   1.000  C
  C20      1.0000 0.38807  0.81266  0.17710  Biso   1.000  C
  C21      1.0000 0.88807  0.68734  0.17710  Biso   1.000  C
  C22      1.0000 0.11193  0.68734  0.82290  Biso   1.000  C
  C23      1.0000 0.38807  0.18734  0.17710  Biso   1.000  C
  C24      1.0000 0.61193  0.18734  0.82290  Biso   1.000  C
  C25      1.0000 0.09829  0.35786  0.88150  Biso   1.000  C
  C26      1.0000 0.90171  0.35786  0.11850  Biso   1.000  C
  C27      1.0000 0.59829  0.85786  0.88150  Biso   1.000  C
  C28      1.0000 0.40171  0.85786  0.11850  Biso   1.000  C
  C29      1.0000 0.90171  0.64214  0.11850  Biso   1.000  C
  C30      1.0000 0.09829  0.64214  0.88150  Biso   1.000  C
  C31      1.0000 0.40171  0.14214  0.11850  Biso   1.000  C
  C32      1.0000 0.59829  0.14214  0.88150  Biso   1.000  C
  H17      1.0000 0.12000  0.37270  0.96740  Biso   1.000  H
  H18      1.0000 0.88000  0.37270  0.03260  Biso   1.000  H
  H19      1.0000 0.62000  0.87270  0.96740  Biso   1.000  H
  H20      1.0000 0.38000  0.87270  0.03260  Biso   1.000  H
  H21      1.0000 0.88000  0.62730  0.03260  Biso   1.000  H
  H22      1.0000 0.12000  0.62730  0.96740  Biso   1.000  H
  H23      1.0000 0.38000  0.12730  0.03260  Biso   1.000  H
  H24      1.0000 0.62000  0.12730  0.96740  Biso   1.000  H
  C33      1.0000 0.05174  0.38117  0.81140  Biso   1.000  C
  C34      1.0000 0.94826  0.38117  0.18860  Biso   1.000  C
  C35      1.0000 0.55174  0.88117  0.81140  Biso   1.000  C
  C36      1.0000 0.44826  0.88117  0.18860  Biso   1.000  C
  C37      1.0000 0.94826  0.61883  0.18860  Biso   1.000  C
  C38      1.0000 0.05174  0.61883  0.81140  Biso   1.000  C
  C39      1.0000 0.44826  0.11883  0.18860  Biso   1.000  C
  C40      1.0000 0.55174  0.11883  0.81140  Biso   1.000  C
  C41      1.0000 0.01979  0.35890  0.68120  Biso   1.000  C
  C42      1.0000 0.98021  0.35890  0.31880  Biso   1.000  C
  C43      1.0000 0.51979  0.85890  0.68120  Biso   1.000  C
  C44      1.0000 0.48021  0.85890  0.31880  Biso   1.000  C
  C45      1.0000 0.98021  0.64110  0.31880  Biso   1.000  C
  C46      1.0000 0.01979  0.64110  0.68120  Biso   1.000  C
  C47      1.0000 0.48021  0.14110  0.31880  Biso   1.000  C
  C48      1.0000 0.51979  0.14110  0.68120  Biso   1.000  C
  H25      1.0000 0.98920  0.37490  0.63280  Biso   1.000  H
  H26      1.0000 0.01080  0.37490  0.36720  Biso   1.000  H
  H27      1.0000 0.48920  0.87490  0.63280  Biso   1.000  H
  H28      1.0000 0.51080  0.87490  0.36720  Biso   1.000  H
  H29      1.0000 0.01080  0.62510  0.36720  Biso   1.000  H
  H30      1.0000 0.98920  0.62510  0.63280  Biso   1.000  H
  H31      1.0000 0.51080  0.12510  0.36720  Biso   1.000  H
  H32      1.0000 0.48920  0.12510  0.63280  Biso   1.000  H
  C49      1.0000 0.16248  0.28787  0.89500  Biso   1.000  C
  C50      1.0000 0.83752  0.28787  0.10500  Biso   1.000  C
  C51      1.0000 0.66248  0.78787  0.89500  Biso   1.000  C
  C52      1.0000 0.33752  0.78787  0.10500  Biso   1.000  C
  C53      1.0000 0.83752  0.71213  0.10500  Biso   1.000  C
  C54      1.0000 0.16248  0.71213  0.89500  Biso   1.000  C
  C55      1.0000 0.33752  0.21213  0.10500  Biso   1.000  C
  C56      1.0000 0.66248  0.21213  0.89500  Biso   1.000  C
  C57      1.0000 0.03480  0.42763  0.87890  Biso   1.000  C
  C58      1.0000 0.96520  0.42763  0.12110  Biso   1.000  C
  C59      1.0000 0.53480  0.92763  0.87890  Biso   1.000  C
  C60      1.0000 0.46520  0.92763  0.12110  Biso   1.000  C
  C61      1.0000 0.96520  0.57237  0.12110  Biso   1.000  C
  C62      1.0000 0.03480  0.57237  0.87890  Biso   1.000  C
  C63      1.0000 0.46520  0.07237  0.12110  Biso   1.000  C
  C64      1.0000 0.53480  0.07237  0.87890  Biso   1.000  C
  C65      1.0000 0.30550  0.44995  0.70890  Biso   1.000  C
  C66      1.0000 0.69450  0.44995  0.29110  Biso   1.000  C
  C67      1.0000 0.80550  0.94995  0.70890  Biso   1.000  C
  C68      1.0000 0.19450  0.94995  0.29110  Biso   1.000  C
  C69      1.0000 0.69450  0.55005  0.29110  Biso   1.000  C
  C70      1.0000 0.30550  0.55005  0.70890  Biso   1.000  C
  C71      1.0000 0.19450  0.05005  0.29110  Biso   1.000  C
  C72      1.0000 0.80550  0.05005  0.70890  Biso   1.000  C
  C73      1.0000 0.29781  0.41049  0.79940  Biso   1.000  C
  C74      1.0000 0.70219  0.41049  0.20060  Biso   1.000  C
  C75      1.0000 0.79781  0.91049  0.79940  Biso   1.000  C
  C76      1.0000 0.20219  0.91049  0.20060  Biso   1.000  C
  C77      1.0000 0.70219  0.58951  0.20060  Biso   1.000  C
  C78      1.0000 0.29781  0.58951  0.79940  Biso   1.000  C
  C79      1.0000 0.20219  0.08951  0.20060  Biso   1.000  C
  C80      1.0000 0.79781  0.08951  0.79940  Biso   1.000  C
  H33      1.0000 0.30050  0.41830  0.89680  Biso   1.000  H
  H34      1.0000 0.69950  0.41830  0.10320  Biso   1.000  H
  H35      1.0000 0.80050  0.91830  0.89680  Biso   1.000  H
  H36      1.0000 0.19950  0.91830  0.10320  Biso   1.000  H
  H37      1.0000 0.69950  0.58170  0.10320  Biso   1.000  H
  H38      1.0000 0.30050  0.58170  0.89680  Biso   1.000  H
  H39      1.0000 0.19950  0.08170  0.10320  Biso   1.000  H
  H40      1.0000 0.80050  0.08170  0.89680  Biso   1.000  H
  C81      1.0000 0.28609  0.35911  0.74720  Biso   1.000  C
  C82      1.0000 0.71391  0.35911  0.25280  Biso   1.000  C
  C83      1.0000 0.78609  0.85911  0.74720  Biso   1.000  C
  C84      1.0000 0.21391  0.85911  0.25280  Biso   1.000  C
  C85      1.0000 0.71391  0.64089  0.25280  Biso   1.000  C
  C86      1.0000 0.28609  0.64089  0.74720  Biso   1.000  C
  C87      1.0000 0.21391  0.14089  0.25280  Biso   1.000  C
  C88      1.0000 0.78609  0.14089  0.74720  Biso   1.000  C
  C89      1.0000 0.28221  0.34720  0.60160  Biso   1.000  C
  C90      1.0000 0.71779  0.34720  0.39840  Biso   1.000  C
  C91      1.0000 0.78221  0.84720  0.60160  Biso   1.000  C
  C92      1.0000 0.21779  0.84720  0.39840  Biso   1.000  C
  C93      1.0000 0.71779  0.65280  0.39840  Biso   1.000  C
  C94      1.0000 0.28221  0.65280  0.60160  Biso   1.000  C
  C95      1.0000 0.21779  0.15280  0.39840  Biso   1.000  C
  C96      1.0000 0.78221  0.15280  0.60160  Biso   1.000  C
  H41      1.0000 0.27410  0.31330  0.56520  Biso   1.000  H
  H42      1.0000 0.72590  0.31330  0.43480  Biso   1.000  H
  H43      1.0000 0.77410  0.81330  0.56520  Biso   1.000  H
  H44      1.0000 0.22590  0.81330  0.43480  Biso   1.000  H
  H45      1.0000 0.72590  0.68670  0.43480  Biso   1.000  H
  H46      1.0000 0.27410  0.68670  0.56520  Biso   1.000  H
  H47      1.0000 0.22590  0.18670  0.43480  Biso   1.000  H
  H48      1.0000 0.77410  0.18670  0.56520  Biso   1.000  H
  C97      1.0000 0.29050  0.38630  0.51140  Biso   1.000  C
  C98      1.0000 0.70950  0.38630  0.48860  Biso   1.000  C
  C99      1.0000 0.79050  0.88630  0.51140  Biso   1.000  C
  C100     1.0000 0.20950  0.88630  0.48860  Biso   1.000  C
  C101     1.0000 0.70950  0.61370  0.48860  Biso   1.000  C
  C102     1.0000 0.29050  0.61370  0.51140  Biso   1.000  C
  C103     1.0000 0.20950  0.11370  0.48860  Biso   1.000  C
  C104     1.0000 0.79050  0.11370  0.51140  Biso   1.000  C
  C105     1.0000 0.30300  0.43737  0.56470  Biso   1.000  C
  C106     1.0000 0.69700  0.43737  0.43530  Biso   1.000  C
  C107     1.0000 0.80300  0.93737  0.56470  Biso   1.000  C
  C108     1.0000 0.19700  0.93737  0.43530  Biso   1.000  C
  C109     1.0000 0.69700  0.56263  0.43530  Biso   1.000  C
  C110     1.0000 0.30300  0.56263  0.56470  Biso   1.000  C
  C111     1.0000 0.19700  0.06263  0.43530  Biso   1.000  C
  C112     1.0000 0.80300  0.06263  0.56470  Biso   1.000  C
  H49      1.0000 0.30960  0.46300  0.50390  Biso   1.000  H
  H50      1.0000 0.69040  0.46300  0.49610  Biso   1.000  H
  H51      1.0000 0.80960  0.96300  0.50390  Biso   1.000  H
  H52      1.0000 0.19040  0.96300  0.49610  Biso   1.000  H
  H53      1.0000 0.69040  0.53700  0.49610  Biso   1.000  H
  H54      1.0000 0.30960  0.53700  0.50390  Biso   1.000  H
  H55      1.0000 0.19040  0.03700  0.49610  Biso   1.000  H
  H56      1.0000 0.80960  0.03700  0.50390  Biso   1.000  H
  C113     1.0000 0.27629  0.31812  0.84660  Biso   1.000  C
  C114     1.0000 0.72371  0.31812  0.15340  Biso   1.000  C
  C115     1.0000 0.77629  0.81812  0.84660  Biso   1.000  C
  C116     1.0000 0.22371  0.81812  0.15340  Biso   1.000  C
  C117     1.0000 0.72371  0.68188  0.15340  Biso   1.000  C
  C118     1.0000 0.27629  0.68188  0.84660  Biso   1.000  C
  C119     1.0000 0.22371  0.18188  0.15340  Biso   1.000  C
  C120     1.0000 0.77629  0.18188  0.84660  Biso   1.000  C
  C121     1.0000 0.28630  0.37329  0.35270  Biso   1.000  C
  C122     1.0000 0.71370  0.37329  0.64730  Biso   1.000  C
  C123     1.0000 0.78630  0.87329  0.35270  Biso   1.000  C
  C124     1.0000 0.21370  0.87329  0.64730  Biso   1.000  C
  C125     1.0000 0.71370  0.62671  0.64730  Biso   1.000  C
  C126     1.0000 0.28630  0.62671  0.35270  Biso   1.000  C
  C127     1.0000 0.21370  0.12671  0.64730  Biso   1.000  C
  C128     1.0000 0.78630  0.12671  0.35270  Biso   1.000  C
  C129     1.0000 0.09180  0.50000  0.42610  Biso   1.000  C
  C130     1.0000 0.90820  0.50000  0.57390  Biso   1.000  C
  C131     1.0000 0.59180  0.00000  0.42610  Biso   1.000  C
  C132     1.0000 0.40820  0.00000  0.57390  Biso   1.000  C
  C133     1.0000 0.10860  0.50000  0.69440  Biso   1.000  C
  C134     1.0000 0.89140  0.50000  0.30560  Biso   1.000  C
  C135     1.0000 0.60860  0.00000  0.69440  Biso   1.000  C
  C136     1.0000 0.39140  0.00000  0.30560  Biso   1.000  C
  C137     1.0000 0.17440  0.52170  0.58900  Biso   1.000  C
  C138     1.0000 0.82560  0.52170  0.41100  Biso   1.000  C
  C139     1.0000 0.67440  0.02170  0.58900  Biso   1.000  C
  C140     1.0000 0.32560  0.02170  0.41100  Biso   1.000  C
  C141     1.0000 0.82560  0.47830  0.41100  Biso   1.000  C
  C142     1.0000 0.17440  0.47830  0.58900  Biso   1.000  C
  C143     1.0000 0.32560  0.97830  0.41100  Biso   1.000  C
  C144     1.0000 0.67440  0.97830  0.58900  Biso   1.000  C
  O69      1.0000 0.28070  0.41240  0.26240  Biso   1.000  O
  O70      1.0000 0.71930  0.41240  0.73760  Biso   1.000  O
  O71      1.0000 0.78070  0.91240  0.26240  Biso   1.000  O
  O72      1.0000 0.21930  0.91240  0.73760  Biso   1.000  O
  O73      1.0000 0.71930  0.58760  0.73760  Biso   1.000  O
  O74      1.0000 0.28070  0.58760  0.26240  Biso   1.000  O
  O75      1.0000 0.21930  0.08760  0.73760  Biso   1.000  O
  O76      1.0000 0.78070  0.08760  0.26240  Biso   1.000  O
  N17      1.0000 0.11800  0.47510  0.55900  Biso   1.000  N
  N18      1.0000 0.88200  0.47510  0.44100  Biso   1.000  N
  N19      1.0000 0.61800  0.97510  0.55900  Biso   1.000  N
  N20      1.0000 0.38200  0.97510  0.44100  Biso   1.000  N
  N21      1.0000 0.88200  0.52490  0.44100  Biso   1.000  N
  N22      1.0000 0.11800  0.52490  0.55900  Biso   1.000  N
  N23      1.0000 0.38200  0.02490  0.44100  Biso   1.000  N
  N24      1.0000 0.61800  0.02490  0.55900  Biso   1.000  N
  C145     1.0000 0.09920  0.48340  0.67800  Biso   1.000  C
  C146     1.0000 0.90080  0.48340  0.32200  Biso   1.000  C
  C147     1.0000 0.59920  0.98340  0.67800  Biso   1.000  C
  C148     1.0000 0.40080  0.98340  0.32200  Biso   1.000  C
  C149     1.0000 0.90080  0.51660  0.32200  Biso   1.000  C
  C150     1.0000 0.09920  0.51660  0.67800  Biso   1.000  C
  C151     1.0000 0.40080  0.01660  0.32200  Biso   1.000  C
  C152     1.0000 0.59920  0.01660  0.67800  Biso   1.000  C
  C153     1.0000 0.14200  0.42510  0.55000  Biso   1.000  C
  C154     1.0000 0.85800  0.42510  0.45000  Biso   1.000  C
  C155     1.0000 0.64200  0.92510  0.55000  Biso   1.000  C
  C156     1.0000 0.35800  0.92510  0.45000  Biso   1.000  C
  C157     1.0000 0.85800  0.57490  0.45000  Biso   1.000  C
  C158     1.0000 0.14200  0.57490  0.55000  Biso   1.000  C
  C159     1.0000 0.35800  0.07490  0.45000  Biso   1.000  C
  C160     1.0000 0.64200  0.07490  0.55000  Biso   1.000  C
