data_image0
_cell_length_a       5.704
_cell_length_b       6.819
_cell_length_c       24.823
_cell_angle_alpha    90
_cell_angle_beta     90
_cell_angle_gamma    90

_symmetry_space_group_name_H-M    "P 1"
_symmetry_int_tables_number       1

loop_
  _symmetry_equiv_pos_as_xyz
  'x, y, z'

loop_
  _atom_site_label
  _atom_site_occupancy
  _atom_site_fract_x
  _atom_site_fract_y
  _atom_site_fract_z
  _atom_site_thermal_displace_type
  _atom_site_B_iso_or_equiv
  _atom_site_type_symbol
  C1       1.0000 0.32840  0.41290  0.87230  Biso   1.000  C
  C2       1.0000 0.17160  0.58710  0.37230  Biso   1.000  C
  C3       1.0000 0.67160  0.91290  0.62770  Biso   1.000  C
  C4       1.0000 0.82840  0.08710  0.12770  Biso   1.000  C
  H1       1.0000 0.49650  0.44230  0.87360  Biso   1.000  H
  H2       1.0000 0.00350  0.55770  0.37360  Biso   1.000  H
  H3       1.0000 0.50350  0.94230  0.62640  Biso   1.000  H
  H4       1.0000 0.99650  0.05770  0.12640  Biso   1.000  H
  C5       1.0000 0.27230  0.34240  0.81583  Biso   1.000  C
  C6       1.0000 0.22770  0.65760  0.31583  Biso   1.000  C
  C7       1.0000 0.72770  0.84240  0.68417  Biso   1.000  C
  C8       1.0000 0.77230  0.15760  0.18417  Biso   1.000  C
  H5       1.0000 0.10970  0.30110  0.81420  Biso   1.000  H
  H6       1.0000 0.39030  0.69890  0.31420  Biso   1.000  H
  H7       1.0000 0.89030  0.80110  0.68580  Biso   1.000  H
  H8       1.0000 0.60970  0.19890  0.18580  Biso   1.000  H
  H9       1.0000 0.36980  0.23010  0.80720  Biso   1.000  H
  H10      1.0000 0.13020  0.76990  0.30720  Biso   1.000  H
  H11      1.0000 0.63020  0.73010  0.69280  Biso   1.000  H
  H12      1.0000 0.86980  0.26990  0.19280  Biso   1.000  H
  C9       1.0000 0.31450  0.50420  0.77464  Biso   1.000  C
  C10      1.0000 0.18550  0.49580  0.27464  Biso   1.000  C
  C11      1.0000 0.68550  0.00420  0.72536  Biso   1.000  C
  C12      1.0000 0.81450  0.99580  0.22536  Biso   1.000  C
  H13      1.0000 0.48100  0.53250  0.77280  Biso   1.000  H
  H14      1.0000 0.01900  0.46750  0.27280  Biso   1.000  H
  H15      1.0000 0.51900  0.03250  0.72720  Biso   1.000  H
  H16      1.0000 0.98100  0.96750  0.22720  Biso   1.000  H
  H17      1.0000 0.26470  0.45930  0.73940  Biso   1.000  H
  H18      1.0000 0.23530  0.54070  0.23940  Biso   1.000  H
  H19      1.0000 0.73530  0.95930  0.76060  Biso   1.000  H
  H20      1.0000 0.76470  0.04070  0.26060  Biso   1.000  H
  C13      1.0000 0.18350  0.68900  0.78885  Biso   1.000  C
  C14      1.0000 0.31650  0.31100  0.28885  Biso   1.000  C
  C15      1.0000 0.81650  0.18900  0.71115  Biso   1.000  C
  C16      1.0000 0.68350  0.81100  0.21115  Biso   1.000  C
  H21      1.0000 0.01630  0.66470  0.78650  Biso   1.000  H
  H22      1.0000 0.48370  0.33530  0.28650  Biso   1.000  H
  H23      1.0000 0.98370  0.16470  0.71350  Biso   1.000  H
  H24      1.0000 0.51630  0.83530  0.21350  Biso   1.000  H
  H25      1.0000 0.22270  0.79090  0.76310  Biso   1.000  H
  H26      1.0000 0.27730  0.20910  0.26310  Biso   1.000  H
  H27      1.0000 0.77730  0.29090  0.73690  Biso   1.000  H
  H28      1.0000 0.72270  0.70910  0.23690  Biso   1.000  H
  C17      1.0000 0.24360  0.75900  0.84545  Biso   1.000  C
  C18      1.0000 0.25640  0.24100  0.34545  Biso   1.000  C
  C19      1.0000 0.75640  0.25900  0.65455  Biso   1.000  C
  C20      1.0000 0.74360  0.74100  0.15455  Biso   1.000  C
  H29      1.0000 0.40740  0.79690  0.84690  Biso   1.000  H
  H30      1.0000 0.09260  0.20310  0.34690  Biso   1.000  H
  H31      1.0000 0.59260  0.29690  0.65310  Biso   1.000  H
  H32      1.0000 0.90740  0.70310  0.15310  Biso   1.000  H
  H33      1.0000 0.14960  0.87320  0.85420  Biso   1.000  H
  H34      1.0000 0.35040  0.12680  0.35420  Biso   1.000  H
  H35      1.0000 0.85040  0.37320  0.64580  Biso   1.000  H
  H36      1.0000 0.64960  0.62680  0.14580  Biso   1.000  H
  C21      1.0000 0.19800  0.59890  0.88642  Biso   1.000  C
  C22      1.0000 0.30200  0.40110  0.38642  Biso   1.000  C
  C23      1.0000 0.80200  0.09890  0.61358  Biso   1.000  C
  C24      1.0000 0.69800  0.90110  0.11358  Biso   1.000  C
  H37      1.0000 0.03000  0.56900  0.88540  Biso   1.000  H
  H38      1.0000 0.47000  0.43100  0.38540  Biso   1.000  H
  H39      1.0000 0.97000  0.06900  0.61460  Biso   1.000  H
  H40      1.0000 0.53000  0.93100  0.11460  Biso   1.000  H
  Cl1      1.0000 0.26572  0.09330  0.02474  Biso   1.000  Cl
  Cl2      1.0000 0.23428  0.90670  0.52474  Biso   1.000  Cl
  Cl3      1.0000 0.73428  0.59330  0.47526  Biso   1.000  Cl
  Cl4      1.0000 0.76572  0.40670  0.97526  Biso   1.000  Cl
  Cl5      1.0000 0.26008  0.55471  0.06844  Biso   1.000  Cl
  Cl6      1.0000 0.23992  0.44529  0.56844  Biso   1.000  Cl
  Cl7      1.0000 0.73992  0.05471  0.43156  Biso   1.000  Cl
  Cl8      1.0000 0.76008  0.94529  0.93156  Biso   1.000  Cl
  Cu1      1.0000 0.26675  0.40155  0.98667  Biso   1.000  Cu
  Cu2      1.0000 0.23325  0.59845  0.48667  Biso   1.000  Cu
  Cu3      1.0000 0.73325  0.90155  0.51333  Biso   1.000  Cu
  Cu4      1.0000 0.76675  0.09845  0.01333  Biso   1.000  Cu
  N1       1.0000 0.27890  0.26860  0.91465  Biso   1.000  N
  N2       1.0000 0.22110  0.73140  0.41465  Biso   1.000  N
  N3       1.0000 0.72110  0.76860  0.58535  Biso   1.000  N
  N4       1.0000 0.77890  0.23140  0.08535  Biso   1.000  N
  H41      1.0000 0.39150  0.17610  0.91480  Biso   1.000  H
  H42      1.0000 0.10850  0.82390  0.41480  Biso   1.000  H
  H43      1.0000 0.60850  0.67610  0.58520  Biso   1.000  H
  H44      1.0000 0.89150  0.32390  0.08520  Biso   1.000  H
  H45      1.0000 0.14080  0.20950  0.90800  Biso   1.000  H
  H46      1.0000 0.35920  0.79050  0.40800  Biso   1.000  H
  H47      1.0000 0.85920  0.70950  0.59200  Biso   1.000  H
  H48      1.0000 0.64080  0.29050  0.09200  Biso   1.000  H
  N5       1.0000 0.25840  0.64970  0.94253  Biso   1.000  N
  N6       1.0000 0.24160  0.35030  0.44253  Biso   1.000  N
  N7       1.0000 0.74160  0.14970  0.55747  Biso   1.000  N
  N8       1.0000 0.75840  0.85030  0.05747  Biso   1.000  N
  H49      1.0000 0.15080  0.73270  0.95610  Biso   1.000  H
  H50      1.0000 0.34920  0.26730  0.45610  Biso   1.000  H
  H51      1.0000 0.84920  0.23270  0.54390  Biso   1.000  H
  H52      1.0000 0.65080  0.76730  0.04390  Biso   1.000  H
  H53      1.0000 0.39920  0.70910  0.94360  Biso   1.000  H
  H54      1.0000 0.10080  0.29090  0.44360  Biso   1.000  H
  H55      1.0000 0.60080  0.20910  0.55640  Biso   1.000  H
  H56      1.0000 0.89920  0.79090  0.05640  Biso   1.000  H
