data_image0
_cell_length_a       12.8579
_cell_length_b       14.746
_cell_length_c       13.8823
_cell_angle_alpha    90
_cell_angle_beta     98.669
_cell_angle_gamma    90

_symmetry_space_group_name_H-M    "P 1"
_symmetry_int_tables_number       1

loop_
  _symmetry_equiv_pos_as_xyz
  'x, y, z'

loop_
  _atom_site_label
  _atom_site_occupancy
  _atom_site_fract_x
  _atom_site_fract_y
  _atom_site_fract_z
  _atom_site_thermal_displace_type
  _atom_site_B_iso_or_equiv
  _atom_site_type_symbol
  Cu1      1.0000 0.43013  0.22090  0.37125  Biso   1.000  Cu
  Cu2      1.0000 0.06987  0.72090  0.12875  Biso   1.000  Cu
  Cu3      1.0000 0.56987  0.77910  0.62875  Biso   1.000  Cu
  Cu4      1.0000 0.93013  0.27910  0.87125  Biso   1.000  Cu
  Cl1      1.0000 0.34572  0.08249  0.38971  Biso   1.000  Cl
  Cl2      1.0000 0.15428  0.58249  0.11029  Biso   1.000  Cl
  Cl3      1.0000 0.65428  0.91751  0.61029  Biso   1.000  Cl
  Cl4      1.0000 0.84572  0.41751  0.88971  Biso   1.000  Cl
  N1       1.0000 0.36770  0.23120  0.23150  Biso   1.000  N
  N2       1.0000 0.13230  0.73120  0.26850  Biso   1.000  N
  N3       1.0000 0.63230  0.76880  0.76850  Biso   1.000  N
  N4       1.0000 0.86770  0.26880  0.73150  Biso   1.000  N
  Cl5      1.0000 0.58188  0.28628  0.33467  Biso   1.000  Cl
  Cl6      1.0000 0.91812  0.78628  0.16533  Biso   1.000  Cl
  Cl7      1.0000 0.41812  0.71372  0.66533  Biso   1.000  Cl
  Cl8      1.0000 0.08188  0.21372  0.83467  Biso   1.000  Cl
  C1       1.0000 0.35160  0.30660  0.17910  Biso   1.000  C
  C2       1.0000 0.14840  0.80660  0.32090  Biso   1.000  C
  C3       1.0000 0.64840  0.69340  0.82090  Biso   1.000  C
  C4       1.0000 0.85160  0.19340  0.67910  Biso   1.000  C
  N5       1.0000 0.31840  0.28490  0.08460  Biso   1.000  N
  N6       1.0000 0.18160  0.78490  0.41540  Biso   1.000  N
  N7       1.0000 0.68160  0.71510  0.91540  Biso   1.000  N
  N8       1.0000 0.81840  0.21510  0.58460  Biso   1.000  N
  C5       1.0000 0.31530  0.19260  0.07750  Biso   1.000  C
  C6       1.0000 0.18470  0.69260  0.42250  Biso   1.000  C
  C7       1.0000 0.68470  0.80740  0.92250  Biso   1.000  C
  C8       1.0000 0.81530  0.30740  0.57750  Biso   1.000  C
  H1       1.0000 0.29620  0.15890  0.02100  Biso   1.000  H
  H2       1.0000 0.20380  0.65890  0.47900  Biso   1.000  H
  H3       1.0000 0.70380  0.84110  0.97900  Biso   1.000  H
  H4       1.0000 0.79620  0.34110  0.52100  Biso   1.000  H
  C9       1.0000 0.34510  0.15940  0.16820  Biso   1.000  C
  C10      1.0000 0.15490  0.65940  0.33180  Biso   1.000  C
  C11      1.0000 0.65490  0.84060  0.83180  Biso   1.000  C
  C12      1.0000 0.84510  0.34060  0.66820  Biso   1.000  C
  H5       1.0000 0.34970  0.09830  0.18500  Biso   1.000  H
  H6       1.0000 0.15030  0.59830  0.31500  Biso   1.000  H
  H7       1.0000 0.65030  0.90170  0.81500  Biso   1.000  H
  H8       1.0000 0.84970  0.40170  0.68500  Biso   1.000  H
  C13      1.0000 0.36580  0.39950  0.21640  Biso   1.000  C
  C14      1.0000 0.13420  0.89950  0.28360  Biso   1.000  C
  C15      1.0000 0.63420  0.60050  0.78360  Biso   1.000  C
  C16      1.0000 0.86580  0.10050  0.71640  Biso   1.000  C
  H9       1.0000 0.37400  0.39860  0.28630  Biso   1.000  H
  H10      1.0000 0.12600  0.89860  0.21370  Biso   1.000  H
  H11      1.0000 0.62600  0.60140  0.71370  Biso   1.000  H
  H12      1.0000 0.87400  0.10140  0.78630  Biso   1.000  H
  H13      1.0000 0.30530  0.43520  0.19130  Biso   1.000  H
  H14      1.0000 0.19470  0.93520  0.30870  Biso   1.000  H
  H15      1.0000 0.69470  0.56480  0.80870  Biso   1.000  H
  H16      1.0000 0.80530  0.06480  0.69130  Biso   1.000  H
  H17      1.0000 0.42740  0.42550  0.19600  Biso   1.000  H
  H18      1.0000 0.07260  0.92550  0.30400  Biso   1.000  H
  H19      1.0000 0.57260  0.57450  0.80400  Biso   1.000  H
  H20      1.0000 0.92740  0.07450  0.69600  Biso   1.000  H
  C17      1.0000 0.29120  0.34650  0.00230  Biso   1.000  C
  C18      1.0000 0.20880  0.84650  0.49770  Biso   1.000  C
  C19      1.0000 0.70880  0.65350  0.99770  Biso   1.000  C
  C20      1.0000 0.79120  0.15350  0.50230  Biso   1.000  C
  H21      1.0000 0.28720  0.40800  0.02640  Biso   1.000  H
  H22      1.0000 0.21280  0.90800  0.47360  Biso   1.000  H
  H23      1.0000 0.71280  0.59200  0.97360  Biso   1.000  H
  H24      1.0000 0.78720  0.09200  0.52640  Biso   1.000  H
  H25      1.0000 0.22250  0.33050  0.96750  Biso   1.000  H
  H26      1.0000 0.27750  0.83050  0.53250  Biso   1.000  H
  H27      1.0000 0.77750  0.66950  0.03250  Biso   1.000  H
  H28      1.0000 0.72250  0.16950  0.46750  Biso   1.000  H
  C21      1.0000 0.37150  0.34250  0.93310  Biso   1.000  C
  C22      1.0000 0.12850  0.84250  0.56690  Biso   1.000  C
  C23      1.0000 0.62850  0.65750  0.06690  Biso   1.000  C
  C24      1.0000 0.87150  0.15750  0.43310  Biso   1.000  C
  C25      1.0000 0.47100  0.37890  0.95790  Biso   1.000  C
  C26      1.0000 0.02900  0.87890  0.54210  Biso   1.000  C
  C27      1.0000 0.52900  0.62110  0.04210  Biso   1.000  C
  C28      1.0000 0.97100  0.12110  0.45790  Biso   1.000  C
  H29      1.0000 0.48890  0.40830  0.01740  Biso   1.000  H
  H30      1.0000 0.01110  0.90830  0.48260  Biso   1.000  H
  H31      1.0000 0.51110  0.59170  0.98260  Biso   1.000  H
  H32      1.0000 0.98890  0.09170  0.51740  Biso   1.000  H
  C29      1.0000 0.54410  0.37190  0.89460  Biso   1.000  C
  C30      1.0000 0.95590  0.87190  0.60540  Biso   1.000  C
  C31      1.0000 0.45590  0.62810  0.10540  Biso   1.000  C
  C32      1.0000 0.04410  0.12810  0.39460  Biso   1.000  C
  H33      1.0000 0.61070  0.39670  0.91240  Biso   1.000  H
  H34      1.0000 0.88930  0.89670  0.58760  Biso   1.000  H
  H35      1.0000 0.38930  0.60330  0.08760  Biso   1.000  H
  H36      1.0000 0.11070  0.10330  0.41240  Biso   1.000  H
  C33      1.0000 0.52070  0.32920  0.80620  Biso   1.000  C
  C34      1.0000 0.97930  0.82920  0.69380  Biso   1.000  C
  C35      1.0000 0.47930  0.67080  0.19380  Biso   1.000  C
  C36      1.0000 0.02070  0.17080  0.30620  Biso   1.000  C
  C37      1.0000 0.42190  0.29460  0.78170  Biso   1.000  C
  C38      1.0000 0.07810  0.79460  0.71830  Biso   1.000  C
  C39      1.0000 0.57810  0.70540  0.21830  Biso   1.000  C
  C40      1.0000 0.92190  0.20540  0.28170  Biso   1.000  C
  H37      1.0000 0.40400  0.26640  0.72150  Biso   1.000  H
  H38      1.0000 0.09600  0.76640  0.77850  Biso   1.000  H
  H39      1.0000 0.59600  0.73360  0.27850  Biso   1.000  H
  H40      1.0000 0.90400  0.23360  0.22150  Biso   1.000  H
  C41      1.0000 0.34710  0.30040  0.84420  Biso   1.000  C
  C42      1.0000 0.15290  0.80040  0.65580  Biso   1.000  C
  C43      1.0000 0.65290  0.69960  0.15580  Biso   1.000  C
  C44      1.0000 0.84710  0.19960  0.34420  Biso   1.000  C
  H41      1.0000 0.28050  0.27570  0.82580  Biso   1.000  H
  H42      1.0000 0.21950  0.77570  0.67420  Biso   1.000  H
  H43      1.0000 0.71950  0.72430  0.17420  Biso   1.000  H
  H44      1.0000 0.78050  0.22430  0.32580  Biso   1.000  H
  C45      1.0000 0.60480  0.32200  0.74180  Biso   1.000  C
  C46      1.0000 0.89520  0.82200  0.75820  Biso   1.000  C
  C47      1.0000 0.39520  0.67800  0.25820  Biso   1.000  C
  C48      1.0000 0.10480  0.17800  0.24180  Biso   1.000  C
  H45      1.0000 0.62220  0.38240  0.72150  Biso   1.000  H
  H46      1.0000 0.87780  0.88240  0.77850  Biso   1.000  H
  H47      1.0000 0.37780  0.61760  0.27850  Biso   1.000  H
  H48      1.0000 0.12220  0.11760  0.22150  Biso   1.000  H
  H49      1.0000 0.66770  0.29610  0.77900  Biso   1.000  H
  H50      1.0000 0.83230  0.79610  0.72100  Biso   1.000  H
  H51      1.0000 0.33230  0.70390  0.22100  Biso   1.000  H
  H52      1.0000 0.16770  0.20390  0.27900  Biso   1.000  H
  N9       1.0000 0.57240  0.26610  0.65500  Biso   1.000  N
  N10      1.0000 0.92760  0.76610  0.84500  Biso   1.000  N
  N11      1.0000 0.42760  0.73390  0.34500  Biso   1.000  N
  N12      1.0000 0.07240  0.23390  0.15500  Biso   1.000  N
  C49      1.0000 0.52000  0.29380  0.56830  Biso   1.000  C
  C50      1.0000 0.98000  0.79380  0.93170  Biso   1.000  C
  C51      1.0000 0.48000  0.70620  0.43170  Biso   1.000  C
  C52      1.0000 0.02000  0.20620  0.06830  Biso   1.000  C
  N13      1.0000 0.49300  0.22220  0.51200  Biso   1.000  N
  N14      1.0000 0.00700  0.72220  0.98800  Biso   1.000  N
  N15      1.0000 0.50700  0.77780  0.48800  Biso   1.000  N
  N16      1.0000 0.99300  0.27780  0.01200  Biso   1.000  N
  C53      1.0000 0.53100  0.14720  0.56450  Biso   1.000  C
  C54      1.0000 0.96900  0.64720  0.93550  Biso   1.000  C
  C55      1.0000 0.46900  0.85280  0.43550  Biso   1.000  C
  C56      1.0000 0.03100  0.35280  0.06450  Biso   1.000  C
  H53      1.0000 0.52490  0.08750  0.54270  Biso   1.000  H
  H54      1.0000 0.97510  0.58750  0.95730  Biso   1.000  H
  H55      1.0000 0.47510  0.91250  0.45730  Biso   1.000  H
  H56      1.0000 0.02490  0.41250  0.04270  Biso   1.000  H
  C57      1.0000 0.57830  0.17450  0.65240  Biso   1.000  C
  C58      1.0000 0.92170  0.67450  0.84760  Biso   1.000  C
  C59      1.0000 0.42170  0.82550  0.34760  Biso   1.000  C
  C60      1.0000 0.07830  0.32550  0.15240  Biso   1.000  C
  H57      1.0000 0.60950  0.13720  0.70260  Biso   1.000  H
  H58      1.0000 0.89050  0.63720  0.79740  Biso   1.000  H
  H59      1.0000 0.39050  0.86280  0.29740  Biso   1.000  H
  H60      1.0000 0.10950  0.36280  0.20260  Biso   1.000  H
  C61      1.0000 0.49870  0.38960  0.54280  Biso   1.000  C
  C62      1.0000 0.00130  0.88960  0.95720  Biso   1.000  C
  C63      1.0000 0.50130  0.61040  0.45720  Biso   1.000  C
  C64      1.0000 0.99870  0.11040  0.04280  Biso   1.000  C
  H61      1.0000 0.56400  0.42100  0.54240  Biso   1.000  H
  H62      1.0000 0.93600  0.92100  0.95760  Biso   1.000  H
  H63      1.0000 0.43600  0.57900  0.45760  Biso   1.000  H
  H64      1.0000 0.06400  0.07900  0.04240  Biso   1.000  H
  H65      1.0000 0.46100  0.41690  0.59000  Biso   1.000  H
  H66      1.0000 0.03900  0.91690  0.91000  Biso   1.000  H
  H67      1.0000 0.53900  0.58310  0.41000  Biso   1.000  H
  H68      1.0000 0.96100  0.08310  0.09000  Biso   1.000  H
  H69      1.0000 0.45720  0.39330  0.47940  Biso   1.000  H
  H70      1.0000 0.04280  0.89330  0.02060  Biso   1.000  H
  H71      1.0000 0.54280  0.60670  0.52060  Biso   1.000  H
  H72      1.0000 0.95720  0.10670  0.97940  Biso   1.000  H
  O1       1.0000 0.29200  0.31210  0.40480  Biso   1.000  O
  O2       1.0000 0.20800  0.81210  0.09520  Biso   1.000  O
  O3       1.0000 0.70800  0.68790  0.59520  Biso   1.000  O
  O4       1.0000 0.79200  0.18790  0.90480  Biso   1.000  O
  C65      1.0000 0.24590  0.29440  0.47140  Biso   1.000  C
  C66      1.0000 0.25410  0.79440  0.02860  Biso   1.000  C
  C67      1.0000 0.75410  0.70560  0.52860  Biso   1.000  C
  C68      1.0000 0.74590  0.20560  0.97140  Biso   1.000  C
  H73      1.0000 0.27090  0.24460  0.50910  Biso   1.000  H
  H74      1.0000 0.22910  0.74460  0.99090  Biso   1.000  H
  H75      1.0000 0.72910  0.75540  0.49090  Biso   1.000  H
  H76      1.0000 0.77090  0.25540  0.00910  Biso   1.000  H
  N17      1.0000 0.16450  0.33640  0.49790  Biso   1.000  N
  N18      1.0000 0.33550  0.83640  0.00210  Biso   1.000  N
  N19      1.0000 0.83550  0.66360  0.50210  Biso   1.000  N
  N20      1.0000 0.66450  0.16360  0.99790  Biso   1.000  N
  C69      1.0000 0.12030  0.40910  0.43750  Biso   1.000  C
  C70      1.0000 0.37970  0.90910  0.06250  Biso   1.000  C
  C71      1.0000 0.87970  0.59090  0.56250  Biso   1.000  C
  C72      1.0000 0.62030  0.09090  0.93750  Biso   1.000  C
  H77      1.0000 0.16420  0.46180  0.44960  Biso   1.000  H
  H78      1.0000 0.33580  0.96180  0.05040  Biso   1.000  H
  H79      1.0000 0.83580  0.53820  0.55040  Biso   1.000  H
  H80      1.0000 0.66420  0.03820  0.94960  Biso   1.000  H
  H81      1.0000 0.05120  0.42260  0.45180  Biso   1.000  H
  H82      1.0000 0.44880  0.92260  0.04820  Biso   1.000  H
  H83      1.0000 0.94880  0.57740  0.54820  Biso   1.000  H
  H84      1.0000 0.55120  0.07740  0.95180  Biso   1.000  H
  H85      1.0000 0.11570  0.39180  0.37030  Biso   1.000  H
  H86      1.0000 0.38430  0.89180  0.12970  Biso   1.000  H
  H87      1.0000 0.88430  0.60820  0.62970  Biso   1.000  H
  H88      1.0000 0.61570  0.10820  0.87030  Biso   1.000  H
  C73      1.0000 0.11720  0.30880  0.58370  Biso   1.000  C
  C74      1.0000 0.38280  0.80880  0.91630  Biso   1.000  C
  C75      1.0000 0.88280  0.69120  0.41630  Biso   1.000  C
  C76      1.0000 0.61720  0.19120  0.08370  Biso   1.000  C
  H89      1.0000 0.14400  0.25040  0.60580  Biso   1.000  H
  H90      1.0000 0.35600  0.75040  0.89420  Biso   1.000  H
  H91      1.0000 0.85600  0.74960  0.39420  Biso   1.000  H
  H92      1.0000 0.64400  0.24960  0.10580  Biso   1.000  H
  H93      1.0000 0.04220  0.30560  0.56650  Biso   1.000  H
  H94      1.0000 0.45780  0.80560  0.93350  Biso   1.000  H
  H95      1.0000 0.95780  0.69440  0.43350  Biso   1.000  H
  H96      1.0000 0.54220  0.19440  0.06650  Biso   1.000  H
  H97      1.0000 0.13480  0.35250  0.63490  Biso   1.000  H
  H98      1.0000 0.36520  0.85250  0.86510  Biso   1.000  H
  H99      1.0000 0.86520  0.64750  0.36510  Biso   1.000  H
  H100     1.0000 0.63480  0.14750  0.13490  Biso   1.000  H
  C77      1.0000 0.28210  0.04880  0.80360  Biso   1.000  C
  C78      1.0000 0.21790  0.54880  0.69640  Biso   1.000  C
  C79      1.0000 0.71790  0.95120  0.19640  Biso   1.000  C
  C80      1.0000 0.78210  0.45120  0.30360  Biso   1.000  C
  H101     1.0000 0.21550  0.07050  0.80950  Biso   1.000  H
  H102     1.0000 0.28450  0.57050  0.69050  Biso   1.000  H
  H103     1.0000 0.78450  0.92950  0.19050  Biso   1.000  H
  H104     1.0000 0.71550  0.42950  0.30950  Biso   1.000  H
  N21      1.0000 0.29960  0.03530  0.72400  Biso   1.000  N
  N22      1.0000 0.20040  0.53530  0.77600  Biso   1.000  N
  N23      1.0000 0.70040  0.96470  0.27600  Biso   1.000  N
  N24      1.0000 0.79960  0.46470  0.22400  Biso   1.000  N
  C81      1.0000 0.38720  0.98340  0.70400  Biso   1.000  C
  C82      1.0000 0.11280  0.48340  0.79600  Biso   1.000  C
  C83      1.0000 0.61280  0.01660  0.29600  Biso   1.000  C
  C84      1.0000 0.88720  0.51660  0.20400  Biso   1.000  C
  H105     1.0000 0.44480  0.99110  0.75600  Biso   1.000  H
  H106     1.0000 0.05520  0.49110  0.74400  Biso   1.000  H
  H107     1.0000 0.55520  0.00890  0.24400  Biso   1.000  H
  H108     1.0000 0.94480  0.50890  0.25600  Biso   1.000  H
  H109     1.0000 0.40780  0.00370  0.64390  Biso   1.000  H
  H110     1.0000 0.09220  0.50370  0.85610  Biso   1.000  H
  H111     1.0000 0.59220  0.99630  0.35610  Biso   1.000  H
  H112     1.0000 0.90780  0.49630  0.14390  Biso   1.000  H
  H113     1.0000 0.36800  0.92050  0.69850  Biso   1.000  H
  H114     1.0000 0.13200  0.42050  0.80150  Biso   1.000  H
  H115     1.0000 0.63200  0.07950  0.30150  Biso   1.000  H
  H116     1.0000 0.86800  0.57950  0.19850  Biso   1.000  H
  C85      1.0000 0.22530  0.07190  0.64110  Biso   1.000  C
  C86      1.0000 0.27470  0.57190  0.85890  Biso   1.000  C
  C87      1.0000 0.77470  0.92810  0.35890  Biso   1.000  C
  C88      1.0000 0.72530  0.42810  0.14110  Biso   1.000  C
  H117     1.0000 0.22460  0.03310  0.58550  Biso   1.000  H
  H118     1.0000 0.27540  0.53310  0.91450  Biso   1.000  H
  H119     1.0000 0.77540  0.96690  0.41450  Biso   1.000  H
  H120     1.0000 0.72460  0.46690  0.08550  Biso   1.000  H
  H121     1.0000 0.24710  0.13170  0.62550  Biso   1.000  H
  H122     1.0000 0.25290  0.63170  0.87450  Biso   1.000  H
  H123     1.0000 0.75290  0.86830  0.37450  Biso   1.000  H
  H124     1.0000 0.74710  0.36830  0.12550  Biso   1.000  H
  H125     1.0000 0.15590  0.07470  0.65860  Biso   1.000  H
  H126     1.0000 0.34410  0.57470  0.84140  Biso   1.000  H
  H127     1.0000 0.84410  0.92530  0.34140  Biso   1.000  H
  H128     1.0000 0.65590  0.42530  0.15860  Biso   1.000  H
  O5       1.0000 0.34200  0.03740  0.87800  Biso   1.000  O
  O6       1.0000 0.15800  0.53740  0.62200  Biso   1.000  O
  O7       1.0000 0.65800  0.96260  0.12200  Biso   1.000  O
  O8       1.0000 0.84200  0.46260  0.37800  Biso   1.000  O
