data_image0
_cell_length_a       7.3
_cell_length_b       10.734
_cell_length_c       12.585
_cell_angle_alpha    68.43
_cell_angle_beta     84.92
_cell_angle_gamma    73.97

_symmetry_space_group_name_H-M    "P 1"
_symmetry_int_tables_number       1

loop_
  _symmetry_equiv_pos_as_xyz
  'x, y, z'

loop_
  _atom_site_label
  _atom_site_occupancy
  _atom_site_fract_x
  _atom_site_fract_y
  _atom_site_fract_z
  _atom_site_thermal_displace_type
  _atom_site_B_iso_or_equiv
  _atom_site_type_symbol
  Cu1      1.0000 0.25250  0.91881  0.18747  Biso   1.000  Cu
  Cu2      1.0000 0.74750  0.08119  0.81253  Biso   1.000  Cu
  Mn1      1.0000 0.25350  0.43567  0.14792  Biso   1.000  Mn
  Mn2      1.0000 0.74650  0.56433  0.85208  Biso   1.000  Mn
  O1       1.0000 0.25340  0.02040  0.28800  Biso   1.000  O
  O2       1.0000 0.74660  0.97960  0.71200  Biso   1.000  O
  O3       1.0000 0.26380  0.23030  0.27280  Biso   1.000  O
  O4       1.0000 0.73620  0.76970  0.72720  Biso   1.000  O
  O5       1.0000 0.27340  0.31070  0.04030  Biso   1.000  O
  O6       1.0000 0.72660  0.68930  0.95970  Biso   1.000  O
  O7       1.0000 0.25380  0.73050  0.28780  Biso   1.000  O
  O8       1.0000 0.74620  0.26950  0.71220  Biso   1.000  O
  O9       1.0000 0.24670  0.53300  0.27240  Biso   1.000  O
  O10      1.0000 0.75330  0.46700  0.72760  Biso   1.000  O
  O11      1.0000 0.23080  0.65530  0.03960  Biso   1.000  O
  O12      1.0000 0.76920  0.34470  0.96040  Biso   1.000  O
  O13      1.0000 0.55460  0.39900  0.13860  Biso   1.000  O
  O14      1.0000 0.44540  0.60100  0.86140  Biso   1.000  O
  O15      1.0000 0.94950  0.48130  0.13740  Biso   1.000  O
  O16      1.0000 0.05050  0.51870  0.86260  Biso   1.000  O
  N1       1.0000 0.26310  0.08710  0.06670  Biso   1.000  N
  N2       1.0000 0.73690  0.91290  0.93330  Biso   1.000  N
  N3       1.0000 0.23750  0.85710  0.06580  Biso   1.000  N
  N4       1.0000 0.76250  0.14290  0.93420  Biso   1.000  N
  C1       1.0000 0.26250  0.14290  0.23070  Biso   1.000  C
  C2       1.0000 0.73750  0.85710  0.76930  Biso   1.000  C
  C3       1.0000 0.26670  0.18830  0.09890  Biso   1.000  C
  C4       1.0000 0.73330  0.81170  0.90110  Biso   1.000  C
  C5       1.0000 0.24610  0.65720  0.23090  Biso   1.000  C
  C6       1.0000 0.75390  0.34280  0.76910  Biso   1.000  C
  C7       1.0000 0.23740  0.72720  0.09850  Biso   1.000  C
  C8       1.0000 0.76260  0.27280  0.90150  Biso   1.000  C
  C9       1.0000 0.25940  0.08430  0.95640  Biso   1.000  C
  C10      1.0000 0.74060  0.91570  0.04360  Biso   1.000  C
  C11      1.0000 0.27600  0.18830  0.85400  Biso   1.000  C
  C12      1.0000 0.72400  0.81170  0.14600  Biso   1.000  C
  C13      1.0000 0.26500  0.16900  0.75340  Biso   1.000  C
  C14      1.0000 0.73500  0.83100  0.24660  Biso   1.000  C
  C15      1.0000 0.23800  0.04780  0.75120  Biso   1.000  C
  C16      1.0000 0.76200  0.95220  0.24880  Biso   1.000  C
  C17      1.0000 0.22600  0.94020  0.85320  Biso   1.000  C
  C18      1.0000 0.77400  0.05980  0.14680  Biso   1.000  C
  C19      1.0000 0.23940  0.95540  0.95620  Biso   1.000  C
  C20      1.0000 0.76060  0.04460  0.04380  Biso   1.000  C
  S1       1.0000 0.71830  0.39870  0.42610  Biso   1.000  S
  S2       1.0000 0.28170  0.60130  0.57390  Biso   1.000  S
  S3       1.0000 0.80400  0.22700  0.42080  Biso   1.000  S
  S4       1.0000 0.19600  0.77300  0.57920  Biso   1.000  S
  O17      1.0000 0.71400  0.46400  0.29800  Biso   1.000  O
  O18      1.0000 0.28600  0.53600  0.70200  Biso   1.000  O
  O19      1.0000 0.80400  0.27000  0.29900  Biso   1.000  O
  O20      1.0000 0.19600  0.73000  0.70100  Biso   1.000  O
  C21      1.0000 0.58500  0.26200  0.46600  Biso   1.000  C
  C22      1.0000 0.41500  0.73800  0.53400  Biso   1.000  C
  C23      1.0000 0.94400  0.31100  0.46400  Biso   1.000  C
  C24      1.0000 0.05600  0.68900  0.53600  Biso   1.000  C
  H1       1.0000 0.30370  0.27840  0.86670  Biso   1.000  H
  H2       1.0000 0.69630  0.72160  0.13330  Biso   1.000  H
  H3       1.0000 0.28360  0.25480  0.68080  Biso   1.000  H
  H4       1.0000 0.71640  0.74520  0.31920  Biso   1.000  H
  H5       1.0000 0.21640  0.02400  0.67970  Biso   1.000  H
  H6       1.0000 0.78360  0.97600  0.32030  Biso   1.000  H
  H7       1.0000 0.18570  0.85890  0.84330  Biso   1.000  H
  H8       1.0000 0.81430  0.14110  0.15670  Biso   1.000  H
  H9       1.0000 0.63270  0.41190  0.19900  Biso   1.000  H
  H10      1.0000 0.36730  0.58810  0.80100  Biso   1.000  H
  H11      1.0000 0.62660  0.36610  0.08620  Biso   1.000  H
  H12      1.0000 0.37340  0.63390  0.91380  Biso   1.000  H
