data_image0
_cell_length_a       19.0949
_cell_length_b       22.7667
_cell_length_c       13.3952
_cell_angle_alpha    90
_cell_angle_beta     113.185
_cell_angle_gamma    90

_symmetry_space_group_name_H-M    "P 1"
_symmetry_int_tables_number       1

loop_
  _symmetry_equiv_pos_as_xyz
  'x, y, z'

loop_
  _atom_site_label
  _atom_site_occupancy
  _atom_site_fract_x
  _atom_site_fract_y
  _atom_site_fract_z
  _atom_site_thermal_displace_type
  _atom_site_B_iso_or_equiv
  _atom_site_type_symbol
  Cu1      1.0000 0.49585  0.76335  0.55696  Biso   1.000  Cu
  Cu2      1.0000 0.99585  0.26335  0.55696  Biso   1.000  Cu
  Cu3      1.0000 0.50415  0.76335  0.94304  Biso   1.000  Cu
  Cu4      1.0000 0.00415  0.26335  0.94304  Biso   1.000  Cu
  Cu5      1.0000 0.50415  0.23665  0.44304  Biso   1.000  Cu
  Cu6      1.0000 0.00415  0.73665  0.44304  Biso   1.000  Cu
  Cu7      1.0000 0.49585  0.23665  0.05696  Biso   1.000  Cu
  Cu8      1.0000 0.99585  0.73665  0.05696  Biso   1.000  Cu
  Cu9      1.0000 0.50000  0.86874  0.75000  Biso   1.000  Cu
  Cu10     1.0000 0.00000  0.36874  0.75000  Biso   1.000  Cu
  Cu11     1.0000 0.50000  0.13126  0.25000  Biso   1.000  Cu
  Cu12     1.0000 0.00000  0.63126  0.25000  Biso   1.000  Cu
  N1       1.0000 0.46740  0.67755  0.54490  Biso   1.000  N
  N2       1.0000 0.96740  0.17755  0.54490  Biso   1.000  N
  N3       1.0000 0.53260  0.67755  0.95510  Biso   1.000  N
  N4       1.0000 0.03260  0.17755  0.95510  Biso   1.000  N
  N5       1.0000 0.53260  0.32245  0.45510  Biso   1.000  N
  N6       1.0000 0.03260  0.82245  0.45510  Biso   1.000  N
  N7       1.0000 0.46740  0.32245  0.04490  Biso   1.000  N
  N8       1.0000 0.96740  0.82245  0.04490  Biso   1.000  N
  N9       1.0000 0.40514  0.76713  0.41590  Biso   1.000  N
  N10      1.0000 0.90514  0.26713  0.41590  Biso   1.000  N
  N11      1.0000 0.59486  0.76713  0.08410  Biso   1.000  N
  N12      1.0000 0.09486  0.26713  0.08410  Biso   1.000  N
  N13      1.0000 0.59486  0.23287  0.58410  Biso   1.000  N
  N14      1.0000 0.09486  0.73287  0.58410  Biso   1.000  N
  N15      1.0000 0.40514  0.23287  0.91590  Biso   1.000  N
  N16      1.0000 0.90514  0.73287  0.91590  Biso   1.000  N
  N17      1.0000 0.57436  0.93534  0.80450  Biso   1.000  N
  N18      1.0000 0.07436  0.43534  0.80450  Biso   1.000  N
  N19      1.0000 0.42564  0.93534  0.69550  Biso   1.000  N
  N20      1.0000 0.92564  0.43534  0.69550  Biso   1.000  N
  N21      1.0000 0.42564  0.06466  0.19550  Biso   1.000  N
  N22      1.0000 0.92564  0.56466  0.19550  Biso   1.000  N
  N23      1.0000 0.57436  0.06466  0.30450  Biso   1.000  N
  N24      1.0000 0.07436  0.56466  0.30450  Biso   1.000  N
  O1       1.0000 0.51142  0.84794  0.56520  Biso   1.000  O
  O2       1.0000 0.01142  0.34794  0.56520  Biso   1.000  O
  O3       1.0000 0.48858  0.84794  0.93480  Biso   1.000  O
  O4       1.0000 0.98858  0.34794  0.93480  Biso   1.000  O
  O5       1.0000 0.48858  0.15206  0.43480  Biso   1.000  O
  O6       1.0000 0.98858  0.65206  0.43480  Biso   1.000  O
  O7       1.0000 0.51142  0.15206  0.06520  Biso   1.000  O
  O8       1.0000 0.01142  0.65206  0.06520  Biso   1.000  O
  O9       1.0000 0.62055  0.84719  0.54070  Biso   1.000  O
  O10      1.0000 0.12055  0.34719  0.54070  Biso   1.000  O
  O11      1.0000 0.37945  0.84719  0.95930  Biso   1.000  O
  O12      1.0000 0.87945  0.34719  0.95930  Biso   1.000  O
  O13      1.0000 0.37945  0.15281  0.45930  Biso   1.000  O
  O14      1.0000 0.87945  0.65281  0.45930  Biso   1.000  O
  O15      1.0000 0.62055  0.15281  0.04070  Biso   1.000  O
  O16      1.0000 0.12055  0.65281  0.04070  Biso   1.000  O
  O17      1.0000 0.57906  0.74621  0.69370  Biso   1.000  O
  O18      1.0000 0.07906  0.24621  0.69370  Biso   1.000  O
  O19      1.0000 0.42094  0.74621  0.80630  Biso   1.000  O
  O20      1.0000 0.92094  0.24621  0.80630  Biso   1.000  O
  O21      1.0000 0.42094  0.25379  0.30630  Biso   1.000  O
  O22      1.0000 0.92094  0.75379  0.30630  Biso   1.000  O
  O23      1.0000 0.57906  0.25379  0.19370  Biso   1.000  O
  O24      1.0000 0.07906  0.75379  0.19370  Biso   1.000  O
  O25      1.0000 0.57967  0.81169  0.81850  Biso   1.000  O
  O26      1.0000 0.07967  0.31169  0.81850  Biso   1.000  O
  O27      1.0000 0.42033  0.81169  0.68150  Biso   1.000  O
  O28      1.0000 0.92033  0.31169  0.68150  Biso   1.000  O
  O29      1.0000 0.42033  0.18831  0.18150  Biso   1.000  O
  O30      1.0000 0.92033  0.68831  0.18150  Biso   1.000  O
  O31      1.0000 0.57967  0.18831  0.31850  Biso   1.000  O
  O32      1.0000 0.07967  0.68831  0.31850  Biso   1.000  O
  O33      1.0000 0.57810  0.73880  0.46180  Biso   1.000  O
  O34      1.0000 0.07810  0.23880  0.46180  Biso   1.000  O
  O35      1.0000 0.42190  0.73880  0.03820  Biso   1.000  O
  O36      1.0000 0.92190  0.23880  0.03820  Biso   1.000  O
  O37      1.0000 0.42190  0.26120  0.53820  Biso   1.000  O
  O38      1.0000 0.92190  0.76120  0.53820  Biso   1.000  O
  O39      1.0000 0.57810  0.26120  0.96180  Biso   1.000  O
  O40      1.0000 0.07810  0.76120  0.96180  Biso   1.000  O
  H1       1.0000 0.55700  0.73700  0.38890  Biso   1.000  H
  H2       1.0000 0.05700  0.23700  0.38890  Biso   1.000  H
  H3       1.0000 0.44300  0.73700  0.11110  Biso   1.000  H
  H4       1.0000 0.94300  0.23700  0.11110  Biso   1.000  H
  H5       1.0000 0.44300  0.26300  0.61110  Biso   1.000  H
  H6       1.0000 0.94300  0.76300  0.61110  Biso   1.000  H
  H7       1.0000 0.55700  0.26300  0.88890  Biso   1.000  H
  H8       1.0000 0.05700  0.76300  0.88890  Biso   1.000  H
  H9       1.0000 0.61600  0.76400  0.46800  Biso   1.000  H
  H10      1.0000 0.11600  0.26400  0.46800  Biso   1.000  H
  H11      1.0000 0.38400  0.76400  0.03200  Biso   1.000  H
  H12      1.0000 0.88400  0.26400  0.03200  Biso   1.000  H
  H13      1.0000 0.38400  0.23600  0.53200  Biso   1.000  H
  H14      1.0000 0.88400  0.73600  0.53200  Biso   1.000  H
  H15      1.0000 0.61600  0.23600  0.96800  Biso   1.000  H
  H16      1.0000 0.11600  0.73600  0.96800  Biso   1.000  H
  C1       1.0000 0.50110  0.63365  0.61110  Biso   1.000  C
  C2       1.0000 0.00110  0.13365  0.61110  Biso   1.000  C
  C3       1.0000 0.49890  0.63365  0.88890  Biso   1.000  C
  C4       1.0000 0.99890  0.13365  0.88890  Biso   1.000  C
  C5       1.0000 0.49890  0.36635  0.38890  Biso   1.000  C
  C6       1.0000 0.99890  0.86635  0.38890  Biso   1.000  C
  C7       1.0000 0.50110  0.36635  0.11110  Biso   1.000  C
  C8       1.0000 0.00110  0.86635  0.11110  Biso   1.000  C
  H17      1.0000 0.54170  0.64200  0.67750  Biso   1.000  H
  H18      1.0000 0.04170  0.14200  0.67750  Biso   1.000  H
  H19      1.0000 0.45830  0.64200  0.82250  Biso   1.000  H
  H20      1.0000 0.95830  0.14200  0.82250  Biso   1.000  H
  H21      1.0000 0.45830  0.35800  0.32250  Biso   1.000  H
  H22      1.0000 0.95830  0.85800  0.32250  Biso   1.000  H
  H23      1.0000 0.54170  0.35800  0.17750  Biso   1.000  H
  H24      1.0000 0.04170  0.85800  0.17750  Biso   1.000  H
  C9       1.0000 0.47870  0.57570  0.58590  Biso   1.000  C
  C10      1.0000 0.97870  0.07570  0.58590  Biso   1.000  C
  C11      1.0000 0.52130  0.57570  0.91410  Biso   1.000  C
  C12      1.0000 0.02130  0.07570  0.91410  Biso   1.000  C
  C13      1.0000 0.52130  0.42430  0.41410  Biso   1.000  C
  C14      1.0000 0.02130  0.92430  0.41410  Biso   1.000  C
  C15      1.0000 0.47870  0.42430  0.08590  Biso   1.000  C
  C16      1.0000 0.97870  0.92430  0.08590  Biso   1.000  C
  H25      1.0000 0.50330  0.54560  0.63530  Biso   1.000  H
  H26      1.0000 0.00330  0.04560  0.63530  Biso   1.000  H
  H27      1.0000 0.49670  0.54560  0.86470  Biso   1.000  H
  H28      1.0000 0.99670  0.04560  0.86470  Biso   1.000  H
  H29      1.0000 0.49670  0.45440  0.36470  Biso   1.000  H
  H30      1.0000 0.99670  0.95440  0.36470  Biso   1.000  H
  H31      1.0000 0.50330  0.45440  0.13530  Biso   1.000  H
  H32      1.0000 0.00330  0.95440  0.13530  Biso   1.000  H
  C17      1.0000 0.42130  0.56250  0.49010  Biso   1.000  C
  C18      1.0000 0.92130  0.06250  0.49010  Biso   1.000  C
  C19      1.0000 0.57870  0.56250  0.00990  Biso   1.000  C
  C20      1.0000 0.07870  0.06250  0.00990  Biso   1.000  C
  C21      1.0000 0.57870  0.43750  0.50990  Biso   1.000  C
  C22      1.0000 0.07870  0.93750  0.50990  Biso   1.000  C
  C23      1.0000 0.42130  0.43750  0.99010  Biso   1.000  C
  C24      1.0000 0.92130  0.93750  0.99010  Biso   1.000  C
  H33      1.0000 0.40600  0.52330  0.47310  Biso   1.000  H
  H34      1.0000 0.90600  0.02330  0.47310  Biso   1.000  H
  H35      1.0000 0.59400  0.52330  0.02690  Biso   1.000  H
  H36      1.0000 0.09400  0.02330  0.02690  Biso   1.000  H
  H37      1.0000 0.59400  0.47670  0.52690  Biso   1.000  H
  H38      1.0000 0.09400  0.97670  0.52690  Biso   1.000  H
  H39      1.0000 0.40600  0.47670  0.97310  Biso   1.000  H
  H40      1.0000 0.90600  0.97670  0.97310  Biso   1.000  H
  C25      1.0000 0.38470  0.60730  0.41650  Biso   1.000  C
  C26      1.0000 0.88470  0.10730  0.41650  Biso   1.000  C
  C27      1.0000 0.61530  0.60730  0.08350  Biso   1.000  C
  C28      1.0000 0.11530  0.10730  0.08350  Biso   1.000  C
  C29      1.0000 0.61530  0.39270  0.58350  Biso   1.000  C
  C30      1.0000 0.11530  0.89270  0.58350  Biso   1.000  C
  C31      1.0000 0.38470  0.39270  0.91650  Biso   1.000  C
  C32      1.0000 0.88470  0.89270  0.91650  Biso   1.000  C
  C33      1.0000 0.32400  0.59970  0.31340  Biso   1.000  C
  C34      1.0000 0.82400  0.09970  0.31340  Biso   1.000  C
  C35      1.0000 0.67600  0.59970  0.18660  Biso   1.000  C
  C36      1.0000 0.17600  0.09970  0.18660  Biso   1.000  C
  C37      1.0000 0.67600  0.40030  0.68660  Biso   1.000  C
  C38      1.0000 0.17600  0.90030  0.68660  Biso   1.000  C
  C39      1.0000 0.32400  0.40030  0.81340  Biso   1.000  C
  C40      1.0000 0.82400  0.90030  0.81340  Biso   1.000  C
  H41      1.0000 0.30580  0.56150  0.29110  Biso   1.000  H
  H42      1.0000 0.80580  0.06150  0.29110  Biso   1.000  H
  H43      1.0000 0.69420  0.56150  0.20890  Biso   1.000  H
  H44      1.0000 0.19420  0.06150  0.20890  Biso   1.000  H
  H45      1.0000 0.69420  0.43850  0.70890  Biso   1.000  H
  H46      1.0000 0.19420  0.93850  0.70890  Biso   1.000  H
  H47      1.0000 0.30580  0.43850  0.79110  Biso   1.000  H
  H48      1.0000 0.80580  0.93850  0.79110  Biso   1.000  H
  C41      1.0000 0.29210  0.64430  0.24740  Biso   1.000  C
  C42      1.0000 0.79210  0.14430  0.24740  Biso   1.000  C
  C43      1.0000 0.70790  0.64430  0.25260  Biso   1.000  C
  C44      1.0000 0.20790  0.14430  0.25260  Biso   1.000  C
  C45      1.0000 0.70790  0.35570  0.75260  Biso   1.000  C
  C46      1.0000 0.20790  0.85570  0.75260  Biso   1.000  C
  C47      1.0000 0.29210  0.35570  0.74740  Biso   1.000  C
  C48      1.0000 0.79210  0.85570  0.74740  Biso   1.000  C
  H49      1.0000 0.25260  0.63690  0.17960  Biso   1.000  H
  H50      1.0000 0.75260  0.13690  0.17960  Biso   1.000  H
  H51      1.0000 0.74740  0.63690  0.32040  Biso   1.000  H
  H52      1.0000 0.24740  0.13690  0.32040  Biso   1.000  H
  H53      1.0000 0.74740  0.36310  0.82040  Biso   1.000  H
  H54      1.0000 0.24740  0.86310  0.82040  Biso   1.000  H
  H55      1.0000 0.25260  0.36310  0.67960  Biso   1.000  H
  H56      1.0000 0.75260  0.86310  0.67960  Biso   1.000  H
  C49      1.0000 0.31670  0.70380  0.27740  Biso   1.000  C
  C50      1.0000 0.81670  0.20380  0.27740  Biso   1.000  C
  C51      1.0000 0.68330  0.70380  0.22260  Biso   1.000  C
  C52      1.0000 0.18330  0.20380  0.22260  Biso   1.000  C
  C53      1.0000 0.68330  0.29620  0.72260  Biso   1.000  C
  C54      1.0000 0.18330  0.79620  0.72260  Biso   1.000  C
  C55      1.0000 0.31670  0.29620  0.77740  Biso   1.000  C
  C56      1.0000 0.81670  0.79620  0.77740  Biso   1.000  C
  C57      1.0000 0.28620  0.75390  0.21440  Biso   1.000  C
  C58      1.0000 0.78620  0.25390  0.21440  Biso   1.000  C
  C59      1.0000 0.71380  0.75390  0.28560  Biso   1.000  C
  C60      1.0000 0.21380  0.25390  0.28560  Biso   1.000  C
  C61      1.0000 0.71380  0.24610  0.78560  Biso   1.000  C
  C62      1.0000 0.21380  0.74610  0.78560  Biso   1.000  C
  C63      1.0000 0.28620  0.24610  0.71440  Biso   1.000  C
  C64      1.0000 0.78620  0.74610  0.71440  Biso   1.000  C
  H57      1.0000 0.24680  0.74990  0.14530  Biso   1.000  H
  H58      1.0000 0.74680  0.24990  0.14530  Biso   1.000  H
  H59      1.0000 0.75320  0.74990  0.35470  Biso   1.000  H
  H60      1.0000 0.25320  0.24990  0.35470  Biso   1.000  H
  H61      1.0000 0.75320  0.25010  0.85470  Biso   1.000  H
  H62      1.0000 0.25320  0.75010  0.85470  Biso   1.000  H
  H63      1.0000 0.24680  0.25010  0.64530  Biso   1.000  H
  H64      1.0000 0.74680  0.75010  0.64530  Biso   1.000  H
  C65      1.0000 0.31330  0.80800  0.25270  Biso   1.000  C
  C66      1.0000 0.81330  0.30800  0.25270  Biso   1.000  C
  C67      1.0000 0.68670  0.80800  0.24730  Biso   1.000  C
  C68      1.0000 0.18670  0.30800  0.24730  Biso   1.000  C
  C69      1.0000 0.68670  0.19200  0.74730  Biso   1.000  C
  C70      1.0000 0.18670  0.69200  0.74730  Biso   1.000  C
  C71      1.0000 0.31330  0.19200  0.75270  Biso   1.000  C
  C72      1.0000 0.81330  0.69200  0.75270  Biso   1.000  C
  H65      1.0000 0.29180  0.84170  0.21140  Biso   1.000  H
  H66      1.0000 0.79180  0.34170  0.21140  Biso   1.000  H
  H67      1.0000 0.70820  0.84170  0.28860  Biso   1.000  H
  H68      1.0000 0.20820  0.34170  0.28860  Biso   1.000  H
  H69      1.0000 0.70820  0.15830  0.78860  Biso   1.000  H
  H70      1.0000 0.20820  0.65830  0.78860  Biso   1.000  H
  H71      1.0000 0.29180  0.15830  0.71140  Biso   1.000  H
  H72      1.0000 0.79180  0.65830  0.71140  Biso   1.000  H
  C73      1.0000 0.37350  0.81310  0.35420  Biso   1.000  C
  C74      1.0000 0.87350  0.31310  0.35420  Biso   1.000  C
  C75      1.0000 0.62650  0.81310  0.14580  Biso   1.000  C
  C76      1.0000 0.12650  0.31310  0.14580  Biso   1.000  C
  C77      1.0000 0.62650  0.18690  0.64580  Biso   1.000  C
  C78      1.0000 0.12650  0.68690  0.64580  Biso   1.000  C
  C79      1.0000 0.37350  0.18690  0.85420  Biso   1.000  C
  C80      1.0000 0.87350  0.68690  0.85420  Biso   1.000  C
  H73      1.0000 0.39230  0.85080  0.37980  Biso   1.000  H
  H74      1.0000 0.89230  0.35080  0.37980  Biso   1.000  H
  H75      1.0000 0.60770  0.85080  0.12020  Biso   1.000  H
  H76      1.0000 0.10770  0.35080  0.12020  Biso   1.000  H
  H77      1.0000 0.60770  0.14920  0.62020  Biso   1.000  H
  H78      1.0000 0.10770  0.64920  0.62020  Biso   1.000  H
  H79      1.0000 0.39230  0.14920  0.87980  Biso   1.000  H
  H80      1.0000 0.89230  0.64920  0.87980  Biso   1.000  H
  C81      1.0000 0.37680  0.71300  0.37890  Biso   1.000  C
  C82      1.0000 0.87680  0.21300  0.37890  Biso   1.000  C
  C83      1.0000 0.62320  0.71300  0.12110  Biso   1.000  C
  C84      1.0000 0.12320  0.21300  0.12110  Biso   1.000  C
  C85      1.0000 0.62320  0.28700  0.62110  Biso   1.000  C
  C86      1.0000 0.12320  0.78700  0.62110  Biso   1.000  C
  C87      1.0000 0.37680  0.28700  0.87890  Biso   1.000  C
  C88      1.0000 0.87680  0.78700  0.87890  Biso   1.000  C
  C89      1.0000 0.41010  0.66493  0.44860  Biso   1.000  C
  C90      1.0000 0.91010  0.16493  0.44860  Biso   1.000  C
  C91      1.0000 0.58990  0.66493  0.05140  Biso   1.000  C
  C92      1.0000 0.08990  0.16493  0.05140  Biso   1.000  C
  C93      1.0000 0.58990  0.33507  0.55140  Biso   1.000  C
  C94      1.0000 0.08990  0.83507  0.55140  Biso   1.000  C
  C95      1.0000 0.41010  0.33507  0.94860  Biso   1.000  C
  C96      1.0000 0.91010  0.83507  0.94860  Biso   1.000  C
  C97      1.0000 0.64910  0.93375  0.86130  Biso   1.000  C
  C98      1.0000 0.14910  0.43375  0.86130  Biso   1.000  C
  C99      1.0000 0.35090  0.93375  0.63870  Biso   1.000  C
  C100     1.0000 0.85090  0.43375  0.63870  Biso   1.000  C
  C101     1.0000 0.35090  0.06625  0.13870  Biso   1.000  C
  C102     1.0000 0.85090  0.56625  0.13870  Biso   1.000  C
  C103     1.0000 0.64910  0.06625  0.36130  Biso   1.000  C
  C104     1.0000 0.14910  0.56625  0.36130  Biso   1.000  C
  H81      1.0000 0.67370  0.89720  0.87870  Biso   1.000  H
  H82      1.0000 0.17370  0.39720  0.87870  Biso   1.000  H
  H83      1.0000 0.32630  0.89720  0.62130  Biso   1.000  H
  H84      1.0000 0.82630  0.39720  0.62130  Biso   1.000  H
  H85      1.0000 0.32630  0.10280  0.12130  Biso   1.000  H
  H86      1.0000 0.82630  0.60280  0.12130  Biso   1.000  H
  H87      1.0000 0.67370  0.10280  0.37870  Biso   1.000  H
  H88      1.0000 0.17370  0.60280  0.37870  Biso   1.000  H
  C105     1.0000 0.69200  0.98490  0.89600  Biso   1.000  C
  C106     1.0000 0.19200  0.48490  0.89600  Biso   1.000  C
  C107     1.0000 0.30800  0.98490  0.60400  Biso   1.000  C
  C108     1.0000 0.80800  0.48490  0.60400  Biso   1.000  C
  C109     1.0000 0.30800  0.01510  0.10400  Biso   1.000  C
  C110     1.0000 0.80800  0.51510  0.10400  Biso   1.000  C
  C111     1.0000 0.69200  0.01510  0.39600  Biso   1.000  C
  C112     1.0000 0.19200  0.51510  0.39600  Biso   1.000  C
  H89      1.0000 0.74480  0.98230  0.93680  Biso   1.000  H
  H90      1.0000 0.24480  0.48230  0.93680  Biso   1.000  H
  H91      1.0000 0.25520  0.98230  0.56320  Biso   1.000  H
  H92      1.0000 0.75520  0.48230  0.56320  Biso   1.000  H
  H93      1.0000 0.25520  0.01770  0.06320  Biso   1.000  H
  H94      1.0000 0.75520  0.51770  0.06320  Biso   1.000  H
  H95      1.0000 0.74480  0.01770  0.43680  Biso   1.000  H
  H96      1.0000 0.24480  0.51770  0.43680  Biso   1.000  H
  C113     1.0000 0.65850  0.03820  0.87140  Biso   1.000  C
  C114     1.0000 0.15850  0.53820  0.87140  Biso   1.000  C
  C115     1.0000 0.34150  0.03820  0.62860  Biso   1.000  C
  C116     1.0000 0.84150  0.53820  0.62860  Biso   1.000  C
  C117     1.0000 0.34150  0.96180  0.12860  Biso   1.000  C
  C118     1.0000 0.84150  0.46180  0.12860  Biso   1.000  C
  C119     1.0000 0.65850  0.96180  0.37140  Biso   1.000  C
  C120     1.0000 0.15850  0.46180  0.37140  Biso   1.000  C
  H97      1.0000 0.68750  0.07250  0.89530  Biso   1.000  H
  H98      1.0000 0.18750  0.57250  0.89530  Biso   1.000  H
  H99      1.0000 0.31250  0.07250  0.60470  Biso   1.000  H
  H100     1.0000 0.81250  0.57250  0.60470  Biso   1.000  H
  H101     1.0000 0.31250  0.92750  0.10470  Biso   1.000  H
  H102     1.0000 0.81250  0.42750  0.10470  Biso   1.000  H
  H103     1.0000 0.68750  0.92750  0.39530  Biso   1.000  H
  H104     1.0000 0.18750  0.42750  0.39530  Biso   1.000  H
  C121     1.0000 0.58010  0.04172  0.80990  Biso   1.000  C
  C122     1.0000 0.08010  0.54172  0.80990  Biso   1.000  C
  C123     1.0000 0.41990  0.04172  0.69010  Biso   1.000  C
  C124     1.0000 0.91990  0.54172  0.69010  Biso   1.000  C
  C125     1.0000 0.41990  0.95828  0.19010  Biso   1.000  C
  C126     1.0000 0.91990  0.45828  0.19010  Biso   1.000  C
  C127     1.0000 0.58010  0.95828  0.30990  Biso   1.000  C
  C128     1.0000 0.08010  0.45828  0.30990  Biso   1.000  C
  C129     1.0000 0.53790  0.09580  0.77880  Biso   1.000  C
  C130     1.0000 0.03790  0.59580  0.77880  Biso   1.000  C
  C131     1.0000 0.46210  0.09580  0.72120  Biso   1.000  C
  C132     1.0000 0.96210  0.59580  0.72120  Biso   1.000  C
  C133     1.0000 0.46210  0.90420  0.22120  Biso   1.000  C
  C134     1.0000 0.96210  0.40420  0.22120  Biso   1.000  C
  C135     1.0000 0.53790  0.90420  0.27880  Biso   1.000  C
  C136     1.0000 0.03790  0.40420  0.27880  Biso   1.000  C
  H105     1.0000 0.56370  0.13180  0.79900  Biso   1.000  H
  H106     1.0000 0.06370  0.63180  0.79900  Biso   1.000  H
  H107     1.0000 0.43630  0.13180  0.70100  Biso   1.000  H
  H108     1.0000 0.93630  0.63180  0.70100  Biso   1.000  H
  H109     1.0000 0.43630  0.86820  0.20100  Biso   1.000  H
  H110     1.0000 0.93630  0.36820  0.20100  Biso   1.000  H
  H111     1.0000 0.56370  0.86820  0.29900  Biso   1.000  H
  H112     1.0000 0.06370  0.36820  0.29900  Biso   1.000  H
  C137     1.0000 0.54040  0.98872  0.77950  Biso   1.000  C
  C138     1.0000 0.04040  0.48872  0.77950  Biso   1.000  C
  C139     1.0000 0.45960  0.98872  0.72050  Biso   1.000  C
  C140     1.0000 0.95960  0.48872  0.72050  Biso   1.000  C
  C141     1.0000 0.45960  0.01128  0.22050  Biso   1.000  C
  C142     1.0000 0.95960  0.51128  0.22050  Biso   1.000  C
  C143     1.0000 0.54040  0.01128  0.27950  Biso   1.000  C
  C144     1.0000 0.04040  0.51128  0.27950  Biso   1.000  C
  C145     1.0000 0.56780  0.87288  0.55220  Biso   1.000  C
  C146     1.0000 0.06780  0.37288  0.55220  Biso   1.000  C
  C147     1.0000 0.43220  0.87288  0.94780  Biso   1.000  C
  C148     1.0000 0.93220  0.37288  0.94780  Biso   1.000  C
  C149     1.0000 0.43220  0.12712  0.44780  Biso   1.000  C
  C150     1.0000 0.93220  0.62712  0.44780  Biso   1.000  C
  C151     1.0000 0.56780  0.12712  0.05220  Biso   1.000  C
  C152     1.0000 0.06780  0.62712  0.05220  Biso   1.000  C
  C153     1.0000 0.56570  0.93778  0.54720  Biso   1.000  C
  C154     1.0000 0.06570  0.43778  0.54720  Biso   1.000  C
  C155     1.0000 0.43430  0.93778  0.95280  Biso   1.000  C
  C156     1.0000 0.93430  0.43778  0.95280  Biso   1.000  C
  C157     1.0000 0.43430  0.06222  0.45280  Biso   1.000  C
  C158     1.0000 0.93430  0.56222  0.45280  Biso   1.000  C
  C159     1.0000 0.56570  0.06222  0.04720  Biso   1.000  C
  C160     1.0000 0.06570  0.56222  0.04720  Biso   1.000  C
  H113     1.0000 0.61220  0.95830  0.57290  Biso   1.000  H
  H114     1.0000 0.11220  0.45830  0.57290  Biso   1.000  H
  H115     1.0000 0.38780  0.95830  0.92710  Biso   1.000  H
  H116     1.0000 0.88780  0.45830  0.92710  Biso   1.000  H
  H117     1.0000 0.38780  0.04170  0.42710  Biso   1.000  H
  H118     1.0000 0.88780  0.54170  0.42710  Biso   1.000  H
  H119     1.0000 0.61220  0.04170  0.07290  Biso   1.000  H
  H120     1.0000 0.11220  0.54170  0.07290  Biso   1.000  H
  C161     1.0000 0.50170  0.96852  0.50850  Biso   1.000  C
  C162     1.0000 0.00170  0.46852  0.50850  Biso   1.000  C
  C163     1.0000 0.49830  0.96852  0.99150  Biso   1.000  C
  C164     1.0000 0.99830  0.46852  0.99150  Biso   1.000  C
  C165     1.0000 0.49830  0.03148  0.49150  Biso   1.000  C
  C166     1.0000 0.99830  0.53148  0.49150  Biso   1.000  C
  C167     1.0000 0.50170  0.03148  0.00850  Biso   1.000  C
  C168     1.0000 0.00170  0.53148  0.00850  Biso   1.000  C
  H121     1.0000 0.45550  0.94820  0.49080  Biso   1.000  H
  H122     1.0000 0.95550  0.44820  0.49080  Biso   1.000  H
  H123     1.0000 0.54450  0.94820  0.00920  Biso   1.000  H
  H124     1.0000 0.04450  0.44820  0.00920  Biso   1.000  H
  H125     1.0000 0.54450  0.05180  0.50920  Biso   1.000  H
  H126     1.0000 0.04450  0.55180  0.50920  Biso   1.000  H
  H127     1.0000 0.45550  0.05180  0.99080  Biso   1.000  H
  H128     1.0000 0.95550  0.55180  0.99080  Biso   1.000  H
  C169     1.0000 0.60550  0.76806  0.78680  Biso   1.000  C
  C170     1.0000 0.10550  0.26806  0.78680  Biso   1.000  C
  C171     1.0000 0.39450  0.76806  0.71320  Biso   1.000  C
  C172     1.0000 0.89450  0.26806  0.71320  Biso   1.000  C
  C173     1.0000 0.39450  0.23194  0.21320  Biso   1.000  C
  C174     1.0000 0.89450  0.73194  0.21320  Biso   1.000  C
  C175     1.0000 0.60550  0.23194  0.28680  Biso   1.000  C
  C176     1.0000 0.10550  0.73194  0.28680  Biso   1.000  C
  C177     1.0000 0.67360  0.73914  0.86740  Biso   1.000  C
  C178     1.0000 0.17360  0.23914  0.86740  Biso   1.000  C
  C179     1.0000 0.32640  0.73914  0.63260  Biso   1.000  C
  C180     1.0000 0.82640  0.23914  0.63260  Biso   1.000  C
  C181     1.0000 0.32640  0.26086  0.13260  Biso   1.000  C
  C182     1.0000 0.82640  0.76086  0.13260  Biso   1.000  C
  C183     1.0000 0.67360  0.26086  0.36740  Biso   1.000  C
  C184     1.0000 0.17360  0.76086  0.36740  Biso   1.000  C
  H129     1.0000 0.68710  0.70170  0.85100  Biso   1.000  H
  H130     1.0000 0.18710  0.20170  0.85100  Biso   1.000  H
  H131     1.0000 0.31290  0.70170  0.64900  Biso   1.000  H
  H132     1.0000 0.81290  0.20170  0.64900  Biso   1.000  H
  H133     1.0000 0.31290  0.29830  0.14900  Biso   1.000  H
  H134     1.0000 0.81290  0.79830  0.14900  Biso   1.000  H
  H135     1.0000 0.68710  0.29830  0.35100  Biso   1.000  H
  H136     1.0000 0.18710  0.79830  0.35100  Biso   1.000  H
  C185     1.0000 0.71630  0.76331  0.96100  Biso   1.000  C
  C186     1.0000 0.21630  0.26331  0.96100  Biso   1.000  C
  C187     1.0000 0.28370  0.76331  0.53900  Biso   1.000  C
  C188     1.0000 0.78370  0.26331  0.53900  Biso   1.000  C
  C189     1.0000 0.28370  0.23669  0.03900  Biso   1.000  C
  C190     1.0000 0.78370  0.73669  0.03900  Biso   1.000  C
  C191     1.0000 0.71630  0.23669  0.46100  Biso   1.000  C
  C192     1.0000 0.21630  0.73669  0.46100  Biso   1.000  C
  H137     1.0000 0.70180  0.80030  0.97770  Biso   1.000  H
  H138     1.0000 0.20180  0.30030  0.97770  Biso   1.000  H
  H139     1.0000 0.29820  0.80030  0.52230  Biso   1.000  H
  H140     1.0000 0.79820  0.30030  0.52230  Biso   1.000  H
  H141     1.0000 0.29820  0.19970  0.02230  Biso   1.000  H
  H142     1.0000 0.79820  0.69970  0.02230  Biso   1.000  H
  H143     1.0000 0.70180  0.19970  0.47770  Biso   1.000  H
  H144     1.0000 0.20180  0.69970  0.47770  Biso   1.000  H
  O41      1.0000 0.50000  0.70170  0.25000  Biso   1.000  O
  O42      1.0000 0.00000  0.20170  0.25000  Biso   1.000  O
  O43      1.0000 0.50000  0.29830  0.75000  Biso   1.000  O
  O44      1.0000 0.00000  0.79830  0.75000  Biso   1.000  O
  H145     1.0000 0.46730  0.67550  0.25800  Biso   1.000  H
  H146     1.0000 0.96730  0.17550  0.25800  Biso   1.000  H
  H147     1.0000 0.53270  0.67550  0.24200  Biso   1.000  H
  H148     1.0000 0.03270  0.17550  0.24200  Biso   1.000  H
  H149     1.0000 0.53270  0.32450  0.74200  Biso   1.000  H
  H150     1.0000 0.03270  0.82450  0.74200  Biso   1.000  H
  H151     1.0000 0.46730  0.32450  0.75800  Biso   1.000  H
  H152     1.0000 0.96730  0.82450  0.75800  Biso   1.000  H
  O45      1.0000 0.57010  0.56500  0.34550  Biso   1.000  O
  O46      1.0000 0.07010  0.06500  0.34550  Biso   1.000  O
  O47      1.0000 0.42990  0.56500  0.15450  Biso   1.000  O
  O48      1.0000 0.92990  0.06500  0.15450  Biso   1.000  O
  O49      1.0000 0.42990  0.43500  0.65450  Biso   1.000  O
  O50      1.0000 0.92990  0.93500  0.65450  Biso   1.000  O
  O51      1.0000 0.57010  0.43500  0.84550  Biso   1.000  O
  O52      1.0000 0.07010  0.93500  0.84550  Biso   1.000  O
  H153     1.0000 0.53800  0.57100  0.27600  Biso   1.000  H
  H154     1.0000 0.03800  0.07100  0.27600  Biso   1.000  H
  H155     1.0000 0.46200  0.57100  0.22400  Biso   1.000  H
  H156     1.0000 0.96200  0.07100  0.22400  Biso   1.000  H
  H157     1.0000 0.46200  0.42900  0.72400  Biso   1.000  H
  H158     1.0000 0.96200  0.92900  0.72400  Biso   1.000  H
  H159     1.0000 0.53800  0.42900  0.77600  Biso   1.000  H
  H160     1.0000 0.03800  0.92900  0.77600  Biso   1.000  H
  H161     1.0000 0.59300  0.60000  0.35600  Biso   1.000  H
  H162     1.0000 0.09300  0.10000  0.35600  Biso   1.000  H
  H163     1.0000 0.40700  0.60000  0.14400  Biso   1.000  H
  H164     1.0000 0.90700  0.10000  0.14400  Biso   1.000  H
  H165     1.0000 0.40700  0.40000  0.64400  Biso   1.000  H
  H166     1.0000 0.90700  0.90000  0.64400  Biso   1.000  H
  H167     1.0000 0.59300  0.40000  0.85600  Biso   1.000  H
  H168     1.0000 0.09300  0.90000  0.85600  Biso   1.000  H
  H169     1.0000 0.60600  0.54500  0.33300  Biso   1.000  H
  H170     1.0000 0.10600  0.04500  0.33300  Biso   1.000  H
  H171     1.0000 0.39400  0.54500  0.16700  Biso   1.000  H
  H172     1.0000 0.89400  0.04500  0.16700  Biso   1.000  H
  H173     1.0000 0.39400  0.45500  0.66700  Biso   1.000  H
  H174     1.0000 0.89400  0.95500  0.66700  Biso   1.000  H
  H175     1.0000 0.60600  0.45500  0.83300  Biso   1.000  H
  H176     1.0000 0.10600  0.95500  0.83300  Biso   1.000  H
  O53      1.0000 0.65760  0.63300  0.52750  Biso   1.000  O
  O54      1.0000 0.15760  0.13300  0.52750  Biso   1.000  O
  O55      1.0000 0.34240  0.63300  0.97250  Biso   1.000  O
  O56      1.0000 0.84240  0.13300  0.97250  Biso   1.000  O
  O57      1.0000 0.34240  0.36700  0.47250  Biso   1.000  O
  O58      1.0000 0.84240  0.86700  0.47250  Biso   1.000  O
  O59      1.0000 0.65760  0.36700  0.02750  Biso   1.000  O
  O60      1.0000 0.15760  0.86700  0.02750  Biso   1.000  O
  H177     1.0000 0.62000  0.60600  0.51000  Biso   1.000  H
  H178     1.0000 0.12000  0.10600  0.51000  Biso   1.000  H
  H179     1.0000 0.38000  0.60600  0.99000  Biso   1.000  H
  H180     1.0000 0.88000  0.10600  0.99000  Biso   1.000  H
  H181     1.0000 0.38000  0.39400  0.49000  Biso   1.000  H
  H182     1.0000 0.88000  0.89400  0.49000  Biso   1.000  H
  H183     1.0000 0.62000  0.39400  0.01000  Biso   1.000  H
  H184     1.0000 0.12000  0.89400  0.01000  Biso   1.000  H
  H185     1.0000 0.62800  0.66500  0.51500  Biso   1.000  H
  H186     1.0000 0.12800  0.16500  0.51500  Biso   1.000  H
  H187     1.0000 0.37200  0.66500  0.98500  Biso   1.000  H
  H188     1.0000 0.87200  0.16500  0.98500  Biso   1.000  H
  H189     1.0000 0.37200  0.33500  0.48500  Biso   1.000  H
  H190     1.0000 0.87200  0.83500  0.48500  Biso   1.000  H
  H191     1.0000 0.62800  0.33500  0.01500  Biso   1.000  H
  H192     1.0000 0.12800  0.83500  0.01500  Biso   1.000  H
  B1       1.0000 0.71430  0.55920  0.82080  Biso   1.000  B
  B2       1.0000 0.21430  0.05920  0.82080  Biso   1.000  B
  B3       1.0000 0.28570  0.55920  0.67920  Biso   1.000  B
  B4       1.0000 0.78570  0.05920  0.67920  Biso   1.000  B
  B5       1.0000 0.28570  0.44080  0.17920  Biso   1.000  B
  B6       1.0000 0.78570  0.94080  0.17920  Biso   1.000  B
  B7       1.0000 0.71430  0.44080  0.32080  Biso   1.000  B
  B8       1.0000 0.21430  0.94080  0.32080  Biso   1.000  B
  F1       1.0000 0.67860  0.56210  0.70740  Biso   1.000  F
  F2       1.0000 0.17860  0.06210  0.70740  Biso   1.000  F
  F3       1.0000 0.32140  0.56210  0.79260  Biso   1.000  F
  F4       1.0000 0.82140  0.06210  0.79260  Biso   1.000  F
  F5       1.0000 0.32140  0.43790  0.29260  Biso   1.000  F
  F6       1.0000 0.82140  0.93790  0.29260  Biso   1.000  F
  F7       1.0000 0.67860  0.43790  0.20740  Biso   1.000  F
  F8       1.0000 0.17860  0.93790  0.20740  Biso   1.000  F
  F9       1.0000 0.69180  0.50800  0.85400  Biso   1.000  F
  F10      1.0000 0.19180  0.00800  0.85400  Biso   1.000  F
  F11      1.0000 0.30820  0.50800  0.64600  Biso   1.000  F
  F12      1.0000 0.80820  0.00800  0.64600  Biso   1.000  F
  F13      1.0000 0.30820  0.49200  0.14600  Biso   1.000  F
  F14      1.0000 0.80820  0.99200  0.14600  Biso   1.000  F
  F15      1.0000 0.69180  0.49200  0.35400  Biso   1.000  F
  F16      1.0000 0.19180  0.99200  0.35400  Biso   1.000  F
  F17      1.0000 0.72290  0.59900  0.90450  Biso   1.000  F
  F18      1.0000 0.22290  0.09900  0.90450  Biso   1.000  F
  F19      1.0000 0.27710  0.59900  0.59550  Biso   1.000  F
  F20      1.0000 0.77710  0.09900  0.59550  Biso   1.000  F
  F21      1.0000 0.27710  0.40100  0.09550  Biso   1.000  F
  F22      1.0000 0.77710  0.90100  0.09550  Biso   1.000  F
  F23      1.0000 0.72290  0.40100  0.40450  Biso   1.000  F
  F24      1.0000 0.22290  0.90100  0.40450  Biso   1.000  F
  F25      1.0000 0.77900  0.53460  0.82760  Biso   1.000  F
  F26      1.0000 0.27900  0.03460  0.82760  Biso   1.000  F
  F27      1.0000 0.22100  0.53460  0.67240  Biso   1.000  F
  F28      1.0000 0.72100  0.03460  0.67240  Biso   1.000  F
  F29      1.0000 0.22100  0.46540  0.17240  Biso   1.000  F
  F30      1.0000 0.72100  0.96540  0.17240  Biso   1.000  F
  F31      1.0000 0.77900  0.46540  0.32760  Biso   1.000  F
  F32      1.0000 0.27900  0.96540  0.32760  Biso   1.000  F
  F33      1.0000 0.79470  0.56680  0.85100  Biso   1.000  F
  F34      1.0000 0.29470  0.06680  0.85100  Biso   1.000  F
  F35      1.0000 0.20530  0.56680  0.64900  Biso   1.000  F
  F36      1.0000 0.70530  0.06680  0.64900  Biso   1.000  F
  F37      1.0000 0.20530  0.43320  0.14900  Biso   1.000  F
  F38      1.0000 0.70530  0.93320  0.14900  Biso   1.000  F
  F39      1.0000 0.79470  0.43320  0.35100  Biso   1.000  F
  F40      1.0000 0.29470  0.93320  0.35100  Biso   1.000  F
  F41      1.0000 0.68250  0.59990  0.86170  Biso   1.000  F
  F42      1.0000 0.18250  0.09990  0.86170  Biso   1.000  F
  F43      1.0000 0.31750  0.59990  0.63830  Biso   1.000  F
  F44      1.0000 0.81750  0.09990  0.63830  Biso   1.000  F
  F45      1.0000 0.31750  0.40010  0.13830  Biso   1.000  F
  F46      1.0000 0.81750  0.90010  0.13830  Biso   1.000  F
  F47      1.0000 0.68250  0.40010  0.36170  Biso   1.000  F
  F48      1.0000 0.18250  0.90010  0.36170  Biso   1.000  F
  F49      1.0000 0.65560  0.52370  0.82950  Biso   1.000  F
  F50      1.0000 0.15560  0.02370  0.82950  Biso   1.000  F
  F51      1.0000 0.34440  0.52370  0.67050  Biso   1.000  F
  F52      1.0000 0.84440  0.02370  0.67050  Biso   1.000  F
  F53      1.0000 0.34440  0.47630  0.17050  Biso   1.000  F
  F54      1.0000 0.84440  0.97630  0.17050  Biso   1.000  F
  F55      1.0000 0.65560  0.47630  0.32950  Biso   1.000  F
  F56      1.0000 0.15560  0.97630  0.32950  Biso   1.000  F
  F57      1.0000 0.67890  0.59800  0.73640  Biso   1.000  F
  F58      1.0000 0.17890  0.09800  0.73640  Biso   1.000  F
  F59      1.0000 0.32110  0.59800  0.76360  Biso   1.000  F
  F60      1.0000 0.82110  0.09800  0.76360  Biso   1.000  F
  F61      1.0000 0.32110  0.40200  0.26360  Biso   1.000  F
  F62      1.0000 0.82110  0.90200  0.26360  Biso   1.000  F
  F63      1.0000 0.67890  0.40200  0.23640  Biso   1.000  F
  F64      1.0000 0.17890  0.90200  0.23640  Biso   1.000  F
  F65      1.0000 0.74170  0.50510  0.85020  Biso   1.000  F
  F66      1.0000 0.24170  0.00510  0.85020  Biso   1.000  F
  F67      1.0000 0.25830  0.50510  0.64980  Biso   1.000  F
  F68      1.0000 0.75830  0.00510  0.64980  Biso   1.000  F
  F69      1.0000 0.25830  0.49490  0.14980  Biso   1.000  F
  F70      1.0000 0.75830  0.99490  0.14980  Biso   1.000  F
  F71      1.0000 0.74170  0.49490  0.35020  Biso   1.000  F
  F72      1.0000 0.24170  0.99490  0.35020  Biso   1.000  F
  F73      1.0000 0.75390  0.60420  0.88620  Biso   1.000  F
  F74      1.0000 0.25390  0.10420  0.88620  Biso   1.000  F
  F75      1.0000 0.24610  0.60420  0.61380  Biso   1.000  F
  F76      1.0000 0.74610  0.10420  0.61380  Biso   1.000  F
  F77      1.0000 0.24610  0.39580  0.11380  Biso   1.000  F
  F78      1.0000 0.74610  0.89580  0.11380  Biso   1.000  F
  F79      1.0000 0.75390  0.39580  0.38620  Biso   1.000  F
  F80      1.0000 0.25390  0.89580  0.38620  Biso   1.000  F
  F81      1.0000 0.71610  0.57480  0.71930  Biso   1.000  F
  F82      1.0000 0.21610  0.07480  0.71930  Biso   1.000  F
  F83      1.0000 0.28390  0.57480  0.78070  Biso   1.000  F
  F84      1.0000 0.78390  0.07480  0.78070  Biso   1.000  F
  F85      1.0000 0.28390  0.42520  0.28070  Biso   1.000  F
  F86      1.0000 0.78390  0.92520  0.28070  Biso   1.000  F
  F87      1.0000 0.71610  0.42520  0.21930  Biso   1.000  F
  F88      1.0000 0.21610  0.92520  0.21930  Biso   1.000  F
  F89      1.0000 0.64460  0.57660  0.74790  Biso   1.000  F
  F90      1.0000 0.14460  0.07660  0.74790  Biso   1.000  F
  F91      1.0000 0.35540  0.57660  0.75210  Biso   1.000  F
  F92      1.0000 0.85540  0.07660  0.75210  Biso   1.000  F
  F93      1.0000 0.35540  0.42340  0.25210  Biso   1.000  F
  F94      1.0000 0.85540  0.92340  0.25210  Biso   1.000  F
  F95      1.0000 0.64460  0.42340  0.24790  Biso   1.000  F
  F96      1.0000 0.14460  0.92340  0.24790  Biso   1.000  F
