data_image0
_cell_length_a       9.558
_cell_length_b       7.5277
_cell_length_c       25.132
_cell_angle_alpha    90
_cell_angle_beta     100.63
_cell_angle_gamma    90

_symmetry_space_group_name_H-M    "P 1"
_symmetry_int_tables_number       1

loop_
  _symmetry_equiv_pos_as_xyz
  'x, y, z'

loop_
  _atom_site_label
  _atom_site_occupancy
  _atom_site_fract_x
  _atom_site_fract_y
  _atom_site_fract_z
  _atom_site_thermal_displace_type
  _atom_site_B_iso_or_equiv
  _atom_site_type_symbol
  Cu1      1.0000 0.24630  0.49587  0.28076  Biso   1.000  Cu
  Cu2      1.0000 0.75370  0.99587  0.21924  Biso   1.000  Cu
  Cu3      1.0000 0.75370  0.50413  0.71924  Biso   1.000  Cu
  Cu4      1.0000 0.24630  0.00413  0.78076  Biso   1.000  Cu
  O1       1.0000 0.07340  0.60670  0.29740  Biso   1.000  O
  O2       1.0000 0.92660  0.10670  0.20260  Biso   1.000  O
  O3       1.0000 0.92660  0.39330  0.70260  Biso   1.000  O
  O4       1.0000 0.07340  0.89330  0.79740  Biso   1.000  O
  O5       1.0000 0.19230  0.61230  0.21063  Biso   1.000  O
  O6       1.0000 0.80770  0.11230  0.28937  Biso   1.000  O
  O7       1.0000 0.80770  0.38770  0.78937  Biso   1.000  O
  O8       1.0000 0.19230  0.88770  0.71063  Biso   1.000  O
  O9       1.0000 0.99410  0.72000  0.15958  Biso   1.000  O
  O10      1.0000 0.00590  0.22000  0.34042  Biso   1.000  O
  O11      1.0000 0.00590  0.28000  0.84042  Biso   1.000  O
  O12      1.0000 0.99410  0.78000  0.65958  Biso   1.000  O
  O13      1.0000 0.87970  0.74580  0.25502  Biso   1.000  O
  O14      1.0000 0.12030  0.24580  0.24498  Biso   1.000  O
  O15      1.0000 0.12030  0.25420  0.74498  Biso   1.000  O
  O16      1.0000 0.87970  0.75420  0.75502  Biso   1.000  O
  O17      1.0000 0.63470  0.36040  0.07333  Biso   1.000  O
  O18      1.0000 0.36530  0.86040  0.42667  Biso   1.000  O
  O19      1.0000 0.36530  0.63960  0.92667  Biso   1.000  O
  O20      1.0000 0.63470  0.13960  0.57333  Biso   1.000  O
  N1       1.0000 0.43970  0.40900  0.26922  Biso   1.000  N
  N2       1.0000 0.56030  0.90900  0.23078  Biso   1.000  N
  N3       1.0000 0.56030  0.59100  0.73078  Biso   1.000  N
  N4       1.0000 0.43970  0.09100  0.76922  Biso   1.000  N
  N5       1.0000 0.32830  0.42620  0.35683  Biso   1.000  N
  N6       1.0000 0.67170  0.92620  0.14317  Biso   1.000  N
  N7       1.0000 0.67170  0.57380  0.64317  Biso   1.000  N
  N8       1.0000 0.32830  0.07380  0.85683  Biso   1.000  N
  C1       1.0000 0.26430  0.43090  0.39990  Biso   1.000  C
  C2       1.0000 0.73570  0.93090  0.10010  Biso   1.000  C
  C3       1.0000 0.73570  0.56910  0.60010  Biso   1.000  C
  C4       1.0000 0.26430  0.06910  0.89990  Biso   1.000  C
  H1       1.0000 0.17200  0.47490  0.39560  Biso   1.000  H
  H2       1.0000 0.82800  0.97490  0.10440  Biso   1.000  H
  H3       1.0000 0.82800  0.52510  0.60440  Biso   1.000  H
  H4       1.0000 0.17200  0.02510  0.89560  Biso   1.000  H
  C5       1.0000 0.33040  0.37270  0.45050  Biso   1.000  C
  C6       1.0000 0.66960  0.87270  0.04950  Biso   1.000  C
  C7       1.0000 0.66960  0.62730  0.54950  Biso   1.000  C
  C8       1.0000 0.33040  0.12730  0.95050  Biso   1.000  C
  H5       1.0000 0.28310  0.37630  0.47960  Biso   1.000  H
  H6       1.0000 0.71690  0.87630  0.02040  Biso   1.000  H
  H7       1.0000 0.71690  0.62370  0.52040  Biso   1.000  H
  H8       1.0000 0.28310  0.12370  0.97960  Biso   1.000  H
  C9       1.0000 0.46870  0.30890  0.45690  Biso   1.000  C
  C10      1.0000 0.53130  0.80890  0.04310  Biso   1.000  C
  C11      1.0000 0.53130  0.69110  0.54310  Biso   1.000  C
  C12      1.0000 0.46870  0.19110  0.95690  Biso   1.000  C
  H9       1.0000 0.51520  0.26790  0.49040  Biso   1.000  H
  H10      1.0000 0.48480  0.76790  0.00960  Biso   1.000  H
  H11      1.0000 0.48480  0.73210  0.50960  Biso   1.000  H
  H12      1.0000 0.51520  0.23210  0.99040  Biso   1.000  H
  C13      1.0000 0.53680  0.30700  0.41260  Biso   1.000  C
  C14      1.0000 0.46320  0.80700  0.08740  Biso   1.000  C
  C15      1.0000 0.46320  0.69300  0.58740  Biso   1.000  C
  C16      1.0000 0.53680  0.19300  0.91260  Biso   1.000  C
  H13      1.0000 0.63010  0.26680  0.41630  Biso   1.000  H
  H14      1.0000 0.36990  0.76680  0.08370  Biso   1.000  H
  H15      1.0000 0.36990  0.73320  0.58370  Biso   1.000  H
  H16      1.0000 0.63010  0.23320  0.91630  Biso   1.000  H
  C17      1.0000 0.46400  0.36540  0.36320  Biso   1.000  C
  C18      1.0000 0.53600  0.86540  0.13680  Biso   1.000  C
  C19      1.0000 0.53600  0.63460  0.63680  Biso   1.000  C
  C20      1.0000 0.46400  0.13460  0.86320  Biso   1.000  C
  C21      1.0000 0.52030  0.35940  0.31300  Biso   1.000  C
  C22      1.0000 0.47970  0.85940  0.18700  Biso   1.000  C
  C23      1.0000 0.47970  0.64060  0.68700  Biso   1.000  C
  C24      1.0000 0.52030  0.14060  0.81300  Biso   1.000  C
  H17      1.0000 0.61260  0.32040  0.31290  Biso   1.000  H
  H18      1.0000 0.38740  0.82040  0.18710  Biso   1.000  H
  H19      1.0000 0.38740  0.67960  0.68710  Biso   1.000  H
  H20      1.0000 0.61260  0.17960  0.81290  Biso   1.000  H
  C25      1.0000 0.49270  0.40540  0.21910  Biso   1.000  C
  C26      1.0000 0.50730  0.90540  0.28090  Biso   1.000  C
  C27      1.0000 0.50730  0.59460  0.78090  Biso   1.000  C
  C28      1.0000 0.49270  0.09460  0.71910  Biso   1.000  C
  C29      1.0000 0.40230  0.34610  0.17220  Biso   1.000  C
  C30      1.0000 0.59770  0.84610  0.32780  Biso   1.000  C
  C31      1.0000 0.59770  0.65390  0.82780  Biso   1.000  C
  C32      1.0000 0.40230  0.15390  0.67220  Biso   1.000  C
  H21      1.0000 0.30800  0.31760  0.17300  Biso   1.000  H
  H22      1.0000 0.69200  0.81760  0.32700  Biso   1.000  H
  H23      1.0000 0.69200  0.68240  0.82700  Biso   1.000  H
  H24      1.0000 0.30800  0.18240  0.67300  Biso   1.000  H
  C33      1.0000 0.45450  0.33040  0.12470  Biso   1.000  C
  C34      1.0000 0.54550  0.83040  0.37530  Biso   1.000  C
  C35      1.0000 0.54550  0.66960  0.87530  Biso   1.000  C
  C36      1.0000 0.45450  0.16960  0.62470  Biso   1.000  C
  H25      1.0000 0.39610  0.28690  0.09370  Biso   1.000  H
  H26      1.0000 0.60390  0.78690  0.40630  Biso   1.000  H
  H27      1.0000 0.60390  0.71310  0.90630  Biso   1.000  H
  H28      1.0000 0.39610  0.21310  0.59370  Biso   1.000  H
  C37      1.0000 0.59400  0.37920  0.12300  Biso   1.000  C
  C38      1.0000 0.40600  0.87920  0.37700  Biso   1.000  C
  C39      1.0000 0.40600  0.62080  0.87700  Biso   1.000  C
  C40      1.0000 0.59400  0.12080  0.62300  Biso   1.000  C
  C41      1.0000 0.68220  0.44340  0.16870  Biso   1.000  C
  C42      1.0000 0.31780  0.94340  0.33130  Biso   1.000  C
  C43      1.0000 0.31780  0.55660  0.83130  Biso   1.000  C
  C44      1.0000 0.68220  0.05660  0.66870  Biso   1.000  C
  H29      1.0000 0.77460  0.47860  0.16710  Biso   1.000  H
  H30      1.0000 0.22540  0.97860  0.33290  Biso   1.000  H
  H31      1.0000 0.22540  0.52140  0.83290  Biso   1.000  H
  H32      1.0000 0.77460  0.02140  0.66710  Biso   1.000  H
  C45      1.0000 0.63210  0.45500  0.21680  Biso   1.000  C
  C46      1.0000 0.36790  0.95500  0.28320  Biso   1.000  C
  C47      1.0000 0.36790  0.54500  0.78320  Biso   1.000  C
  C48      1.0000 0.63210  0.04500  0.71680  Biso   1.000  C
  H33      1.0000 0.69180  0.49600  0.24780  Biso   1.000  H
  H34      1.0000 0.30820  0.99600  0.25220  Biso   1.000  H
  H35      1.0000 0.30820  0.50400  0.75220  Biso   1.000  H
  H36      1.0000 0.69180  0.00400  0.74780  Biso   1.000  H
  C49      1.0000 0.78000  0.40090  0.06980  Biso   1.000  C
  C50      1.0000 0.22000  0.90090  0.43020  Biso   1.000  C
  C51      1.0000 0.22000  0.59910  0.93020  Biso   1.000  C
  C52      1.0000 0.78000  0.09910  0.56980  Biso   1.000  C
  H37      1.0000 0.79950  0.52310  0.07930  Biso   1.000  H
  H38      1.0000 0.20050  0.02310  0.42070  Biso   1.000  H
  H39      1.0000 0.20050  0.47690  0.92070  Biso   1.000  H
  H40      1.0000 0.79950  0.97690  0.57930  Biso   1.000  H
  H41      1.0000 0.79440  0.38040  0.03350  Biso   1.000  H
  H42      1.0000 0.20560  0.88040  0.46650  Biso   1.000  H
  H43      1.0000 0.20560  0.61960  0.96650  Biso   1.000  H
  H44      1.0000 0.79440  0.11960  0.53350  Biso   1.000  H
  H45      1.0000 0.84290  0.32610  0.09430  Biso   1.000  H
  H46      1.0000 0.15710  0.82610  0.40570  Biso   1.000  H
  H47      1.0000 0.15710  0.67390  0.90570  Biso   1.000  H
  H48      1.0000 0.84290  0.17390  0.59430  Biso   1.000  H
  C53      1.0000 0.99700  0.67820  0.25530  Biso   1.000  C
  C54      1.0000 0.00300  0.17820  0.24470  Biso   1.000  C
  C55      1.0000 0.00300  0.32180  0.74470  Biso   1.000  C
  C56      1.0000 0.99700  0.82180  0.75530  Biso   1.000  C
  C57      1.0000 0.06510  0.66950  0.20300  Biso   1.000  C
  C58      1.0000 0.93490  0.16950  0.29700  Biso   1.000  C
  C59      1.0000 0.93490  0.33050  0.79700  Biso   1.000  C
  C60      1.0000 0.06510  0.83050  0.70300  Biso   1.000  C
  O21      1.0000 0.87810  0.56350  0.37780  Biso   1.000  O
  O22      1.0000 0.12190  0.06350  0.12220  Biso   1.000  O
  O23      1.0000 0.12190  0.43650  0.62220  Biso   1.000  O
  O24      1.0000 0.87810  0.93650  0.87780  Biso   1.000  O
  H49      1.0000 0.89070  0.44260  0.37790  Biso   1.000  H
  H50      1.0000 0.10930  0.94260  0.12210  Biso   1.000  H
  H51      1.0000 0.10930  0.55740  0.62210  Biso   1.000  H
  H52      1.0000 0.89070  0.05740  0.87790  Biso   1.000  H
  H53      1.0000 0.91160  0.63160  0.35430  Biso   1.000  H
  H54      1.0000 0.08840  0.13160  0.14570  Biso   1.000  H
  H55      1.0000 0.08840  0.36840  0.64570  Biso   1.000  H
  H56      1.0000 0.91160  0.86840  0.85430  Biso   1.000  H
  O25      1.0000 0.11240  0.20380  0.53252  Biso   1.000  O
  O26      1.0000 0.88760  0.70380  0.96748  Biso   1.000  O
  O27      1.0000 0.88760  0.79620  0.46748  Biso   1.000  O
  O28      1.0000 0.11240  0.29620  0.03252  Biso   1.000  O
  H57      1.0000 0.11840  0.26310  0.56150  Biso   1.000  H
  H58      1.0000 0.88160  0.76310  0.93850  Biso   1.000  H
  H59      1.0000 0.88160  0.73690  0.43850  Biso   1.000  H
  H60      1.0000 0.11840  0.23690  0.06150  Biso   1.000  H
  H61      1.0000 0.03020  0.17080  0.51670  Biso   1.000  H
  H62      1.0000 0.96980  0.67080  0.98330  Biso   1.000  H
  H63      1.0000 0.96980  0.82920  0.48330  Biso   1.000  H
  H64      1.0000 0.03020  0.32920  0.01670  Biso   1.000  H
  O29      1.0000 0.10300  0.66460  0.06291  Biso   1.000  O
  O30      1.0000 0.89700  0.16460  0.43709  Biso   1.000  O
  O31      1.0000 0.89700  0.33540  0.93709  Biso   1.000  O
  O32      1.0000 0.10300  0.83540  0.56291  Biso   1.000  O
  H65      1.0000 0.07280  0.77250  0.05780  Biso   1.000  H
  H66      1.0000 0.92720  0.27250  0.44220  Biso   1.000  H
  H67      1.0000 0.92720  0.22750  0.94220  Biso   1.000  H
  H68      1.0000 0.07280  0.72750  0.55780  Biso   1.000  H
  H69      1.0000 0.07430  0.60800  0.08840  Biso   1.000  H
  H70      1.0000 0.92570  0.10800  0.41160  Biso   1.000  H
  H71      1.0000 0.92570  0.39200  0.91160  Biso   1.000  H
  H72      1.0000 0.07430  0.89200  0.58840  Biso   1.000  H
