data_image0
_cell_length_a       9.488
_cell_length_b       10.785
_cell_length_c       11.084
_cell_angle_alpha    74.82
_cell_angle_beta     81.331
_cell_angle_gamma    72.638

_symmetry_space_group_name_H-M    "P 1"
_symmetry_int_tables_number       1

loop_
  _symmetry_equiv_pos_as_xyz
  'x, y, z'

loop_
  _atom_site_label
  _atom_site_occupancy
  _atom_site_fract_x
  _atom_site_fract_y
  _atom_site_fract_z
  _atom_site_thermal_displace_type
  _atom_site_B_iso_or_equiv
  _atom_site_type_symbol
  Cu1      1.0000 0.56968  0.83214  0.51747  Biso   1.000  Cu
  Cu2      1.0000 0.43032  0.16786  0.48253  Biso   1.000  Cu
  S1       1.0000 0.38143  0.96928  0.29079  Biso   1.000  S
  S2       1.0000 0.61857  0.03072  0.70921  Biso   1.000  S
  O1       1.0000 0.44560  0.04230  0.17610  Biso   1.000  O
  O2       1.0000 0.55440  0.95770  0.82390  Biso   1.000  O
  O3       1.0000 0.22310  0.02300  0.30480  Biso   1.000  O
  O4       1.0000 0.77690  0.97700  0.69520  Biso   1.000  O
  O5       1.0000 0.44500  0.98550  0.40000  Biso   1.000  O
  O6       1.0000 0.55500  0.01450  0.60000  Biso   1.000  O
  O7       1.0000 0.42420  0.82750  0.29390  Biso   1.000  O
  O8       1.0000 0.57580  0.17250  0.70610  Biso   1.000  O
  O9       1.0000 0.43660  0.21920  0.94220  Biso   1.000  O
  O10      1.0000 0.56340  0.78080  0.05780  Biso   1.000  O
  H1       1.0000 0.48400  0.19000  0.87900  Biso   1.000  H
  H2       1.0000 0.51600  0.81000  0.12100  Biso   1.000  H
  H3       1.0000 0.44300  0.15200  0.00400  Biso   1.000  H
  H4       1.0000 0.55700  0.84800  0.99600  Biso   1.000  H
  O11      1.0000 0.57400  0.56780  0.38740  Biso   1.000  O
  O12      1.0000 0.42600  0.43220  0.61260  Biso   1.000  O
  H5       1.0000 0.54700  0.64500  0.40500  Biso   1.000  H
  H6       1.0000 0.45300  0.35500  0.59500  Biso   1.000  H
  H7       1.0000 0.49000  0.56300  0.37000  Biso   1.000  H
  H8       1.0000 0.51000  0.43700  0.63000  Biso   1.000  H
  O13      1.0000 0.50600  0.51890  0.13790  Biso   1.000  O
  O14      1.0000 0.49400  0.48110  0.86210  Biso   1.000  O
  N1       1.0000 0.38880  0.79900  0.61880  Biso   1.000  N
  N2       1.0000 0.61120  0.20100  0.38120  Biso   1.000  N
  N3       1.0000 0.21700  0.79510  0.77480  Biso   1.000  N
  N4       1.0000 0.78300  0.20490  0.22520  Biso   1.000  N
  N5       1.0000 0.70580  0.67970  0.63180  Biso   1.000  N
  N6       1.0000 0.29420  0.32030  0.36820  Biso   1.000  N
  N7       1.0000 0.86030  0.56780  0.77630  Biso   1.000  N
  N8       1.0000 0.13970  0.43220  0.22370  Biso   1.000  N
  N9       1.0000 0.74910  0.84810  0.40230  Biso   1.000  N
  N10      1.0000 0.25090  0.15190  0.59770  Biso   1.000  N
  N11      1.0000 0.91980  0.84730  0.24450  Biso   1.000  N
  N12      1.0000 0.08020  0.15270  0.75550  Biso   1.000  N
  C1       1.0000 0.35050  0.81630  0.73420  Biso   1.000  C
  C2       1.0000 0.64950  0.18370  0.26580  Biso   1.000  C
  H9       1.0000 0.40790  0.83990  0.78090  Biso   1.000  H
  H10      1.0000 0.59210  0.16010  0.21910  Biso   1.000  H
  C3       1.0000 0.27440  0.76470  0.58640  Biso   1.000  C
  C4       1.0000 0.72560  0.23530  0.41360  Biso   1.000  C
  H11      1.0000 0.27130  0.74570  0.50980  Biso   1.000  H
  H12      1.0000 0.72870  0.25430  0.49020  Biso   1.000  H
  C5       1.0000 0.16680  0.76210  0.68070  Biso   1.000  C
  C6       1.0000 0.83320  0.23790  0.31930  Biso   1.000  C
  H13      1.0000 0.07760  0.74230  0.68180  Biso   1.000  H
  H14      1.0000 0.92240  0.25770  0.31820  Biso   1.000  H
  C7       1.0000 0.14100  0.80670  0.89660  Biso   1.000  C
  C8       1.0000 0.85900  0.19330  0.10340  Biso   1.000  C
  C9       1.0000 0.22110  0.78370  0.99650  Biso   1.000  C
  C10      1.0000 0.77890  0.21630  0.00350  Biso   1.000  C
  H15      1.0000 0.32410  0.75970  0.98680  Biso   1.000  H
  H16      1.0000 0.67590  0.24030  0.01320  Biso   1.000  H
  C11      1.0000 0.98920  0.84160  0.90890  Biso   1.000  C
  C12      1.0000 0.01080  0.15840  0.09110  Biso   1.000  C
  H17      1.0000 0.93620  0.85530  0.84030  Biso   1.000  H
  H18      1.0000 0.06380  0.14470  0.15970  Biso   1.000  H
  C13      1.0000 0.74550  0.67280  0.74200  Biso   1.000  C
  C14      1.0000 0.25450  0.32720  0.25800  Biso   1.000  C
  H19      1.0000 0.69890  0.73400  0.79070  Biso   1.000  H
  H20      1.0000 0.30110  0.26600  0.20930  Biso   1.000  H
  C15      1.0000 0.80090  0.57190  0.59380  Biso   1.000  C
  C16      1.0000 0.19910  0.42810  0.40620  Biso   1.000  C
  H21      1.0000 0.79990  0.55030  0.51810  Biso   1.000  H
  H22      1.0000 0.20010  0.44970  0.48190  Biso   1.000  H
  C17      1.0000 0.89500  0.50200  0.68030  Biso   1.000  C
  C18      1.0000 0.10500  0.49800  0.31970  Biso   1.000  C
  H23      1.0000 0.96970  0.42400  0.67670  Biso   1.000  H
  H24      1.0000 0.03030  0.57600  0.32330  Biso   1.000  H
  C19      1.0000 0.93160  0.53190  0.89040  Biso   1.000  C
  C20      1.0000 0.06840  0.46810  0.10960  Biso   1.000  C
  C21      1.0000 0.08350  0.48200  0.88940  Biso   1.000  C
  C22      1.0000 0.91650  0.51800  0.11060  Biso   1.000  C
  H25      1.0000 0.13970  0.46930  0.81510  Biso   1.000  H
  H26      1.0000 0.86030  0.53070  0.18490  Biso   1.000  H
  C23      1.0000 0.84840  0.54890  0.00130  Biso   1.000  C
  C24      1.0000 0.15160  0.45110  0.99870  Biso   1.000  C
  H27      1.0000 0.74590  0.58140  0.00210  Biso   1.000  H
  H28      1.0000 0.25410  0.41860  0.99790  Biso   1.000  H
  C25      1.0000 0.78430  0.82820  0.28820  Biso   1.000  C
  C26      1.0000 0.21570  0.17180  0.71180  Biso   1.000  C
  H29      1.0000 0.72490  0.80440  0.24370  Biso   1.000  H
  H30      1.0000 0.27510  0.19560  0.75630  Biso   1.000  H
  C27      1.0000 0.86630  0.87910  0.43410  Biso   1.000  C
  C28      1.0000 0.13370  0.12090  0.56590  Biso   1.000  C
  H31      1.0000 0.87240  0.89730  0.51040  Biso   1.000  H
  H32      1.0000 0.12760  0.10270  0.48960  Biso   1.000  H
  C29      1.0000 0.97110  0.87920  0.33830  Biso   1.000  C
  C30      1.0000 0.02890  0.12080  0.66170  Biso   1.000  C
  H33      1.0000 0.06140  0.89740  0.33600  Biso   1.000  H
  H34      1.0000 0.93860  0.10260  0.66400  Biso   1.000  H
  C31      1.0000 0.99520  0.83300  0.12470  Biso   1.000  C
  C32      1.0000 0.00480  0.16700  0.87530  Biso   1.000  C
  C33      1.0000 0.14820  0.79640  0.11250  Biso   1.000  C
  C34      1.0000 0.85180  0.20360  0.88750  Biso   1.000  C
  H35      1.0000 0.20160  0.78050  0.18140  Biso   1.000  H
  H36      1.0000 0.79840  0.21950  0.81860  Biso   1.000  H
  C35      1.0000 0.91610  0.85620  0.02330  Biso   1.000  C
  C36      1.0000 0.08390  0.14380  0.97670  Biso   1.000  C
  H37      1.0000 0.81310  0.88170  0.03210  Biso   1.000  H
  H38      1.0000 0.18690  0.11830  0.96790  Biso   1.000  H
