data_image0
_cell_length_a       11.427
_cell_length_b       13.537
_cell_length_c       18.835
_cell_angle_alpha    90
_cell_angle_beta     93.16
_cell_angle_gamma    90

_symmetry_space_group_name_H-M    "P 1"
_symmetry_int_tables_number       1

loop_
  _symmetry_equiv_pos_as_xyz
  'x, y, z'

loop_
  _atom_site_label
  _atom_site_occupancy
  _atom_site_fract_x
  _atom_site_fract_y
  _atom_site_fract_z
  _atom_site_thermal_displace_type
  _atom_site_B_iso_or_equiv
  _atom_site_type_symbol
  Br1      1.0000 0.23711  0.26421  0.27267  Biso   1.000  Br
  Br2      1.0000 0.73711  0.76421  0.27267  Biso   1.000  Br
  Br3      1.0000 0.76289  0.26421  0.22733  Biso   1.000  Br
  Br4      1.0000 0.26289  0.76421  0.22733  Biso   1.000  Br
  Br5      1.0000 0.76289  0.73579  0.72733  Biso   1.000  Br
  Br6      1.0000 0.26289  0.23579  0.72733  Biso   1.000  Br
  Br7      1.0000 0.23711  0.73579  0.77267  Biso   1.000  Br
  Br8      1.0000 0.73711  0.23579  0.77267  Biso   1.000  Br
  Se1      1.0000 0.69641  0.59851  0.49873  Biso   1.000  Se
  Se2      1.0000 0.19641  0.09851  0.49873  Biso   1.000  Se
  Se3      1.0000 0.30359  0.59851  0.00127  Biso   1.000  Se
  Se4      1.0000 0.80359  0.09851  0.00127  Biso   1.000  Se
  Se5      1.0000 0.30359  0.40149  0.50127  Biso   1.000  Se
  Se6      1.0000 0.80359  0.90149  0.50127  Biso   1.000  Se
  Se7      1.0000 0.69641  0.40149  0.99873  Biso   1.000  Se
  Se8      1.0000 0.19641  0.90149  0.99873  Biso   1.000  Se
  Cu1      1.0000 0.00000  0.46549  0.75000  Biso   1.000  Cu
  Cu2      1.0000 0.50000  0.96549  0.75000  Biso   1.000  Cu
  Cu3      1.0000 0.00000  0.53451  0.25000  Biso   1.000  Cu
  Cu4      1.0000 0.50000  0.03451  0.25000  Biso   1.000  Cu
  O1       1.0000 0.00000  0.30120  0.75000  Biso   1.000  O
  O2       1.0000 0.50000  0.80120  0.75000  Biso   1.000  O
  O3       1.0000 0.00000  0.69880  0.25000  Biso   1.000  O
  O4       1.0000 0.50000  0.19880  0.25000  Biso   1.000  O
  H1       1.0000 0.93860  0.26720  0.76000  Biso   1.000  H
  H2       1.0000 0.43860  0.76720  0.76000  Biso   1.000  H
  H3       1.0000 0.06140  0.26720  0.74000  Biso   1.000  H
  H4       1.0000 0.56140  0.76720  0.74000  Biso   1.000  H
  H5       1.0000 0.06140  0.73280  0.24000  Biso   1.000  H
  H6       1.0000 0.56140  0.23280  0.24000  Biso   1.000  H
  H7       1.0000 0.93860  0.73280  0.26000  Biso   1.000  H
  H8       1.0000 0.43860  0.23280  0.26000  Biso   1.000  H
  N1       1.0000 0.87670  0.53030  0.32380  Biso   1.000  N
  N2       1.0000 0.37670  0.03030  0.32380  Biso   1.000  N
  N3       1.0000 0.12330  0.53030  0.17620  Biso   1.000  N
  N4       1.0000 0.62330  0.03030  0.17620  Biso   1.000  N
  N5       1.0000 0.12330  0.46970  0.67620  Biso   1.000  N
  N6       1.0000 0.62330  0.96970  0.67620  Biso   1.000  N
  N7       1.0000 0.87670  0.46970  0.82380  Biso   1.000  N
  N8       1.0000 0.37670  0.96970  0.82380  Biso   1.000  N
  N9       1.0000 0.78040  0.47140  0.31430  Biso   1.000  N
  N10      1.0000 0.28040  0.97140  0.31430  Biso   1.000  N
  N11      1.0000 0.21960  0.47140  0.18570  Biso   1.000  N
  N12      1.0000 0.71960  0.97140  0.18570  Biso   1.000  N
  N13      1.0000 0.21960  0.52860  0.68570  Biso   1.000  N
  N14      1.0000 0.71960  0.02860  0.68570  Biso   1.000  N
  N15      1.0000 0.78040  0.52860  0.81430  Biso   1.000  N
  N16      1.0000 0.28040  0.02860  0.81430  Biso   1.000  N
  H9       1.0000 0.76600  0.43440  0.27770  Biso   1.000  H
  H10      1.0000 0.26600  0.93440  0.27770  Biso   1.000  H
  H11      1.0000 0.23400  0.43440  0.22230  Biso   1.000  H
  H12      1.0000 0.73400  0.93440  0.22230  Biso   1.000  H
  H13      1.0000 0.23400  0.56560  0.72230  Biso   1.000  H
  H14      1.0000 0.73400  0.06560  0.72230  Biso   1.000  H
  H15      1.0000 0.76600  0.56560  0.77770  Biso   1.000  H
  H16      1.0000 0.26600  0.06560  0.77770  Biso   1.000  H
  N17      1.0000 0.87680  0.48510  0.67268  Biso   1.000  N
  N18      1.0000 0.37680  0.98510  0.67268  Biso   1.000  N
  N19      1.0000 0.12320  0.48510  0.82732  Biso   1.000  N
  N20      1.0000 0.62320  0.98510  0.82732  Biso   1.000  N
  N21      1.0000 0.12320  0.51490  0.32732  Biso   1.000  N
  N22      1.0000 0.62320  0.01490  0.32732  Biso   1.000  N
  N23      1.0000 0.87680  0.51490  0.17268  Biso   1.000  N
  N24      1.0000 0.37680  0.01490  0.17268  Biso   1.000  N
  N25      1.0000 0.78800  0.58190  0.16250  Biso   1.000  N
  N26      1.0000 0.28800  0.08190  0.16250  Biso   1.000  N
  N27      1.0000 0.21200  0.58190  0.33750  Biso   1.000  N
  N28      1.0000 0.71200  0.08190  0.33750  Biso   1.000  N
  N29      1.0000 0.21200  0.41810  0.83750  Biso   1.000  N
  N30      1.0000 0.71200  0.91810  0.83750  Biso   1.000  N
  N31      1.0000 0.78800  0.41810  0.66250  Biso   1.000  N
  N32      1.0000 0.28800  0.91810  0.66250  Biso   1.000  N
  H17      1.0000 0.77710  0.63100  0.19030  Biso   1.000  H
  H18      1.0000 0.27710  0.13100  0.19030  Biso   1.000  H
  H19      1.0000 0.22290  0.63100  0.30970  Biso   1.000  H
  H20      1.0000 0.72290  0.13100  0.30970  Biso   1.000  H
  H21      1.0000 0.22290  0.36900  0.80970  Biso   1.000  H
  H22      1.0000 0.72290  0.86900  0.80970  Biso   1.000  H
  H23      1.0000 0.77710  0.36900  0.69030  Biso   1.000  H
  H24      1.0000 0.27710  0.86900  0.69030  Biso   1.000  H
  C1       1.0000 0.95300  0.35040  0.91580  Biso   1.000  C
  C2       1.0000 0.45300  0.85040  0.91580  Biso   1.000  C
  C3       1.0000 0.04700  0.35040  0.58420  Biso   1.000  C
  C4       1.0000 0.54700  0.85040  0.58420  Biso   1.000  C
  C5       1.0000 0.04700  0.64960  0.08420  Biso   1.000  C
  C6       1.0000 0.54700  0.14960  0.08420  Biso   1.000  C
  C7       1.0000 0.95300  0.64960  0.41580  Biso   1.000  C
  C8       1.0000 0.45300  0.14960  0.41580  Biso   1.000  C
  H25      1.0000 0.00990  0.38390  0.94640  Biso   1.000  H
  H26      1.0000 0.50990  0.88390  0.94640  Biso   1.000  H
  H27      1.0000 0.99010  0.38390  0.55360  Biso   1.000  H
  H28      1.0000 0.49010  0.88390  0.55360  Biso   1.000  H
  H29      1.0000 0.99010  0.61610  0.05360  Biso   1.000  H
  H30      1.0000 0.49010  0.11610  0.05360  Biso   1.000  H
  H31      1.0000 0.00990  0.61610  0.44640  Biso   1.000  H
  H32      1.0000 0.50990  0.11610  0.44640  Biso   1.000  H
  H33      1.0000 0.91360  0.30140  0.94250  Biso   1.000  H
  H34      1.0000 0.41360  0.80140  0.94250  Biso   1.000  H
  H35      1.0000 0.08640  0.30140  0.55750  Biso   1.000  H
  H36      1.0000 0.58640  0.80140  0.55750  Biso   1.000  H
  H37      1.0000 0.08640  0.69860  0.05750  Biso   1.000  H
  H38      1.0000 0.58640  0.19860  0.05750  Biso   1.000  H
  H39      1.0000 0.91360  0.69860  0.44250  Biso   1.000  H
  H40      1.0000 0.41360  0.19860  0.44250  Biso   1.000  H
  H41      1.0000 0.99160  0.31900  0.87780  Biso   1.000  H
  H42      1.0000 0.49160  0.81900  0.87780  Biso   1.000  H
  H43      1.0000 0.00840  0.31900  0.62220  Biso   1.000  H
  H44      1.0000 0.50840  0.81900  0.62220  Biso   1.000  H
  H45      1.0000 0.00840  0.68100  0.12220  Biso   1.000  H
  H46      1.0000 0.50840  0.18100  0.12220  Biso   1.000  H
  H47      1.0000 0.99160  0.68100  0.37780  Biso   1.000  H
  H48      1.0000 0.49160  0.18100  0.37780  Biso   1.000  H
  C9       1.0000 0.86620  0.42280  0.88580  Biso   1.000  C
  C10      1.0000 0.36620  0.92280  0.88580  Biso   1.000  C
  C11      1.0000 0.13380  0.42280  0.61420  Biso   1.000  C
  C12      1.0000 0.63380  0.92280  0.61420  Biso   1.000  C
  C13      1.0000 0.13380  0.57720  0.11420  Biso   1.000  C
  C14      1.0000 0.63380  0.07720  0.11420  Biso   1.000  C
  C15      1.0000 0.86620  0.57720  0.38580  Biso   1.000  C
  C16      1.0000 0.36620  0.07720  0.38580  Biso   1.000  C
  C17      1.0000 0.76190  0.54510  0.41580  Biso   1.000  C
  C18      1.0000 0.26190  0.04510  0.41580  Biso   1.000  C
  C19      1.0000 0.23810  0.54510  0.08420  Biso   1.000  C
  C20      1.0000 0.73810  0.04510  0.08420  Biso   1.000  C
  C21      1.0000 0.23810  0.45490  0.58420  Biso   1.000  C
  C22      1.0000 0.73810  0.95490  0.58420  Biso   1.000  C
  C23      1.0000 0.76190  0.45490  0.91580  Biso   1.000  C
  C24      1.0000 0.26190  0.95490  0.91580  Biso   1.000  C
  C25      1.0000 0.71020  0.47810  0.36930  Biso   1.000  C
  C26      1.0000 0.21020  0.97810  0.36930  Biso   1.000  C
  C27      1.0000 0.28980  0.47810  0.13070  Biso   1.000  C
  C28      1.0000 0.78980  0.97810  0.13070  Biso   1.000  C
  C29      1.0000 0.28980  0.52190  0.63070  Biso   1.000  C
  C30      1.0000 0.78980  0.02190  0.63070  Biso   1.000  C
  C31      1.0000 0.71020  0.52190  0.86930  Biso   1.000  C
  C32      1.0000 0.21020  0.02190  0.86930  Biso   1.000  C
  C33      1.0000 0.59840  0.57860  0.86940  Biso   1.000  C
  C34      1.0000 0.09840  0.07860  0.86940  Biso   1.000  C
  C35      1.0000 0.40160  0.57860  0.63060  Biso   1.000  C
  C36      1.0000 0.90160  0.07860  0.63060  Biso   1.000  C
  C37      1.0000 0.40160  0.42140  0.13060  Biso   1.000  C
  C38      1.0000 0.90160  0.92140  0.13060  Biso   1.000  C
  C39      1.0000 0.59840  0.42140  0.36940  Biso   1.000  C
  C40      1.0000 0.09840  0.92140  0.36940  Biso   1.000  C
  H49      1.0000 0.61310  0.64660  0.85870  Biso   1.000  H
  H50      1.0000 0.11310  0.14660  0.85870  Biso   1.000  H
  H51      1.0000 0.38690  0.64660  0.64130  Biso   1.000  H
  H52      1.0000 0.88690  0.14660  0.64130  Biso   1.000  H
  H53      1.0000 0.38690  0.35340  0.14130  Biso   1.000  H
  H54      1.0000 0.88690  0.85340  0.14130  Biso   1.000  H
  H55      1.0000 0.61310  0.35340  0.35870  Biso   1.000  H
  H56      1.0000 0.11310  0.85340  0.35870  Biso   1.000  H
  H57      1.0000 0.54330  0.55170  0.83420  Biso   1.000  H
  H58      1.0000 0.04330  0.05170  0.83420  Biso   1.000  H
  H59      1.0000 0.45670  0.55170  0.66580  Biso   1.000  H
  H60      1.0000 0.95670  0.05170  0.66580  Biso   1.000  H
  H61      1.0000 0.45670  0.44830  0.16580  Biso   1.000  H
  H62      1.0000 0.95670  0.94830  0.16580  Biso   1.000  H
  H63      1.0000 0.54330  0.44830  0.33420  Biso   1.000  H
  H64      1.0000 0.04330  0.94830  0.33420  Biso   1.000  H
  H65      1.0000 0.56670  0.57390  0.91540  Biso   1.000  H
  H66      1.0000 0.06670  0.07390  0.91540  Biso   1.000  H
  H67      1.0000 0.43330  0.57390  0.58460  Biso   1.000  H
  H68      1.0000 0.93330  0.07390  0.58460  Biso   1.000  H
  H69      1.0000 0.43330  0.42610  0.08460  Biso   1.000  H
  H70      1.0000 0.93330  0.92610  0.08460  Biso   1.000  H
  H71      1.0000 0.56670  0.42610  0.41540  Biso   1.000  H
  H72      1.0000 0.06670  0.92610  0.41540  Biso   1.000  H
  C41      1.0000 0.94840  0.36730  0.11100  Biso   1.000  C
  C42      1.0000 0.44840  0.86730  0.11100  Biso   1.000  C
  C43      1.0000 0.05160  0.36730  0.38900  Biso   1.000  C
  C44      1.0000 0.55160  0.86730  0.38900  Biso   1.000  C
  C45      1.0000 0.05160  0.63270  0.88900  Biso   1.000  C
  C46      1.0000 0.55160  0.13270  0.88900  Biso   1.000  C
  C47      1.0000 0.94840  0.63270  0.61100  Biso   1.000  C
  C48      1.0000 0.44840  0.13270  0.61100  Biso   1.000  C
  H73      1.0000 0.97870  0.34620  0.15700  Biso   1.000  H
  H74      1.0000 0.47870  0.84620  0.15700  Biso   1.000  H
  H75      1.0000 0.02130  0.34620  0.34300  Biso   1.000  H
  H76      1.0000 0.52130  0.84620  0.34300  Biso   1.000  H
  H77      1.0000 0.02130  0.65380  0.84300  Biso   1.000  H
  H78      1.0000 0.52130  0.15380  0.84300  Biso   1.000  H
  H79      1.0000 0.97870  0.65380  0.65700  Biso   1.000  H
  H80      1.0000 0.47870  0.15380  0.65700  Biso   1.000  H
  H81      1.0000 0.90800  0.31340  0.08730  Biso   1.000  H
  H82      1.0000 0.40800  0.81340  0.08730  Biso   1.000  H
  H83      1.0000 0.09200  0.31340  0.41270  Biso   1.000  H
  H84      1.0000 0.59200  0.81340  0.41270  Biso   1.000  H
  H85      1.0000 0.09200  0.68660  0.91270  Biso   1.000  H
  H86      1.0000 0.59200  0.18660  0.91270  Biso   1.000  H
  H87      1.0000 0.90800  0.68660  0.58730  Biso   1.000  H
  H88      1.0000 0.40800  0.18660  0.58730  Biso   1.000  H
  H89      1.0000 0.01190  0.38850  0.08330  Biso   1.000  H
  H90      1.0000 0.51190  0.88850  0.08330  Biso   1.000  H
  H91      1.0000 0.98810  0.38850  0.41670  Biso   1.000  H
  H92      1.0000 0.48810  0.88850  0.41670  Biso   1.000  H
  H93      1.0000 0.98810  0.61150  0.91670  Biso   1.000  H
  H94      1.0000 0.48810  0.11150  0.91670  Biso   1.000  H
  H95      1.0000 0.01190  0.61150  0.58330  Biso   1.000  H
  H96      1.0000 0.51190  0.11150  0.58330  Biso   1.000  H
  C49      1.0000 0.86500  0.54870  0.61920  Biso   1.000  C
  C50      1.0000 0.36500  0.04870  0.61920  Biso   1.000  C
  C51      1.0000 0.13500  0.54870  0.88080  Biso   1.000  C
  C52      1.0000 0.63500  0.04870  0.88080  Biso   1.000  C
  C53      1.0000 0.13500  0.45130  0.38080  Biso   1.000  C
  C54      1.0000 0.63500  0.95130  0.38080  Biso   1.000  C
  C55      1.0000 0.86500  0.45130  0.11920  Biso   1.000  C
  C56      1.0000 0.36500  0.95130  0.11920  Biso   1.000  C
  C57      1.0000 0.76650  0.52180  0.57400  Biso   1.000  C
  C58      1.0000 0.26650  0.02180  0.57400  Biso   1.000  C
  C59      1.0000 0.23350  0.52180  0.92600  Biso   1.000  C
  C60      1.0000 0.73350  0.02180  0.92600  Biso   1.000  C
  C61      1.0000 0.23350  0.47820  0.42600  Biso   1.000  C
  C62      1.0000 0.73350  0.97820  0.42600  Biso   1.000  C
  C63      1.0000 0.76650  0.47820  0.07400  Biso   1.000  C
  C64      1.0000 0.26650  0.97820  0.07400  Biso   1.000  C
  C65      1.0000 0.71990  0.56160  0.10410  Biso   1.000  C
  C66      1.0000 0.21990  0.06160  0.10410  Biso   1.000  C
  C67      1.0000 0.28010  0.56160  0.39590  Biso   1.000  C
  C68      1.0000 0.78010  0.06160  0.39590  Biso   1.000  C
  C69      1.0000 0.28010  0.43840  0.89590  Biso   1.000  C
  C70      1.0000 0.78010  0.93840  0.89590  Biso   1.000  C
  C71      1.0000 0.71990  0.43840  0.60410  Biso   1.000  C
  C72      1.0000 0.21990  0.93840  0.60410  Biso   1.000  C
  C73      1.0000 0.61920  0.62620  0.08260  Biso   1.000  C
  C74      1.0000 0.11920  0.12620  0.08260  Biso   1.000  C
  C75      1.0000 0.38080  0.62620  0.41740  Biso   1.000  C
  C76      1.0000 0.88080  0.12620  0.41740  Biso   1.000  C
  C77      1.0000 0.38080  0.37380  0.91740  Biso   1.000  C
  C78      1.0000 0.88080  0.87380  0.91740  Biso   1.000  C
  C79      1.0000 0.61920  0.37380  0.58260  Biso   1.000  C
  C80      1.0000 0.11920  0.87380  0.58260  Biso   1.000  C
  H97      1.0000 0.64730  0.68530  0.06100  Biso   1.000  H
  H98      1.0000 0.14730  0.18530  0.06100  Biso   1.000  H
  H99      1.0000 0.35270  0.68530  0.43900  Biso   1.000  H
  H100     1.0000 0.85270  0.18530  0.43900  Biso   1.000  H
  H101     1.0000 0.35270  0.31470  0.93900  Biso   1.000  H
  H102     1.0000 0.85270  0.81470  0.93900  Biso   1.000  H
  H103     1.0000 0.64730  0.31470  0.56100  Biso   1.000  H
  H104     1.0000 0.14730  0.81470  0.56100  Biso   1.000  H
  H105     1.0000 0.56740  0.59190  0.04920  Biso   1.000  H
  H106     1.0000 0.06740  0.09190  0.04920  Biso   1.000  H
  H107     1.0000 0.43260  0.59190  0.45080  Biso   1.000  H
  H108     1.0000 0.93260  0.09190  0.45080  Biso   1.000  H
  H109     1.0000 0.43260  0.40810  0.95080  Biso   1.000  H
  H110     1.0000 0.93260  0.90810  0.95080  Biso   1.000  H
  H111     1.0000 0.56740  0.40810  0.54920  Biso   1.000  H
  H112     1.0000 0.06740  0.90810  0.54920  Biso   1.000  H
  H113     1.0000 0.57770  0.64340  0.12380  Biso   1.000  H
  H114     1.0000 0.07770  0.14340  0.12380  Biso   1.000  H
  H115     1.0000 0.42230  0.64340  0.37620  Biso   1.000  H
  H116     1.0000 0.92230  0.14340  0.37620  Biso   1.000  H
  H117     1.0000 0.42230  0.35660  0.87620  Biso   1.000  H
  H118     1.0000 0.92230  0.85660  0.87620  Biso   1.000  H
  H119     1.0000 0.57770  0.35660  0.62380  Biso   1.000  H
  H120     1.0000 0.07770  0.85660  0.62380  Biso   1.000  H
  O5       1.0000 0.00000  0.10980  0.25000  Biso   1.000  O
  O6       1.0000 0.50000  0.60980  0.25000  Biso   1.000  O
  O7       1.0000 0.00000  0.89020  0.75000  Biso   1.000  O
  O8       1.0000 0.50000  0.39020  0.75000  Biso   1.000  O
