data_image0
_cell_length_a       16.043
_cell_length_b       12.451
_cell_length_c       30.597
_cell_angle_alpha    90
_cell_angle_beta     96.44
_cell_angle_gamma    90

_symmetry_space_group_name_H-M    "P 1"
_symmetry_int_tables_number       1

loop_
  _symmetry_equiv_pos_as_xyz
  'x, y, z'

loop_
  _atom_site_label
  _atom_site_occupancy
  _atom_site_fract_x
  _atom_site_fract_y
  _atom_site_fract_z
  _atom_site_thermal_displace_type
  _atom_site_B_iso_or_equiv
  _atom_site_type_symbol
  Se1      1.0000 0.50000  0.05568  0.75000  Biso   1.000  Se
  Se2      1.0000 0.00000  0.55568  0.75000  Biso   1.000  Se
  Se3      1.0000 0.50000  0.94432  0.25000  Biso   1.000  Se
  Se4      1.0000 0.00000  0.44432  0.25000  Biso   1.000  Se
  Se5      1.0000 0.42326  0.95382  0.02979  Biso   1.000  Se
  Se6      1.0000 0.92326  0.45382  0.02979  Biso   1.000  Se
  Se7      1.0000 0.57674  0.95382  0.47021  Biso   1.000  Se
  Se8      1.0000 0.07674  0.45382  0.47021  Biso   1.000  Se
  Se9      1.0000 0.57674  0.04618  0.97021  Biso   1.000  Se
  Se10     1.0000 0.07674  0.54618  0.97021  Biso   1.000  Se
  Se11     1.0000 0.42326  0.04618  0.52979  Biso   1.000  Se
  Se12     1.0000 0.92326  0.54618  0.52979  Biso   1.000  Se
  Cu1      1.0000 0.19523  0.74726  0.14618  Biso   1.000  Cu
  Cu2      1.0000 0.69523  0.24726  0.14618  Biso   1.000  Cu
  Cu3      1.0000 0.80477  0.74726  0.35382  Biso   1.000  Cu
  Cu4      1.0000 0.30477  0.24726  0.35382  Biso   1.000  Cu
  Cu5      1.0000 0.80477  0.25274  0.85382  Biso   1.000  Cu
  Cu6      1.0000 0.30477  0.75274  0.85382  Biso   1.000  Cu
  Cu7      1.0000 0.19523  0.25274  0.64618  Biso   1.000  Cu
  Cu8      1.0000 0.69523  0.75274  0.64618  Biso   1.000  Cu
  Cl1      1.0000 0.09996  0.87910  0.16394  Biso   1.000  Cl
  Cl2      1.0000 0.59996  0.37910  0.16394  Biso   1.000  Cl
  Cl3      1.0000 0.90004  0.87910  0.33606  Biso   1.000  Cl
  Cl4      1.0000 0.40004  0.37910  0.33606  Biso   1.000  Cl
  Cl5      1.0000 0.90004  0.12090  0.83606  Biso   1.000  Cl
  Cl6      1.0000 0.40004  0.62090  0.83606  Biso   1.000  Cl
  Cl7      1.0000 0.09996  0.12090  0.66394  Biso   1.000  Cl
  Cl8      1.0000 0.59996  0.62090  0.66394  Biso   1.000  Cl
  Cl9      1.0000 0.33444  0.72737  0.18519  Biso   1.000  Cl
  Cl10     1.0000 0.83444  0.22737  0.18519  Biso   1.000  Cl
  Cl11     1.0000 0.66556  0.72737  0.31481  Biso   1.000  Cl
  Cl12     1.0000 0.16556  0.22737  0.31481  Biso   1.000  Cl
  Cl13     1.0000 0.66556  0.27263  0.81481  Biso   1.000  Cl
  Cl14     1.0000 0.16556  0.77263  0.81481  Biso   1.000  Cl
  Cl15     1.0000 0.33444  0.27263  0.68519  Biso   1.000  Cl
  Cl16     1.0000 0.83444  0.77263  0.68519  Biso   1.000  Cl
  S1       1.0000 0.05161  0.16149  0.14362  Biso   1.000  S
  S2       1.0000 0.55161  0.66149  0.14362  Biso   1.000  S
  S3       1.0000 0.94839  0.16149  0.35638  Biso   1.000  S
  S4       1.0000 0.44839  0.66149  0.35638  Biso   1.000  S
  S5       1.0000 0.94839  0.83851  0.85638  Biso   1.000  S
  S6       1.0000 0.44839  0.33851  0.85638  Biso   1.000  S
  S7       1.0000 0.05161  0.83851  0.64362  Biso   1.000  S
  S8       1.0000 0.55161  0.33851  0.64362  Biso   1.000  S
  O1       1.0000 0.13370  0.14040  0.12666  Biso   1.000  O
  O2       1.0000 0.63370  0.64040  0.12666  Biso   1.000  O
  O3       1.0000 0.86630  0.14040  0.37334  Biso   1.000  O
  O4       1.0000 0.36630  0.64040  0.37334  Biso   1.000  O
  O5       1.0000 0.86630  0.85960  0.87334  Biso   1.000  O
  O6       1.0000 0.36630  0.35960  0.87334  Biso   1.000  O
  O7       1.0000 0.13370  0.85960  0.62666  Biso   1.000  O
  O8       1.0000 0.63370  0.35960  0.62666  Biso   1.000  O
  N1       1.0000 0.24474  0.84734  0.10445  Biso   1.000  N
  N2       1.0000 0.74474  0.34734  0.10445  Biso   1.000  N
  N3       1.0000 0.75526  0.84734  0.39555  Biso   1.000  N
  N4       1.0000 0.25526  0.34734  0.39555  Biso   1.000  N
  N5       1.0000 0.75526  0.15266  0.89555  Biso   1.000  N
  N6       1.0000 0.25526  0.65266  0.89555  Biso   1.000  N
  N7       1.0000 0.24474  0.15266  0.60445  Biso   1.000  N
  N8       1.0000 0.74474  0.65266  0.60445  Biso   1.000  N
  N9       1.0000 0.23147  0.95569  0.10391  Biso   1.000  N
  N10      1.0000 0.73147  0.45569  0.10391  Biso   1.000  N
  N11      1.0000 0.76853  0.95569  0.39609  Biso   1.000  N
  N12      1.0000 0.26853  0.45569  0.39609  Biso   1.000  N
  N13      1.0000 0.76853  0.04431  0.89609  Biso   1.000  N
  N14      1.0000 0.26853  0.54431  0.89609  Biso   1.000  N
  N15      1.0000 0.23147  0.04431  0.60391  Biso   1.000  N
  N16      1.0000 0.73147  0.54431  0.60391  Biso   1.000  N
  N17      1.0000 0.16089  0.64097  0.09518  Biso   1.000  N
  N18      1.0000 0.66089  0.14097  0.09518  Biso   1.000  N
  N19      1.0000 0.83911  0.64097  0.40482  Biso   1.000  N
  N20      1.0000 0.33911  0.14097  0.40482  Biso   1.000  N
  N21      1.0000 0.83911  0.35903  0.90482  Biso   1.000  N
  N22      1.0000 0.33911  0.85903  0.90482  Biso   1.000  N
  N23      1.0000 0.16089  0.35903  0.59518  Biso   1.000  N
  N24      1.0000 0.66089  0.85903  0.59518  Biso   1.000  N
  N25      1.0000 0.18488  0.53590  0.09573  Biso   1.000  N
  N26      1.0000 0.68488  0.03590  0.09573  Biso   1.000  N
  N27      1.0000 0.81512  0.53590  0.40427  Biso   1.000  N
  N28      1.0000 0.31512  0.03590  0.40427  Biso   1.000  N
  N29      1.0000 0.81512  0.46410  0.90427  Biso   1.000  N
  N30      1.0000 0.31512  0.96410  0.90427  Biso   1.000  N
  N31      1.0000 0.18488  0.46410  0.59573  Biso   1.000  N
  N32      1.0000 0.68488  0.96410  0.59573  Biso   1.000  N
  N33      1.0000 0.34883  0.85470  0.81135  Biso   1.000  N
  N34      1.0000 0.84883  0.35470  0.81135  Biso   1.000  N
  N35      1.0000 0.65117  0.85470  0.68865  Biso   1.000  N
  N36      1.0000 0.15117  0.35470  0.68865  Biso   1.000  N
  N37      1.0000 0.65117  0.14530  0.18865  Biso   1.000  N
  N38      1.0000 0.15117  0.64530  0.18865  Biso   1.000  N
  N39      1.0000 0.34883  0.14530  0.31135  Biso   1.000  N
  N40      1.0000 0.84883  0.64530  0.31135  Biso   1.000  N
  N41      1.0000 0.30114  0.87710  0.77299  Biso   1.000  N
  N42      1.0000 0.80114  0.37710  0.77299  Biso   1.000  N
  N43      1.0000 0.69886  0.87710  0.72701  Biso   1.000  N
  N44      1.0000 0.19886  0.37710  0.72701  Biso   1.000  N
  N45      1.0000 0.69886  0.12290  0.22701  Biso   1.000  N
  N46      1.0000 0.19886  0.62290  0.22701  Biso   1.000  N
  N47      1.0000 0.30114  0.12290  0.27299  Biso   1.000  N
  N48      1.0000 0.80114  0.62290  0.27299  Biso   1.000  N
  C1       1.0000 0.33750  0.71970  0.07049  Biso   1.000  C
  C2       1.0000 0.83750  0.21970  0.07049  Biso   1.000  C
  C3       1.0000 0.66250  0.71970  0.42951  Biso   1.000  C
  C4       1.0000 0.16250  0.21970  0.42951  Biso   1.000  C
  C5       1.0000 0.66250  0.28030  0.92951  Biso   1.000  C
  C6       1.0000 0.16250  0.78030  0.92951  Biso   1.000  C
  C7       1.0000 0.33750  0.28030  0.57049  Biso   1.000  C
  C8       1.0000 0.83750  0.78030  0.57049  Biso   1.000  C
  H1       1.0000 0.34310  0.67920  0.09730  Biso   1.000  H
  H2       1.0000 0.84310  0.17920  0.09730  Biso   1.000  H
  H3       1.0000 0.65690  0.67920  0.40270  Biso   1.000  H
  H4       1.0000 0.15690  0.17920  0.40270  Biso   1.000  H
  H5       1.0000 0.65690  0.32080  0.90270  Biso   1.000  H
  H6       1.0000 0.15690  0.82080  0.90270  Biso   1.000  H
  H7       1.0000 0.34310  0.32080  0.59730  Biso   1.000  H
  H8       1.0000 0.84310  0.82080  0.59730  Biso   1.000  H
  H9       1.0000 0.39110  0.72490  0.05950  Biso   1.000  H
  H10      1.0000 0.89110  0.22490  0.05950  Biso   1.000  H
  H11      1.0000 0.60890  0.72490  0.44050  Biso   1.000  H
  H12      1.0000 0.10890  0.22490  0.44050  Biso   1.000  H
  H13      1.0000 0.60890  0.27510  0.94050  Biso   1.000  H
  H14      1.0000 0.10890  0.77510  0.94050  Biso   1.000  H
  H15      1.0000 0.39110  0.27510  0.55950  Biso   1.000  H
  H16      1.0000 0.89110  0.77510  0.55950  Biso   1.000  H
  H17      1.0000 0.29850  0.68440  0.04910  Biso   1.000  H
  H18      1.0000 0.79850  0.18440  0.04910  Biso   1.000  H
  H19      1.0000 0.70150  0.68440  0.45090  Biso   1.000  H
  H20      1.0000 0.20150  0.18440  0.45090  Biso   1.000  H
  H21      1.0000 0.70150  0.31560  0.95090  Biso   1.000  H
  H22      1.0000 0.20150  0.81560  0.95090  Biso   1.000  H
  H23      1.0000 0.29850  0.31560  0.54910  Biso   1.000  H
  H24      1.0000 0.79850  0.81560  0.54910  Biso   1.000  H
  C9       1.0000 0.30602  0.83000  0.07910  Biso   1.000  C
  C10      1.0000 0.80602  0.33000  0.07910  Biso   1.000  C
  C11      1.0000 0.69398  0.83000  0.42090  Biso   1.000  C
  C12      1.0000 0.19398  0.33000  0.42090  Biso   1.000  C
  C13      1.0000 0.69398  0.17000  0.92090  Biso   1.000  C
  C14      1.0000 0.19398  0.67000  0.92090  Biso   1.000  C
  C15      1.0000 0.30602  0.17000  0.57910  Biso   1.000  C
  C16      1.0000 0.80602  0.67000  0.57910  Biso   1.000  C
  C17      1.0000 0.33202  0.92870  0.06279  Biso   1.000  C
  C18      1.0000 0.83202  0.42870  0.06279  Biso   1.000  C
  C19      1.0000 0.66798  0.92870  0.43721  Biso   1.000  C
  C20      1.0000 0.16798  0.42870  0.43721  Biso   1.000  C
  C21      1.0000 0.66798  0.07130  0.93721  Biso   1.000  C
  C22      1.0000 0.16798  0.57130  0.93721  Biso   1.000  C
  C23      1.0000 0.33202  0.07130  0.56279  Biso   1.000  C
  C24      1.0000 0.83202  0.57130  0.56279  Biso   1.000  C
  C25      1.0000 0.28264  0.00710  0.07939  Biso   1.000  C
  C26      1.0000 0.78264  0.50710  0.07939  Biso   1.000  C
  C27      1.0000 0.71736  0.00710  0.42061  Biso   1.000  C
  C28      1.0000 0.21736  0.50710  0.42061  Biso   1.000  C
  C29      1.0000 0.71736  0.99290  0.92061  Biso   1.000  C
  C30      1.0000 0.21736  0.49290  0.92061  Biso   1.000  C
  C31      1.0000 0.28264  0.99290  0.57939  Biso   1.000  C
  C32      1.0000 0.78264  0.49290  0.57939  Biso   1.000  C
  C33      1.0000 0.28290  0.12600  0.07382  Biso   1.000  C
  C34      1.0000 0.78290  0.62600  0.07382  Biso   1.000  C
  C35      1.0000 0.71710  0.12600  0.42618  Biso   1.000  C
  C36      1.0000 0.21710  0.62600  0.42618  Biso   1.000  C
  C37      1.0000 0.71710  0.87400  0.92618  Biso   1.000  C
  C38      1.0000 0.21710  0.37400  0.92618  Biso   1.000  C
  C39      1.0000 0.28290  0.87400  0.57382  Biso   1.000  C
  C40      1.0000 0.78290  0.37400  0.57382  Biso   1.000  C
  H25      1.0000 0.24060  0.14610  0.05060  Biso   1.000  H
  H26      1.0000 0.74060  0.64610  0.05060  Biso   1.000  H
  H27      1.0000 0.75940  0.14610  0.44940  Biso   1.000  H
  H28      1.0000 0.25940  0.64610  0.44940  Biso   1.000  H
  H29      1.0000 0.75940  0.85390  0.94940  Biso   1.000  H
  H30      1.0000 0.25940  0.35390  0.94940  Biso   1.000  H
  H31      1.0000 0.24060  0.85390  0.55060  Biso   1.000  H
  H32      1.0000 0.74060  0.35390  0.55060  Biso   1.000  H
  H33      1.0000 0.33680  0.14880  0.06660  Biso   1.000  H
  H34      1.0000 0.83680  0.64880  0.06660  Biso   1.000  H
  H35      1.0000 0.66320  0.14880  0.43340  Biso   1.000  H
  H36      1.0000 0.16320  0.64880  0.43340  Biso   1.000  H
  H37      1.0000 0.66320  0.85120  0.93340  Biso   1.000  H
  H38      1.0000 0.16320  0.35120  0.93340  Biso   1.000  H
  H39      1.0000 0.33680  0.85120  0.56660  Biso   1.000  H
  H40      1.0000 0.83680  0.35120  0.56660  Biso   1.000  H
  H41      1.0000 0.27130  0.15970  0.10070  Biso   1.000  H
  H42      1.0000 0.77130  0.65970  0.10070  Biso   1.000  H
  H43      1.0000 0.72870  0.15970  0.39930  Biso   1.000  H
  H44      1.0000 0.22870  0.65970  0.39930  Biso   1.000  H
  H45      1.0000 0.72870  0.84030  0.89930  Biso   1.000  H
  H46      1.0000 0.22870  0.34030  0.89930  Biso   1.000  H
  H47      1.0000 0.27130  0.84030  0.60070  Biso   1.000  H
  H48      1.0000 0.77130  0.34030  0.60070  Biso   1.000  H
  C41      1.0000 0.08660  0.76490  0.04172  Biso   1.000  C
  C42      1.0000 0.58660  0.26490  0.04172  Biso   1.000  C
  C43      1.0000 0.91340  0.76490  0.45828  Biso   1.000  C
  C44      1.0000 0.41340  0.26490  0.45828  Biso   1.000  C
  C45      1.0000 0.91340  0.23510  0.95828  Biso   1.000  C
  C46      1.0000 0.41340  0.73510  0.95828  Biso   1.000  C
  C47      1.0000 0.08660  0.23510  0.54172  Biso   1.000  C
  C48      1.0000 0.58660  0.73510  0.54172  Biso   1.000  C
  H49      1.0000 0.07270  0.80160  0.06750  Biso   1.000  H
  H50      1.0000 0.57270  0.30160  0.06750  Biso   1.000  H
  H51      1.0000 0.92730  0.80160  0.43250  Biso   1.000  H
  H52      1.0000 0.42730  0.30160  0.43250  Biso   1.000  H
  H53      1.0000 0.92730  0.19840  0.93250  Biso   1.000  H
  H54      1.0000 0.42730  0.69840  0.93250  Biso   1.000  H
  H55      1.0000 0.07270  0.19840  0.56750  Biso   1.000  H
  H56      1.0000 0.57270  0.69840  0.56750  Biso   1.000  H
  H57      1.0000 0.12600  0.80710  0.02770  Biso   1.000  H
  H58      1.0000 0.62600  0.30710  0.02770  Biso   1.000  H
  H59      1.0000 0.87400  0.80710  0.47230  Biso   1.000  H
  H60      1.0000 0.37400  0.30710  0.47230  Biso   1.000  H
  H61      1.0000 0.87400  0.19290  0.97230  Biso   1.000  H
  H62      1.0000 0.37400  0.69290  0.97230  Biso   1.000  H
  H63      1.0000 0.12600  0.19290  0.52770  Biso   1.000  H
  H64      1.0000 0.62600  0.69290  0.52770  Biso   1.000  H
  H65      1.0000 0.03670  0.75460  0.02180  Biso   1.000  H
  H66      1.0000 0.53670  0.25460  0.02180  Biso   1.000  H
  H67      1.0000 0.96330  0.75460  0.47820  Biso   1.000  H
  H68      1.0000 0.46330  0.25460  0.47820  Biso   1.000  H
  H69      1.0000 0.96330  0.24540  0.97820  Biso   1.000  H
  H70      1.0000 0.46330  0.74540  0.97820  Biso   1.000  H
  H71      1.0000 0.03670  0.24540  0.52180  Biso   1.000  H
  H72      1.0000 0.53670  0.74540  0.52180  Biso   1.000  H
  C49      1.0000 0.12431  0.65890  0.05441  Biso   1.000  C
  C50      1.0000 0.62431  0.15890  0.05441  Biso   1.000  C
  C51      1.0000 0.87569  0.65890  0.44559  Biso   1.000  C
  C52      1.0000 0.37569  0.15890  0.44559  Biso   1.000  C
  C53      1.0000 0.87569  0.34110  0.94559  Biso   1.000  C
  C54      1.0000 0.37569  0.84110  0.94559  Biso   1.000  C
  C55      1.0000 0.12431  0.34110  0.55441  Biso   1.000  C
  C56      1.0000 0.62431  0.84110  0.55441  Biso   1.000  C
  C57      1.0000 0.37321  0.93430  0.97108  Biso   1.000  C
  C58      1.0000 0.87321  0.43430  0.97108  Biso   1.000  C
  C59      1.0000 0.62679  0.93430  0.52892  Biso   1.000  C
  C60      1.0000 0.12679  0.43430  0.52892  Biso   1.000  C
  C61      1.0000 0.62679  0.06570  0.02892  Biso   1.000  C
  C62      1.0000 0.12679  0.56570  0.02892  Biso   1.000  C
  C63      1.0000 0.37321  0.06570  0.47108  Biso   1.000  C
  C64      1.0000 0.87321  0.56570  0.47108  Biso   1.000  C
  C65      1.0000 0.16500  0.48810  0.05648  Biso   1.000  C
  C66      1.0000 0.66500  0.98810  0.05648  Biso   1.000  C
  C67      1.0000 0.83500  0.48810  0.44352  Biso   1.000  C
  C68      1.0000 0.33500  0.98810  0.44352  Biso   1.000  C
  C69      1.0000 0.83500  0.51190  0.94352  Biso   1.000  C
  C70      1.0000 0.33500  0.01190  0.94352  Biso   1.000  C
  C71      1.0000 0.16500  0.51190  0.55648  Biso   1.000  C
  C72      1.0000 0.66500  0.01190  0.55648  Biso   1.000  C
  C73      1.0000 0.18150  0.37230  0.04894  Biso   1.000  C
  C74      1.0000 0.68150  0.87230  0.04894  Biso   1.000  C
  C75      1.0000 0.81850  0.37230  0.45106  Biso   1.000  C
  C76      1.0000 0.31850  0.87230  0.45106  Biso   1.000  C
  C77      1.0000 0.81850  0.62770  0.95106  Biso   1.000  C
  C78      1.0000 0.31850  0.12770  0.95106  Biso   1.000  C
  C79      1.0000 0.18150  0.62770  0.54894  Biso   1.000  C
  C80      1.0000 0.68150  0.12770  0.54894  Biso   1.000  C
  H73      1.0000 0.23560  0.36430  0.03870  Biso   1.000  H
  H74      1.0000 0.73560  0.86430  0.03870  Biso   1.000  H
  H75      1.0000 0.76440  0.36430  0.46130  Biso   1.000  H
  H76      1.0000 0.26440  0.86430  0.46130  Biso   1.000  H
  H77      1.0000 0.76440  0.63570  0.96130  Biso   1.000  H
  H78      1.0000 0.26440  0.13570  0.96130  Biso   1.000  H
  H79      1.0000 0.23560  0.63570  0.53870  Biso   1.000  H
  H80      1.0000 0.73560  0.13570  0.53870  Biso   1.000  H
  H81      1.0000 0.18030  0.33350  0.07600  Biso   1.000  H
  H82      1.0000 0.68030  0.83350  0.07600  Biso   1.000  H
  H83      1.0000 0.81970  0.33350  0.42400  Biso   1.000  H
  H84      1.0000 0.31970  0.83350  0.42400  Biso   1.000  H
  H85      1.0000 0.81970  0.66650  0.92400  Biso   1.000  H
  H86      1.0000 0.31970  0.16650  0.92400  Biso   1.000  H
  H87      1.0000 0.18030  0.66650  0.57600  Biso   1.000  H
  H88      1.0000 0.68030  0.16650  0.57600  Biso   1.000  H
  H89      1.0000 0.13910  0.34450  0.02720  Biso   1.000  H
  H90      1.0000 0.63910  0.84450  0.02720  Biso   1.000  H
  H91      1.0000 0.86090  0.34450  0.47280  Biso   1.000  H
  H92      1.0000 0.36090  0.84450  0.47280  Biso   1.000  H
  H93      1.0000 0.86090  0.65550  0.97280  Biso   1.000  H
  H94      1.0000 0.36090  0.15550  0.97280  Biso   1.000  H
  H95      1.0000 0.13910  0.65550  0.52720  Biso   1.000  H
  H96      1.0000 0.63910  0.15550  0.52720  Biso   1.000  H
  C81      1.0000 0.50710  0.89570  0.65512  Biso   1.000  C
  C82      1.0000 0.00710  0.39570  0.65512  Biso   1.000  C
  C83      1.0000 0.49290  0.89570  0.84488  Biso   1.000  C
  C84      1.0000 0.99290  0.39570  0.84488  Biso   1.000  C
  C85      1.0000 0.49290  0.10430  0.34488  Biso   1.000  C
  C86      1.0000 0.99290  0.60430  0.34488  Biso   1.000  C
  C87      1.0000 0.50710  0.10430  0.15512  Biso   1.000  C
  C88      1.0000 0.00710  0.60430  0.15512  Biso   1.000  C
  H97      1.0000 0.50480  0.82420  0.64340  Biso   1.000  H
  H98      1.0000 0.00480  0.32420  0.64340  Biso   1.000  H
  H99      1.0000 0.49520  0.82420  0.85660  Biso   1.000  H
  H100     1.0000 0.99520  0.32420  0.85660  Biso   1.000  H
  H101     1.0000 0.49520  0.17580  0.35660  Biso   1.000  H
  H102     1.0000 0.99520  0.67580  0.35660  Biso   1.000  H
  H103     1.0000 0.50480  0.17580  0.14340  Biso   1.000  H
  H104     1.0000 0.00480  0.67580  0.14340  Biso   1.000  H
  H105     1.0000 0.45540  0.91170  0.66680  Biso   1.000  H
  H106     1.0000 0.95540  0.41170  0.66680  Biso   1.000  H
  H107     1.0000 0.54460  0.91170  0.83320  Biso   1.000  H
  H108     1.0000 0.04460  0.41170  0.83320  Biso   1.000  H
  H109     1.0000 0.54460  0.08830  0.33320  Biso   1.000  H
  H110     1.0000 0.04460  0.58830  0.33320  Biso   1.000  H
  H111     1.0000 0.45540  0.08830  0.16680  Biso   1.000  H
  H112     1.0000 0.95540  0.58830  0.16680  Biso   1.000  H
  H113     1.0000 0.51530  0.94600  0.63220  Biso   1.000  H
  H114     1.0000 0.01530  0.44600  0.63220  Biso   1.000  H
  H115     1.0000 0.48470  0.94600  0.86780  Biso   1.000  H
  H116     1.0000 0.98470  0.44600  0.86780  Biso   1.000  H
  H117     1.0000 0.48470  0.05400  0.36780  Biso   1.000  H
  H118     1.0000 0.98470  0.55400  0.36780  Biso   1.000  H
  H119     1.0000 0.51530  0.05400  0.13220  Biso   1.000  H
  H120     1.0000 0.01530  0.55400  0.13220  Biso   1.000  H
  C89      1.0000 0.57800  0.90400  0.69078  Biso   1.000  C
  C90      1.0000 0.07800  0.40400  0.69078  Biso   1.000  C
  C91      1.0000 0.42200  0.90400  0.80922  Biso   1.000  C
  C92      1.0000 0.92200  0.40400  0.80922  Biso   1.000  C
  C93      1.0000 0.42200  0.09600  0.30922  Biso   1.000  C
  C94      1.0000 0.92200  0.59600  0.30922  Biso   1.000  C
  C95      1.0000 0.57800  0.09600  0.19078  Biso   1.000  C
  C96      1.0000 0.07800  0.59600  0.19078  Biso   1.000  C
  C97      1.0000 0.41944  0.95950  0.76879  Biso   1.000  C
  C98      1.0000 0.91944  0.45950  0.76879  Biso   1.000  C
  C99      1.0000 0.58056  0.95950  0.73121  Biso   1.000  C
  C100     1.0000 0.08056  0.45950  0.73121  Biso   1.000  C
  C101     1.0000 0.58056  0.04050  0.23121  Biso   1.000  C
  C102     1.0000 0.08056  0.54050  0.23121  Biso   1.000  C
  C103     1.0000 0.41944  0.04050  0.26879  Biso   1.000  C
  C104     1.0000 0.91944  0.54050  0.26879  Biso   1.000  C
  C105     1.0000 0.34058  0.94100  0.74665  Biso   1.000  C
  C106     1.0000 0.84058  0.44100  0.74665  Biso   1.000  C
  C107     1.0000 0.65942  0.94100  0.75335  Biso   1.000  C
  C108     1.0000 0.15942  0.44100  0.75335  Biso   1.000  C
  C109     1.0000 0.65942  0.05900  0.25335  Biso   1.000  C
  C110     1.0000 0.15942  0.55900  0.25335  Biso   1.000  C
  C111     1.0000 0.34058  0.05900  0.24665  Biso   1.000  C
  C112     1.0000 0.84058  0.55900  0.24665  Biso   1.000  C
  C113     1.0000 0.69970  0.97650  0.79702  Biso   1.000  C
  C114     1.0000 0.19970  0.47650  0.79702  Biso   1.000  C
  C115     1.0000 0.30030  0.97650  0.70298  Biso   1.000  C
  C116     1.0000 0.80030  0.47650  0.70298  Biso   1.000  C
  C117     1.0000 0.30030  0.02350  0.20298  Biso   1.000  C
  C118     1.0000 0.80030  0.52350  0.20298  Biso   1.000  C
  C119     1.0000 0.69970  0.02350  0.29702  Biso   1.000  C
  C120     1.0000 0.19970  0.52350  0.29702  Biso   1.000  C
  H121     1.0000 0.75230  0.01060  0.79360  Biso   1.000  H
  H122     1.0000 0.25230  0.51060  0.79360  Biso   1.000  H
  H123     1.0000 0.24770  0.01060  0.70640  Biso   1.000  H
  H124     1.0000 0.74770  0.51060  0.70640  Biso   1.000  H
  H125     1.0000 0.24770  0.98940  0.20640  Biso   1.000  H
  H126     1.0000 0.74770  0.48940  0.20640  Biso   1.000  H
  H127     1.0000 0.75230  0.98940  0.29360  Biso   1.000  H
  H128     1.0000 0.25230  0.48940  0.29360  Biso   1.000  H
  H129     1.0000 0.66360  0.02650  0.80960  Biso   1.000  H
  H130     1.0000 0.16360  0.52650  0.80960  Biso   1.000  H
  H131     1.0000 0.33640  0.02650  0.69040  Biso   1.000  H
  H132     1.0000 0.83640  0.52650  0.69040  Biso   1.000  H
  H133     1.0000 0.33640  0.97350  0.19040  Biso   1.000  H
  H134     1.0000 0.83640  0.47350  0.19040  Biso   1.000  H
  H135     1.0000 0.66360  0.97350  0.30960  Biso   1.000  H
  H136     1.0000 0.16360  0.47350  0.30960  Biso   1.000  H
  H137     1.0000 0.70930  0.91540  0.81600  Biso   1.000  H
  H138     1.0000 0.20930  0.41540  0.81600  Biso   1.000  H
  H139     1.0000 0.29070  0.91540  0.68400  Biso   1.000  H
  H140     1.0000 0.79070  0.41540  0.68400  Biso   1.000  H
  H141     1.0000 0.29070  0.08460  0.18400  Biso   1.000  H
  H142     1.0000 0.79070  0.58460  0.18400  Biso   1.000  H
  H143     1.0000 0.70930  0.08460  0.31600  Biso   1.000  H
  H144     1.0000 0.20930  0.58460  0.31600  Biso   1.000  H
  C121     1.0000 0.03300  0.30320  0.13727  Biso   1.000  C
  C122     1.0000 0.53300  0.80320  0.13727  Biso   1.000  C
  C123     1.0000 0.96700  0.30320  0.36273  Biso   1.000  C
  C124     1.0000 0.46700  0.80320  0.36273  Biso   1.000  C
  C125     1.0000 0.96700  0.69680  0.86273  Biso   1.000  C
  C126     1.0000 0.46700  0.19680  0.86273  Biso   1.000  C
  C127     1.0000 0.03300  0.69680  0.63727  Biso   1.000  C
  C128     1.0000 0.53300  0.19680  0.63727  Biso   1.000  C
  H145     1.0000 0.08140  0.34200  0.15010  Biso   1.000  H
  H146     1.0000 0.58140  0.84200  0.15010  Biso   1.000  H
  H147     1.0000 0.91860  0.34200  0.34990  Biso   1.000  H
  H148     1.0000 0.41860  0.84200  0.34990  Biso   1.000  H
  H149     1.0000 0.91860  0.65800  0.84990  Biso   1.000  H
  H150     1.0000 0.41860  0.15800  0.84990  Biso   1.000  H
  H151     1.0000 0.08140  0.65800  0.65010  Biso   1.000  H
  H152     1.0000 0.58140  0.15800  0.65010  Biso   1.000  H
  H153     1.0000 0.98520  0.32290  0.15170  Biso   1.000  H
  H154     1.0000 0.48520  0.82290  0.15170  Biso   1.000  H
  H155     1.0000 0.01480  0.32290  0.34830  Biso   1.000  H
  H156     1.0000 0.51480  0.82290  0.34830  Biso   1.000  H
  H157     1.0000 0.01480  0.67710  0.84830  Biso   1.000  H
  H158     1.0000 0.51480  0.17710  0.84830  Biso   1.000  H
  H159     1.0000 0.98520  0.67710  0.65170  Biso   1.000  H
  H160     1.0000 0.48520  0.17710  0.65170  Biso   1.000  H
  H161     1.0000 0.02260  0.32040  0.10660  Biso   1.000  H
  H162     1.0000 0.52260  0.82040  0.10660  Biso   1.000  H
  H163     1.0000 0.97740  0.32040  0.39340  Biso   1.000  H
  H164     1.0000 0.47740  0.82040  0.39340  Biso   1.000  H
  H165     1.0000 0.97740  0.67960  0.89340  Biso   1.000  H
  H166     1.0000 0.47740  0.17960  0.89340  Biso   1.000  H
  H167     1.0000 0.02260  0.67960  0.60660  Biso   1.000  H
  H168     1.0000 0.52260  0.17960  0.60660  Biso   1.000  H
  C129     1.0000 0.07020  0.16110  0.20154  Biso   1.000  C
  C130     1.0000 0.57020  0.66110  0.20154  Biso   1.000  C
  C131     1.0000 0.92980  0.16110  0.29846  Biso   1.000  C
  C132     1.0000 0.42980  0.66110  0.29846  Biso   1.000  C
  C133     1.0000 0.92980  0.83890  0.79846  Biso   1.000  C
  C134     1.0000 0.42980  0.33890  0.79846  Biso   1.000  C
  C135     1.0000 0.07020  0.83890  0.70154  Biso   1.000  C
  C136     1.0000 0.57020  0.33890  0.70154  Biso   1.000  C
  H169     1.0000 0.08890  0.09120  0.21150  Biso   1.000  H
  H170     1.0000 0.58890  0.59120  0.21150  Biso   1.000  H
  H171     1.0000 0.91110  0.09120  0.28850  Biso   1.000  H
  H172     1.0000 0.41110  0.59120  0.28850  Biso   1.000  H
  H173     1.0000 0.91110  0.90880  0.78850  Biso   1.000  H
  H174     1.0000 0.41110  0.40880  0.78850  Biso   1.000  H
  H175     1.0000 0.08890  0.90880  0.71150  Biso   1.000  H
  H176     1.0000 0.58890  0.40880  0.71150  Biso   1.000  H
  H177     1.0000 0.01930  0.17880  0.21370  Biso   1.000  H
  H178     1.0000 0.51930  0.67880  0.21370  Biso   1.000  H
  H179     1.0000 0.98070  0.17880  0.28630  Biso   1.000  H
  H180     1.0000 0.48070  0.67880  0.28630  Biso   1.000  H
  H181     1.0000 0.98070  0.82120  0.78630  Biso   1.000  H
  H182     1.0000 0.48070  0.32120  0.78630  Biso   1.000  H
  H183     1.0000 0.01930  0.82120  0.71370  Biso   1.000  H
  H184     1.0000 0.51930  0.32120  0.71370  Biso   1.000  H
  H185     1.0000 0.11260  0.21330  0.21090  Biso   1.000  H
  H186     1.0000 0.61260  0.71330  0.21090  Biso   1.000  H
  H187     1.0000 0.88740  0.21330  0.28910  Biso   1.000  H
  H188     1.0000 0.38740  0.71330  0.28910  Biso   1.000  H
  H189     1.0000 0.88740  0.78670  0.78910  Biso   1.000  H
  H190     1.0000 0.38740  0.28670  0.78910  Biso   1.000  H
  H191     1.0000 0.11260  0.78670  0.71090  Biso   1.000  H
  H192     1.0000 0.61260  0.28670  0.71090  Biso   1.000  H
  H193     1.0000 0.19500  0.98600  0.11730  Biso   1.000  H
  H194     1.0000 0.69500  0.48600  0.11730  Biso   1.000  H
  H195     1.0000 0.80500  0.98600  0.38270  Biso   1.000  H
  H196     1.0000 0.30500  0.48600  0.38270  Biso   1.000  H
  H197     1.0000 0.80500  0.01400  0.88270  Biso   1.000  H
  H198     1.0000 0.30500  0.51400  0.88270  Biso   1.000  H
  H199     1.0000 0.19500  0.01400  0.61730  Biso   1.000  H
  H200     1.0000 0.69500  0.51400  0.61730  Biso   1.000  H
  H201     1.0000 0.20600  0.51000  0.11830  Biso   1.000  H
  H202     1.0000 0.70600  0.01000  0.11830  Biso   1.000  H
  H203     1.0000 0.79400  0.51000  0.38170  Biso   1.000  H
  H204     1.0000 0.29400  0.01000  0.38170  Biso   1.000  H
  H205     1.0000 0.79400  0.49000  0.88170  Biso   1.000  H
  H206     1.0000 0.29400  0.99000  0.88170  Biso   1.000  H
  H207     1.0000 0.20600  0.49000  0.61830  Biso   1.000  H
  H208     1.0000 0.70600  0.99000  0.61830  Biso   1.000  H
  H209     1.0000 0.74800  0.85700  0.72880  Biso   1.000  H
  H210     1.0000 0.24800  0.35700  0.72880  Biso   1.000  H
  H211     1.0000 0.25200  0.85700  0.77120  Biso   1.000  H
  H212     1.0000 0.75200  0.35700  0.77120  Biso   1.000  H
  H213     1.0000 0.25200  0.14300  0.27120  Biso   1.000  H
  H214     1.0000 0.75200  0.64300  0.27120  Biso   1.000  H
  H215     1.0000 0.74800  0.14300  0.22880  Biso   1.000  H
  H216     1.0000 0.24800  0.64300  0.22880  Biso   1.000  H
  S9       1.0000 0.32361  0.35143  0.16984  Biso   1.000  S
  S10      1.0000 0.82361  0.85143  0.16984  Biso   1.000  S
  S11      1.0000 0.67639  0.35143  0.33016  Biso   1.000  S
  S12      1.0000 0.17639  0.85143  0.33016  Biso   1.000  S
  S13      1.0000 0.67639  0.64857  0.83016  Biso   1.000  S
  S14      1.0000 0.17639  0.14857  0.83016  Biso   1.000  S
  S15      1.0000 0.32361  0.64857  0.66984  Biso   1.000  S
  S16      1.0000 0.82361  0.14857  0.66984  Biso   1.000  S
  O9       1.0000 0.23850  0.40450  0.16563  Biso   1.000  O
  O10      1.0000 0.73850  0.90450  0.16563  Biso   1.000  O
  O11      1.0000 0.76150  0.40450  0.33437  Biso   1.000  O
  O12      1.0000 0.26150  0.90450  0.33437  Biso   1.000  O
  O13      1.0000 0.76150  0.59550  0.83437  Biso   1.000  O
  O14      1.0000 0.26150  0.09550  0.83437  Biso   1.000  O
  O15      1.0000 0.23850  0.59550  0.66563  Biso   1.000  O
  O16      1.0000 0.73850  0.09550  0.66563  Biso   1.000  O
  C137     1.0000 0.37980  0.41290  0.12957  Biso   1.000  C
  C138     1.0000 0.87980  0.91290  0.12957  Biso   1.000  C
  C139     1.0000 0.62020  0.41290  0.37043  Biso   1.000  C
  C140     1.0000 0.12020  0.91290  0.37043  Biso   1.000  C
  C141     1.0000 0.62020  0.58710  0.87043  Biso   1.000  C
  C142     1.0000 0.12020  0.08710  0.87043  Biso   1.000  C
  C143     1.0000 0.37980  0.58710  0.62957  Biso   1.000  C
  C144     1.0000 0.87980  0.08710  0.62957  Biso   1.000  C
  C145     1.0000 0.38450  0.41290  0.21626  Biso   1.000  C
  C146     1.0000 0.88450  0.91290  0.21626  Biso   1.000  C
  C147     1.0000 0.61550  0.41290  0.28374  Biso   1.000  C
  C148     1.0000 0.11550  0.91290  0.28374  Biso   1.000  C
  C149     1.0000 0.61550  0.58710  0.78374  Biso   1.000  C
  C150     1.0000 0.11550  0.08710  0.78374  Biso   1.000  C
  C151     1.0000 0.38450  0.58710  0.71626  Biso   1.000  C
  C152     1.0000 0.88450  0.08710  0.71626  Biso   1.000  C
  S17      1.0000 0.33070  0.42030  0.20389  Biso   1.000  S
  S18      1.0000 0.83070  0.92030  0.20389  Biso   1.000  S
  S19      1.0000 0.66930  0.42030  0.29611  Biso   1.000  S
  S20      1.0000 0.16930  0.92030  0.29611  Biso   1.000  S
  S21      1.0000 0.66930  0.57970  0.79611  Biso   1.000  S
  S22      1.0000 0.16930  0.07970  0.79611  Biso   1.000  S
  S23      1.0000 0.33070  0.57970  0.70389  Biso   1.000  S
  S24      1.0000 0.83070  0.07970  0.70389  Biso   1.000  S
  O17      1.0000 0.31830  0.44050  0.15500  Biso   1.000  O
  O18      1.0000 0.81830  0.94050  0.15500  Biso   1.000  O
  O19      1.0000 0.68170  0.44050  0.34500  Biso   1.000  O
  O20      1.0000 0.18170  0.94050  0.34500  Biso   1.000  O
  O21      1.0000 0.68170  0.55950  0.84500  Biso   1.000  O
  O22      1.0000 0.18170  0.05950  0.84500  Biso   1.000  O
  O23      1.0000 0.31830  0.55950  0.65500  Biso   1.000  O
  O24      1.0000 0.81830  0.05950  0.65500  Biso   1.000  O
  C153     1.0000 0.24350  0.34470  0.21480  Biso   1.000  C
  C154     1.0000 0.74350  0.84470  0.21480  Biso   1.000  C
  C155     1.0000 0.75650  0.34470  0.28520  Biso   1.000  C
  C156     1.0000 0.25650  0.84470  0.28520  Biso   1.000  C
  C157     1.0000 0.75650  0.65530  0.78520  Biso   1.000  C
  C158     1.0000 0.25650  0.15530  0.78520  Biso   1.000  C
  C159     1.0000 0.24350  0.65530  0.71480  Biso   1.000  C
  C160     1.0000 0.74350  0.15530  0.71480  Biso   1.000  C
  C161     1.0000 0.40620  0.31550  0.21150  Biso   1.000  C
  C162     1.0000 0.90620  0.81550  0.21150  Biso   1.000  C
  C163     1.0000 0.59380  0.31550  0.28850  Biso   1.000  C
  C164     1.0000 0.09380  0.81550  0.28850  Biso   1.000  C
  C165     1.0000 0.59380  0.68450  0.78850  Biso   1.000  C
  C166     1.0000 0.09380  0.18450  0.78850  Biso   1.000  C
  C167     1.0000 0.40620  0.68450  0.71150  Biso   1.000  C
  C168     1.0000 0.90620  0.18450  0.71150  Biso   1.000  C
  O25      1.0000 0.42580  0.35640  0.10000  Biso   1.000  O
  O26      1.0000 0.92580  0.85640  0.10000  Biso   1.000  O
  O27      1.0000 0.57420  0.35640  0.40000  Biso   1.000  O
  O28      1.0000 0.07420  0.85640  0.40000  Biso   1.000  O
  O29      1.0000 0.57420  0.64360  0.90000  Biso   1.000  O
  O30      1.0000 0.07420  0.14360  0.90000  Biso   1.000  O
  O31      1.0000 0.42580  0.64360  0.60000  Biso   1.000  O
  O32      1.0000 0.92580  0.14360  0.60000  Biso   1.000  O
  O33      1.0000 0.09900  0.02900  0.99440  Biso   1.000  O
  O34      1.0000 0.59900  0.52900  0.99440  Biso   1.000  O
  O35      1.0000 0.90100  0.02900  0.50560  Biso   1.000  O
  O36      1.0000 0.40100  0.52900  0.50560  Biso   1.000  O
  O37      1.0000 0.90100  0.97100  0.00560  Biso   1.000  O
  O38      1.0000 0.40100  0.47100  0.00560  Biso   1.000  O
  O39      1.0000 0.09900  0.97100  0.49440  Biso   1.000  O
  O40      1.0000 0.59900  0.47100  0.49440  Biso   1.000  O
  O41      1.0000 0.43020  0.49100  0.02910  Biso   1.000  O
  O42      1.0000 0.93020  0.99100  0.02910  Biso   1.000  O
  O43      1.0000 0.56980  0.49100  0.47090  Biso   1.000  O
  O44      1.0000 0.06980  0.99100  0.47090  Biso   1.000  O
  O45      1.0000 0.56980  0.50900  0.97090  Biso   1.000  O
  O46      1.0000 0.06980  0.00900  0.97090  Biso   1.000  O
  O47      1.0000 0.43020  0.50900  0.52910  Biso   1.000  O
  O48      1.0000 0.93020  0.00900  0.52910  Biso   1.000  O
  O49      1.0000 0.93020  0.86310  0.96920  Biso   1.000  O
  O50      1.0000 0.43020  0.36310  0.96920  Biso   1.000  O
  O51      1.0000 0.06980  0.86310  0.53080  Biso   1.000  O
  O52      1.0000 0.56980  0.36310  0.53080  Biso   1.000  O
  O53      1.0000 0.06980  0.13690  0.03080  Biso   1.000  O
  O54      1.0000 0.56980  0.63690  0.03080  Biso   1.000  O
  O55      1.0000 0.93020  0.13690  0.46920  Biso   1.000  O
  O56      1.0000 0.43020  0.63690  0.46920  Biso   1.000  O
  O57      1.0000 0.47660  0.51030  0.03470  Biso   1.000  O
  O58      1.0000 0.97660  0.01030  0.03470  Biso   1.000  O
  O59      1.0000 0.52340  0.51030  0.46530  Biso   1.000  O
  O60      1.0000 0.02340  0.01030  0.46530  Biso   1.000  O
  O61      1.0000 0.52340  0.48970  0.96530  Biso   1.000  O
  O62      1.0000 0.02340  0.98970  0.96530  Biso   1.000  O
  O63      1.0000 0.47660  0.48970  0.53470  Biso   1.000  O
  O64      1.0000 0.97660  0.98970  0.53470  Biso   1.000  O
  O65      1.0000 0.38150  0.36500  0.02250  Biso   1.000  O
  O66      1.0000 0.88150  0.86500  0.02250  Biso   1.000  O
  O67      1.0000 0.61850  0.36500  0.47750  Biso   1.000  O
  O68      1.0000 0.11850  0.86500  0.47750  Biso   1.000  O
  O69      1.0000 0.61850  0.63500  0.97750  Biso   1.000  O
  O70      1.0000 0.11850  0.13500  0.97750  Biso   1.000  O
  O71      1.0000 0.38150  0.63500  0.52250  Biso   1.000  O
  O72      1.0000 0.88150  0.13500  0.52250  Biso   1.000  O
  O73      1.0000 0.55370  0.52740  0.01830  Biso   1.000  O
  O74      1.0000 0.05370  0.02740  0.01830  Biso   1.000  O
  O75      1.0000 0.44630  0.52740  0.48170  Biso   1.000  O
  O76      1.0000 0.94630  0.02740  0.48170  Biso   1.000  O
  O77      1.0000 0.44630  0.47260  0.98170  Biso   1.000  O
  O78      1.0000 0.94630  0.97260  0.98170  Biso   1.000  O
  O79      1.0000 0.55370  0.47260  0.51830  Biso   1.000  O
  O80      1.0000 0.05370  0.97260  0.51830  Biso   1.000  O
  O81      1.0000 0.53250  0.55900  0.04060  Biso   1.000  O
  O82      1.0000 0.03250  0.05900  0.04060  Biso   1.000  O
  O83      1.0000 0.46750  0.55900  0.45940  Biso   1.000  O
  O84      1.0000 0.96750  0.05900  0.45940  Biso   1.000  O
  O85      1.0000 0.46750  0.44100  0.95940  Biso   1.000  O
  O86      1.0000 0.96750  0.94100  0.95940  Biso   1.000  O
  O87      1.0000 0.53250  0.44100  0.54060  Biso   1.000  O
  O88      1.0000 0.03250  0.94100  0.54060  Biso   1.000  O
