data_image0
_cell_length_a       7.92
_cell_length_b       10.042
_cell_length_c       11.524
_cell_angle_alpha    92.54
_cell_angle_beta     95.345
_cell_angle_gamma    104.644

_symmetry_space_group_name_H-M    "P 1"
_symmetry_int_tables_number       1

loop_
  _symmetry_equiv_pos_as_xyz
  'x, y, z'

loop_
  _atom_site_label
  _atom_site_occupancy
  _atom_site_fract_x
  _atom_site_fract_y
  _atom_site_fract_z
  _atom_site_thermal_displace_type
  _atom_site_B_iso_or_equiv
  _atom_site_type_symbol
  Cu1      1.0000 0.50000  0.00000  0.00000  Biso   1.000  Cu
  S1       1.0000 0.53467  0.39099  0.27426  Biso   1.000  S
  S2       1.0000 0.46533  0.60901  0.72574  Biso   1.000  S
  O1       1.0000 0.50730  0.02530  0.16850  Biso   1.000  O
  O2       1.0000 0.49270  0.97470  0.83150  Biso   1.000  O
  O3       1.0000 0.28440  0.11120  0.10910  Biso   1.000  O
  O4       1.0000 0.71560  0.88880  0.89090  Biso   1.000  O
  C1       1.0000 0.23870  0.58420  0.04070  Biso   1.000  C
  C2       1.0000 0.76130  0.41580  0.95930  Biso   1.000  C
  H1       1.0000 0.27560  0.51020  0.07010  Biso   1.000  H
  H2       1.0000 0.72440  0.48980  0.92990  Biso   1.000  H
  C3       1.0000 0.06590  0.56640  0.99980  Biso   1.000  C
  C4       1.0000 0.93410  0.43360  0.00020  Biso   1.000  C
  C5       1.0000 0.02430  0.68060  0.95640  Biso   1.000  C
  C6       1.0000 0.97570  0.31940  0.04360  Biso   1.000  C
  H3       1.0000 0.90960  0.67530  0.92600  Biso   1.000  H
  H4       1.0000 0.09040  0.32470  0.07400  Biso   1.000  H
  C7       1.0000 0.15200  0.80350  0.95780  Biso   1.000  C
  C8       1.0000 0.84800  0.19650  0.04220  Biso   1.000  C
  H5       1.0000 0.11900  0.87910  0.92880  Biso   1.000  H
  H6       1.0000 0.88100  0.12090  0.07120  Biso   1.000  H
  C9       1.0000 0.88250  0.54080  0.28900  Biso   1.000  C
  C10      1.0000 0.11750  0.45920  0.71100  Biso   1.000  C
  C11      1.0000 0.76450  0.41580  0.30880  Biso   1.000  C
  C12      1.0000 0.23550  0.58420  0.69120  Biso   1.000  C
  C13      1.0000 0.82980  0.31180  0.35390  Biso   1.000  C
  C14      1.0000 0.17020  0.68820  0.64610  Biso   1.000  C
  H7       1.0000 0.75290  0.22790  0.36530  Biso   1.000  H
  H8       1.0000 0.24710  0.77210  0.63470  Biso   1.000  H
  C15      1.0000 0.00710  0.33070  0.38220  Biso   1.000  C
  C16      1.0000 0.99290  0.66930  0.61780  Biso   1.000  C
  H9       1.0000 0.04920  0.25940  0.41240  Biso   1.000  H
  H10      1.0000 0.95080  0.74060  0.58760  Biso   1.000  H
  C17      1.0000 0.12140  0.45340  0.36630  Biso   1.000  C
  C18      1.0000 0.87860  0.54660  0.63370  Biso   1.000  C
  H11      1.0000 0.24100  0.46640  0.38690  Biso   1.000  H
  H12      1.0000 0.75900  0.53360  0.61310  Biso   1.000  H
  C19      1.0000 0.06020  0.55680  0.32020  Biso   1.000  C
  C20      1.0000 0.93980  0.44320  0.67980  Biso   1.000  C
  H13      1.0000 0.13930  0.64000  0.30940  Biso   1.000  H
  H14      1.0000 0.86070  0.36000  0.69060  Biso   1.000  H
  O5       1.0000 0.67820  0.63530  0.17980  Biso   1.000  O
  O6       1.0000 0.32180  0.36470  0.82020  Biso   1.000  O
  C21      1.0000 0.82050  0.65020  0.23370  Biso   1.000  C
  C22      1.0000 0.17950  0.34980  0.76630  Biso   1.000  C
  O7       1.0000 0.93940  0.77320  0.24540  Biso   1.000  O
  O8       1.0000 0.06060  0.22680  0.75460  Biso   1.000  O
  N1       1.0000 0.31830  0.81980  0.99790  Biso   1.000  N
  N2       1.0000 0.68170  0.18020  0.00210  Biso   1.000  N
  C23      1.0000 0.35790  0.70940  0.03890  Biso   1.000  C
  C24      1.0000 0.64210  0.29060  0.96110  Biso   1.000  C
  H15      1.0000 0.47360  0.71720  0.06840  Biso   1.000  H
  H16      1.0000 0.52640  0.28280  0.93160  Biso   1.000  H
  C25      1.0000 0.44900  0.25510  0.36290  Biso   1.000  C
  C26      1.0000 0.55100  0.74490  0.63710  Biso   1.000  C
  C27      1.0000 0.44710  0.28310  0.48060  Biso   1.000  C
  C28      1.0000 0.55290  0.71690  0.51940  Biso   1.000  C
  H17      1.0000 0.49710  0.37230  0.51360  Biso   1.000  H
  H18      1.0000 0.50290  0.62770  0.48640  Biso   1.000  H
  C29      1.0000 0.37330  0.18270  0.54960  Biso   1.000  C
  C30      1.0000 0.62670  0.81730  0.45040  Biso   1.000  C
  H19      1.0000 0.37620  0.20320  0.62940  Biso   1.000  H
  H20      1.0000 0.62380  0.79680  0.37060  Biso   1.000  H
  C31      1.0000 0.29390  0.05030  0.50170  Biso   1.000  C
  C32      1.0000 0.70610  0.94970  0.49830  Biso   1.000  C
  H21      1.0000 0.24000  0.98240  0.54840  Biso   1.000  H
  H22      1.0000 0.76000  0.01760  0.45160  Biso   1.000  H
  C33      1.0000 0.29550  0.02030  0.38410  Biso   1.000  C
  C34      1.0000 0.70450  0.97970  0.61590  Biso   1.000  C
  H23      1.0000 0.24310  0.93130  0.35160  Biso   1.000  H
  H24      1.0000 0.75690  0.06870  0.64840  Biso   1.000  H
  C35      1.0000 0.37460  0.12130  0.31300  Biso   1.000  C
  C36      1.0000 0.62540  0.87870  0.68700  Biso   1.000  C
  C37      1.0000 0.38730  0.08490  0.18760  Biso   1.000  C
  C38      1.0000 0.61270  0.91510  0.81240  Biso   1.000  C
  C39      1.0000 0.88820  0.88500  0.18640  Biso   1.000  C
  C40      1.0000 0.11180  0.11500  0.81360  Biso   1.000  C
  H25      1.0000 0.84770  0.85540  0.10600  Biso   1.000  H
  H26      1.0000 0.15230  0.14460  0.89400  Biso   1.000  H
  H27      1.0000 0.98750  0.96380  0.19070  Biso   1.000  H
  H28      1.0000 0.01250  0.03620  0.80930  Biso   1.000  H
  H29      1.0000 0.79580  0.90940  0.22380  Biso   1.000  H
  H30      1.0000 0.20420  0.09060  0.77620  Biso   1.000  H
