data_image0
_cell_length_a       7.8
_cell_length_b       17.538
_cell_length_c       19.337
_cell_angle_alpha    90
_cell_angle_beta     99.794
_cell_angle_gamma    90

_symmetry_space_group_name_H-M    "P 1"
_symmetry_int_tables_number       1

loop_
  _symmetry_equiv_pos_as_xyz
  'x, y, z'

loop_
  _atom_site_label
  _atom_site_occupancy
  _atom_site_fract_x
  _atom_site_fract_y
  _atom_site_fract_z
  _atom_site_thermal_displace_type
  _atom_site_B_iso_or_equiv
  _atom_site_type_symbol
  Cu1      1.0000 0.07529  0.14962  0.86344  Biso   1.000  Cu
  Cu2      1.0000 0.92471  0.64962  0.63656  Biso   1.000  Cu
  Cu3      1.0000 0.92471  0.85038  0.13656  Biso   1.000  Cu
  Cu4      1.0000 0.07529  0.35038  0.36344  Biso   1.000  Cu
  N1       1.0000 0.90890  0.06378  0.86571  Biso   1.000  N
  N2       1.0000 0.09110  0.56378  0.63429  Biso   1.000  N
  N3       1.0000 0.09110  0.93622  0.13429  Biso   1.000  N
  N4       1.0000 0.90890  0.43622  0.36571  Biso   1.000  N
  N5       1.0000 0.02770  0.16249  0.96084  Biso   1.000  N
  N6       1.0000 0.97230  0.66249  0.53916  Biso   1.000  N
  N7       1.0000 0.97230  0.83751  0.03916  Biso   1.000  N
  N8       1.0000 0.02770  0.33751  0.46084  Biso   1.000  N
  O1       1.0000 0.15750  0.25580  0.86298  Biso   1.000  O
  O2       1.0000 0.84250  0.75580  0.63702  Biso   1.000  O
  O3       1.0000 0.84250  0.74420  0.13702  Biso   1.000  O
  O4       1.0000 0.15750  0.24420  0.36298  Biso   1.000  O
  O5       1.0000 0.87510  0.27650  0.83324  Biso   1.000  O
  O6       1.0000 0.12490  0.77650  0.66676  Biso   1.000  O
  O7       1.0000 0.12490  0.72350  0.16676  Biso   1.000  O
  O8       1.0000 0.87510  0.22350  0.33324  Biso   1.000  O
  O9       1.0000 0.69230  0.37892  0.91657  Biso   1.000  O
  O10      1.0000 0.30770  0.87892  0.58343  Biso   1.000  O
  O11      1.0000 0.30770  0.62108  0.08343  Biso   1.000  O
  O12      1.0000 0.69230  0.12108  0.41657  Biso   1.000  O
  O13      1.0000 0.62990  0.41996  0.80768  Biso   1.000  O
  O14      1.0000 0.37010  0.91996  0.69232  Biso   1.000  O
  O15      1.0000 0.37010  0.58004  0.19232  Biso   1.000  O
  O16      1.0000 0.62990  0.08004  0.30768  Biso   1.000  O
  H1       1.0000 0.67920  0.44430  0.78060  Biso   1.000  H
  H2       1.0000 0.32080  0.94430  0.71940  Biso   1.000  H
  H3       1.0000 0.32080  0.55570  0.21940  Biso   1.000  H
  H4       1.0000 0.67920  0.05570  0.28060  Biso   1.000  H
  O17      1.0000 0.74990  0.52011  0.72331  Biso   1.000  O
  O18      1.0000 0.25010  0.02011  0.77669  Biso   1.000  O
  O19      1.0000 0.25010  0.47989  0.27669  Biso   1.000  O
  O20      1.0000 0.74990  0.97989  0.22331  Biso   1.000  O
  O21      1.0000 0.87500  0.63587  0.73130  Biso   1.000  O
  O22      1.0000 0.12500  0.13587  0.76870  Biso   1.000  O
  O23      1.0000 0.12500  0.36413  0.26870  Biso   1.000  O
  O24      1.0000 0.87500  0.86413  0.23130  Biso   1.000  O
  O25      1.0000 0.47770  0.65189  0.70152  Biso   1.000  O
  O26      1.0000 0.52230  0.15189  0.79848  Biso   1.000  O
  O27      1.0000 0.52230  0.34811  0.29848  Biso   1.000  O
  O28      1.0000 0.47770  0.84811  0.20152  Biso   1.000  O
  O29      1.0000 0.38840  0.74090  0.76830  Biso   1.000  O
  O30      1.0000 0.61160  0.24090  0.73170  Biso   1.000  O
  O31      1.0000 0.61160  0.25910  0.23170  Biso   1.000  O
  O32      1.0000 0.38840  0.75910  0.26830  Biso   1.000  O
  H5       1.0000 0.33280  0.75500  0.73060  Biso   1.000  H
  H6       1.0000 0.66720  0.25500  0.76940  Biso   1.000  H
  H7       1.0000 0.66720  0.24500  0.26940  Biso   1.000  H
  H8       1.0000 0.33280  0.74500  0.23060  Biso   1.000  H
  O33      1.0000 0.34200  0.09288  0.91472  Biso   1.000  O
  O34      1.0000 0.65800  0.59288  0.58528  Biso   1.000  O
  O35      1.0000 0.65800  0.90712  0.08528  Biso   1.000  O
  O36      1.0000 0.34200  0.40712  0.41472  Biso   1.000  O
  H9       1.0000 0.41090  0.12050  0.91600  Biso   1.000  H
  H10      1.0000 0.58910  0.62050  0.58400  Biso   1.000  H
  H11      1.0000 0.58910  0.87950  0.08400  Biso   1.000  H
  H12      1.0000 0.41090  0.37950  0.41600  Biso   1.000  H
  H13      1.0000 0.36260  0.05500  0.89000  Biso   1.000  H
  H14      1.0000 0.63740  0.55500  0.61000  Biso   1.000  H
  H15      1.0000 0.63740  0.94500  0.11000  Biso   1.000  H
  H16      1.0000 0.36260  0.44500  0.39000  Biso   1.000  H
  C1       1.0000 0.02620  0.29942  0.85105  Biso   1.000  C
  C2       1.0000 0.97380  0.79942  0.64895  Biso   1.000  C
  C3       1.0000 0.97380  0.70058  0.14895  Biso   1.000  C
  C4       1.0000 0.02620  0.20058  0.35105  Biso   1.000  C
  C5       1.0000 0.05990  0.38329  0.86188  Biso   1.000  C
  C6       1.0000 0.94010  0.88329  0.63812  Biso   1.000  C
  C7       1.0000 0.94010  0.61671  0.13812  Biso   1.000  C
  C8       1.0000 0.05990  0.11671  0.36188  Biso   1.000  C
  C9       1.0000 0.22800  0.41165  0.86638  Biso   1.000  C
  C10      1.0000 0.77200  0.91165  0.63362  Biso   1.000  C
  C11      1.0000 0.77200  0.58835  0.13362  Biso   1.000  C
  C12      1.0000 0.22800  0.08835  0.36638  Biso   1.000  C
  H17      1.0000 0.31870  0.37840  0.86240  Biso   1.000  H
  H18      1.0000 0.68130  0.87840  0.63760  Biso   1.000  H
  H19      1.0000 0.68130  0.62160  0.13760  Biso   1.000  H
  H20      1.0000 0.31870  0.12160  0.36240  Biso   1.000  H
  C13      1.0000 0.26220  0.48812  0.87665  Biso   1.000  C
  C14      1.0000 0.73780  0.98812  0.62335  Biso   1.000  C
  C15      1.0000 0.73780  0.51188  0.12335  Biso   1.000  C
  C16      1.0000 0.26220  0.01188  0.37665  Biso   1.000  C
  H21      1.0000 0.37540  0.50610  0.87970  Biso   1.000  H
  H22      1.0000 0.62460  0.00610  0.62030  Biso   1.000  H
  H23      1.0000 0.62460  0.49390  0.12030  Biso   1.000  H
  H24      1.0000 0.37540  0.99390  0.37970  Biso   1.000  H
  C17      1.0000 0.12860  0.53820  0.88242  Biso   1.000  C
  C18      1.0000 0.87140  0.03820  0.61758  Biso   1.000  C
  C19      1.0000 0.87140  0.46180  0.11758  Biso   1.000  C
  C20      1.0000 0.12860  0.96180  0.38242  Biso   1.000  C
  H25      1.0000 0.15250  0.58980  0.88930  Biso   1.000  H
  H26      1.0000 0.84750  0.08980  0.61070  Biso   1.000  H
  H27      1.0000 0.84750  0.41020  0.11070  Biso   1.000  H
  H28      1.0000 0.15250  0.91020  0.38930  Biso   1.000  H
  C21      1.0000 0.95900  0.51204  0.87810  Biso   1.000  C
  C22      1.0000 0.04100  0.01204  0.62190  Biso   1.000  C
  C23      1.0000 0.04100  0.48796  0.12190  Biso   1.000  C
  C24      1.0000 0.95900  0.98796  0.37810  Biso   1.000  C
  C25      1.0000 0.92510  0.43394  0.86810  Biso   1.000  C
  C26      1.0000 0.07490  0.93394  0.63190  Biso   1.000  C
  C27      1.0000 0.07490  0.56606  0.13190  Biso   1.000  C
  C28      1.0000 0.92510  0.06606  0.36810  Biso   1.000  C
  C29      1.0000 0.74030  0.40672  0.86678  Biso   1.000  C
  C30      1.0000 0.25970  0.90672  0.63322  Biso   1.000  C
  C31      1.0000 0.25970  0.59328  0.13322  Biso   1.000  C
  C32      1.0000 0.74030  0.09328  0.36678  Biso   1.000  C
  C33      1.0000 0.81280  0.56591  0.88220  Biso   1.000  C
  C34      1.0000 0.18720  0.06591  0.61780  Biso   1.000  C
  C35      1.0000 0.18720  0.43409  0.11780  Biso   1.000  C
  C36      1.0000 0.81280  0.93409  0.38220  Biso   1.000  C
  C37      1.0000 0.75940  0.58000  0.94595  Biso   1.000  C
  C38      1.0000 0.24060  0.08000  0.55405  Biso   1.000  C
  C39      1.0000 0.24060  0.42000  0.05405  Biso   1.000  C
  C40      1.0000 0.75940  0.92000  0.44595  Biso   1.000  C
  H29      1.0000 0.81900  0.55760  0.98660  Biso   1.000  H
  H30      1.0000 0.18100  0.05760  0.51340  Biso   1.000  H
  H31      1.0000 0.18100  0.44240  0.01340  Biso   1.000  H
  H32      1.0000 0.81900  0.94240  0.48660  Biso   1.000  H
  C41      1.0000 0.61860  0.62690  0.94984  Biso   1.000  C
  C42      1.0000 0.38140  0.12690  0.55016  Biso   1.000  C
  C43      1.0000 0.38140  0.37310  0.05016  Biso   1.000  C
  C44      1.0000 0.61860  0.87310  0.44984  Biso   1.000  C
  H33      1.0000 0.58420  0.63610  0.99280  Biso   1.000  H
  H34      1.0000 0.41580  0.13610  0.50720  Biso   1.000  H
  H35      1.0000 0.41580  0.36390  0.00720  Biso   1.000  H
  H36      1.0000 0.58420  0.86390  0.49280  Biso   1.000  H
  C45      1.0000 0.52940  0.66012  0.88922  Biso   1.000  C
  C46      1.0000 0.47060  0.16012  0.61078  Biso   1.000  C
  C47      1.0000 0.47060  0.33988  0.11078  Biso   1.000  C
  C48      1.0000 0.52940  0.83988  0.38922  Biso   1.000  C
  H37      1.0000 0.43540  0.69200  0.89170  Biso   1.000  H
  H38      1.0000 0.56460  0.19200  0.60830  Biso   1.000  H
  H39      1.0000 0.56460  0.30800  0.10830  Biso   1.000  H
  H40      1.0000 0.43540  0.80800  0.39170  Biso   1.000  H
  C49      1.0000 0.57890  0.64613  0.82488  Biso   1.000  C
  C50      1.0000 0.42110  0.14613  0.67512  Biso   1.000  C
  C51      1.0000 0.42110  0.35387  0.17512  Biso   1.000  C
  C52      1.0000 0.57890  0.85387  0.32488  Biso   1.000  C
  C53      1.0000 0.72300  0.59966  0.82091  Biso   1.000  C
  C54      1.0000 0.27700  0.09966  0.67909  Biso   1.000  C
  C55      1.0000 0.27700  0.40034  0.17909  Biso   1.000  C
  C56      1.0000 0.72300  0.90034  0.32091  Biso   1.000  C
  C57      1.0000 0.78450  0.58318  0.75208  Biso   1.000  C
  C58      1.0000 0.21550  0.08318  0.74792  Biso   1.000  C
  C59      1.0000 0.21550  0.41682  0.24792  Biso   1.000  C
  C60      1.0000 0.78450  0.91682  0.25208  Biso   1.000  C
  C61      1.0000 0.47330  0.67610  0.75890  Biso   1.000  C
  C62      1.0000 0.52670  0.17610  0.74110  Biso   1.000  C
  C63      1.0000 0.52670  0.32390  0.24110  Biso   1.000  C
  C64      1.0000 0.47330  0.82390  0.25890  Biso   1.000  C
  C65      1.0000 0.09720  0.21560  0.00680  Biso   1.000  C
  C66      1.0000 0.90280  0.71560  0.49320  Biso   1.000  C
  C67      1.0000 0.90280  0.78440  0.99320  Biso   1.000  C
  C68      1.0000 0.09720  0.28440  0.50680  Biso   1.000  C
  H41      1.0000 0.16880  0.25260  0.99230  Biso   1.000  H
  H42      1.0000 0.83120  0.75260  0.50770  Biso   1.000  H
  H43      1.0000 0.83120  0.74740  0.00770  Biso   1.000  H
  H44      1.0000 0.16880  0.24740  0.49230  Biso   1.000  H
  C69      1.0000 0.06700  0.21760  0.07480  Biso   1.000  C
  C70      1.0000 0.93300  0.71760  0.42520  Biso   1.000  C
  C71      1.0000 0.93300  0.78240  0.92520  Biso   1.000  C
  C72      1.0000 0.06700  0.28240  0.57480  Biso   1.000  C
  H45      1.0000 0.11660  0.25600  0.10500  Biso   1.000  H
  H46      1.0000 0.88340  0.75600  0.39500  Biso   1.000  H
  H47      1.0000 0.88340  0.74400  0.89500  Biso   1.000  H
  H48      1.0000 0.11660  0.24400  0.60500  Biso   1.000  H
  C73      1.0000 0.96370  0.16310  0.09854  Biso   1.000  C
  C74      1.0000 0.03630  0.66310  0.40146  Biso   1.000  C
  C75      1.0000 0.03630  0.83690  0.90146  Biso   1.000  C
  C76      1.0000 0.96370  0.33690  0.59854  Biso   1.000  C
  C77      1.0000 0.93210  0.16490  0.17250  Biso   1.000  C
  C78      1.0000 0.06790  0.66490  0.32750  Biso   1.000  C
  C79      1.0000 0.06790  0.83510  0.82750  Biso   1.000  C
  C80      1.0000 0.93210  0.33510  0.67250  Biso   1.000  C
  H49      1.0000 0.03020  0.18760  0.20200  Biso   1.000  H
  H50      1.0000 0.96980  0.68760  0.29800  Biso   1.000  H
  H51      1.0000 0.96980  0.81240  0.79800  Biso   1.000  H
  H52      1.0000 0.03020  0.31240  0.70200  Biso   1.000  H
  H53      1.0000 0.91620  0.11380  0.18810  Biso   1.000  H
  H54      1.0000 0.08380  0.61380  0.31190  Biso   1.000  H
  H55      1.0000 0.08380  0.88620  0.81190  Biso   1.000  H
  H56      1.0000 0.91620  0.38620  0.68810  Biso   1.000  H
  H57      1.0000 0.82960  0.19430  0.17500  Biso   1.000  H
  H58      1.0000 0.17040  0.69430  0.32500  Biso   1.000  H
  H59      1.0000 0.17040  0.80570  0.82500  Biso   1.000  H
  H60      1.0000 0.82960  0.30570  0.67500  Biso   1.000  H
  C81      1.0000 0.89230  0.10820  0.05068  Biso   1.000  C
  C82      1.0000 0.10770  0.60820  0.44932  Biso   1.000  C
  C83      1.0000 0.10770  0.89180  0.94932  Biso   1.000  C
  C84      1.0000 0.89230  0.39180  0.55068  Biso   1.000  C
  H61      1.0000 0.82230  0.07020  0.06460  Biso   1.000  H
  H62      1.0000 0.17770  0.57020  0.43540  Biso   1.000  H
  H63      1.0000 0.17770  0.92980  0.93540  Biso   1.000  H
  H64      1.0000 0.82230  0.42980  0.56460  Biso   1.000  H
  C85      1.0000 0.92390  0.10930  0.98248  Biso   1.000  C
  C86      1.0000 0.07610  0.60930  0.51752  Biso   1.000  C
  C87      1.0000 0.07610  0.89070  0.01752  Biso   1.000  C
  C88      1.0000 0.92390  0.39070  0.48248  Biso   1.000  C
  C89      1.0000 0.85000  0.05488  0.92695  Biso   1.000  C
  C90      1.0000 0.15000  0.55488  0.57305  Biso   1.000  C
  C91      1.0000 0.15000  0.94512  0.07305  Biso   1.000  C
  C92      1.0000 0.85000  0.44512  0.42695  Biso   1.000  C
  C93      1.0000 0.72940  0.99924  0.93501  Biso   1.000  C
  C94      1.0000 0.27060  0.49924  0.56499  Biso   1.000  C
  C95      1.0000 0.27060  0.00076  0.06499  Biso   1.000  C
  C96      1.0000 0.72940  0.50076  0.43501  Biso   1.000  C
  H65      1.0000 0.69330  0.99330  0.97810  Biso   1.000  H
  H66      1.0000 0.30670  0.49330  0.52190  Biso   1.000  H
  H67      1.0000 0.30670  0.00670  0.02190  Biso   1.000  H
  H68      1.0000 0.69330  0.50670  0.47810  Biso   1.000  H
  C97      1.0000 0.66180  0.95200  0.87935  Biso   1.000  C
  C98      1.0000 0.33820  0.45200  0.62065  Biso   1.000  C
  C99      1.0000 0.33820  0.04800  0.12065  Biso   1.000  C
  C100     1.0000 0.66180  0.54800  0.37935  Biso   1.000  C
  C101     1.0000 0.72060  0.96390  0.81630  Biso   1.000  C
  C102     1.0000 0.27940  0.46390  0.68370  Biso   1.000  C
  C103     1.0000 0.27940  0.03610  0.18370  Biso   1.000  C
  C104     1.0000 0.72060  0.53610  0.31630  Biso   1.000  C
  H69      1.0000 0.67710  0.93440  0.77720  Biso   1.000  H
  H70      1.0000 0.32290  0.43440  0.72280  Biso   1.000  H
  H71      1.0000 0.32290  0.06560  0.22280  Biso   1.000  H
  H72      1.0000 0.67710  0.56560  0.27720  Biso   1.000  H
  C105     1.0000 0.84300  0.01910  0.81159  Biso   1.000  C
  C106     1.0000 0.15700  0.51910  0.68841  Biso   1.000  C
  C107     1.0000 0.15700  0.98090  0.18841  Biso   1.000  C
  C108     1.0000 0.84300  0.48090  0.31159  Biso   1.000  C
  H73      1.0000 0.88160  0.02570  0.76910  Biso   1.000  H
  H74      1.0000 0.11840  0.52570  0.73090  Biso   1.000  H
  H75      1.0000 0.11840  0.97430  0.23090  Biso   1.000  H
  H76      1.0000 0.88160  0.47430  0.26910  Biso   1.000  H
  C109     1.0000 0.52940  0.89240  0.88630  Biso   1.000  C
  C110     1.0000 0.47060  0.39240  0.61370  Biso   1.000  C
  C111     1.0000 0.47060  0.10760  0.11370  Biso   1.000  C
  C112     1.0000 0.52940  0.60760  0.38630  Biso   1.000  C
  H77      1.0000 0.41500  0.91420  0.87560  Biso   1.000  H
  H78      1.0000 0.58500  0.41420  0.62440  Biso   1.000  H
  H79      1.0000 0.58500  0.08580  0.12440  Biso   1.000  H
  H80      1.0000 0.41500  0.58580  0.37560  Biso   1.000  H
  H81      1.0000 0.54860  0.87320  0.93350  Biso   1.000  H
  H82      1.0000 0.45140  0.37320  0.56650  Biso   1.000  H
  H83      1.0000 0.45140  0.12680  0.06650  Biso   1.000  H
  H84      1.0000 0.54860  0.62680  0.43350  Biso   1.000  H
  H85      1.0000 0.53940  0.85140  0.85440  Biso   1.000  H
  H86      1.0000 0.46060  0.35140  0.64560  Biso   1.000  H
  H87      1.0000 0.46060  0.14860  0.14560  Biso   1.000  H
  H88      1.0000 0.53940  0.64860  0.35440  Biso   1.000  H
  O37      1.0000 0.33070  0.71360  0.77300  Biso   1.000  O
  O38      1.0000 0.66930  0.21360  0.72700  Biso   1.000  O
  O39      1.0000 0.66930  0.28640  0.22700  Biso   1.000  O
  O40      1.0000 0.33070  0.78640  0.27300  Biso   1.000  O
  H89      1.0000 0.27400  0.72990  0.73630  Biso   1.000  H
  H90      1.0000 0.72600  0.22990  0.76370  Biso   1.000  H
  H91      1.0000 0.72600  0.27010  0.26370  Biso   1.000  H
  H92      1.0000 0.27400  0.77010  0.23630  Biso   1.000  H
  O41      1.0000 0.56100  0.22300  0.94330  Biso   1.000  O
  O42      1.0000 0.43900  0.72300  0.55670  Biso   1.000  O
  O43      1.0000 0.43900  0.77700  0.05670  Biso   1.000  O
  O44      1.0000 0.56100  0.27700  0.44330  Biso   1.000  O
  H93      1.0000 0.58640  0.26370  0.95170  Biso   1.000  H
  H94      1.0000 0.41360  0.76370  0.54830  Biso   1.000  H
  H95      1.0000 0.41360  0.73630  0.04830  Biso   1.000  H
  H96      1.0000 0.58640  0.23630  0.45170  Biso   1.000  H
  H97      1.0000 0.56240  0.21560  0.89630  Biso   1.000  H
  H98      1.0000 0.43760  0.71560  0.60370  Biso   1.000  H
  H99      1.0000 0.43760  0.78440  0.10370  Biso   1.000  H
  H100     1.0000 0.56240  0.28440  0.39630  Biso   1.000  H
