data_image0
_cell_length_a       16.56
_cell_length_b       8.427
_cell_length_c       11.203
_cell_angle_alpha    90
_cell_angle_beta     90
_cell_angle_gamma    90

_symmetry_space_group_name_H-M    "P 1"
_symmetry_int_tables_number       1

loop_
  _symmetry_equiv_pos_as_xyz
  'x, y, z'

loop_
  _atom_site_label
  _atom_site_occupancy
  _atom_site_fract_x
  _atom_site_fract_y
  _atom_site_fract_z
  _atom_site_thermal_displace_type
  _atom_site_B_iso_or_equiv
  _atom_site_type_symbol
  Cu1      1.0000 0.37192  0.64580  0.49749  Biso   1.000  Cu
  Cu2      1.0000 0.62808  0.14580  0.50251  Biso   1.000  Cu
  Cu3      1.0000 0.12808  0.14580  0.99749  Biso   1.000  Cu
  Cu4      1.0000 0.87192  0.64580  0.00251  Biso   1.000  Cu
  O1       1.0000 0.53490  0.31640  0.59593  Biso   1.000  O
  O2       1.0000 0.46510  0.81640  0.40407  Biso   1.000  O
  O3       1.0000 0.96510  0.81640  0.09593  Biso   1.000  O
  O4       1.0000 0.03490  0.31640  0.90407  Biso   1.000  O
  O5       1.0000 0.31112  0.00130  0.71450  Biso   1.000  O
  O6       1.0000 0.68888  0.50130  0.28550  Biso   1.000  O
  O7       1.0000 0.18888  0.50130  0.21450  Biso   1.000  O
  O8       1.0000 0.81112  0.00130  0.78550  Biso   1.000  O
  N1       1.0000 0.43748  0.51270  0.60020  Biso   1.000  N
  N2       1.0000 0.56252  0.01270  0.39980  Biso   1.000  N
  N3       1.0000 0.06252  0.01270  0.10020  Biso   1.000  N
  N4       1.0000 0.93748  0.51270  0.89980  Biso   1.000  N
  C1       1.0000 0.43706  0.55710  0.72140  Biso   1.000  C
  C2       1.0000 0.56294  0.05710  0.27860  Biso   1.000  C
  C3       1.0000 0.06294  0.05710  0.22140  Biso   1.000  C
  C4       1.0000 0.93706  0.55710  0.77860  Biso   1.000  C
  C5       1.0000 0.39020  0.69320  0.74590  Biso   1.000  C
  C6       1.0000 0.60980  0.19320  0.25410  Biso   1.000  C
  C7       1.0000 0.10980  0.19320  0.24590  Biso   1.000  C
  C8       1.0000 0.89020  0.69320  0.75410  Biso   1.000  C
  N5       1.0000 0.39562  0.46940  0.37510  Biso   1.000  N
  N6       1.0000 0.60438  0.96940  0.62490  Biso   1.000  N
  N7       1.0000 0.10438  0.96940  0.87510  Biso   1.000  N
  N8       1.0000 0.89562  0.46940  0.12490  Biso   1.000  N
  N9       1.0000 0.35082  0.75560  0.64540  Biso   1.000  N
  N10      1.0000 0.64918  0.25560  0.35460  Biso   1.000  N
  N11      1.0000 0.14918  0.25560  0.14540  Biso   1.000  N
  N12      1.0000 0.85082  0.75560  0.85460  Biso   1.000  N
  C9       1.0000 0.28990  0.93390  0.51100  Biso   1.000  C
  C10      1.0000 0.71010  0.43390  0.48900  Biso   1.000  C
  C11      1.0000 0.21010  0.43390  0.01100  Biso   1.000  C
  C12      1.0000 0.78990  0.93390  0.98900  Biso   1.000  C
  H1       1.0000 0.23820  0.99260  0.51510  Biso   1.000  H
  H2       1.0000 0.76180  0.49260  0.48490  Biso   1.000  H
  H3       1.0000 0.26180  0.49260  0.01510  Biso   1.000  H
  H4       1.0000 0.73820  0.99260  0.98490  Biso   1.000  H
  H5       1.0000 0.33010  0.00400  0.47200  Biso   1.000  H
  H6       1.0000 0.66990  0.50400  0.52800  Biso   1.000  H
  H7       1.0000 0.16990  0.50400  0.97200  Biso   1.000  H
  H8       1.0000 0.83010  0.00400  0.02800  Biso   1.000  H
  C13      1.0000 0.31817  0.89830  0.63710  Biso   1.000  C
  C14      1.0000 0.68183  0.39830  0.36290  Biso   1.000  C
  C15      1.0000 0.18183  0.39830  0.13710  Biso   1.000  C
  C16      1.0000 0.81817  0.89830  0.86290  Biso   1.000  C
  N13      1.0000 0.27848  0.79140  0.43640  Biso   1.000  N
  N14      1.0000 0.72152  0.29140  0.56360  Biso   1.000  N
  N15      1.0000 0.22152  0.29140  0.93640  Biso   1.000  N
  N16      1.0000 0.77848  0.79140  0.06360  Biso   1.000  N
  C17      1.0000 0.38800  0.75250  0.86150  Biso   1.000  C
  C18      1.0000 0.61200  0.25250  0.13850  Biso   1.000  C
  C19      1.0000 0.11200  0.25250  0.36150  Biso   1.000  C
  C20      1.0000 0.88800  0.75250  0.63850  Biso   1.000  C
  H9       1.0000 0.35750  0.84530  0.87860  Biso   1.000  H
  H10      1.0000 0.64250  0.34530  0.12140  Biso   1.000  H
  H11      1.0000 0.14250  0.34530  0.37860  Biso   1.000  H
  H12      1.0000 0.85750  0.84530  0.62140  Biso   1.000  H
  C21      1.0000 0.47455  0.40510  0.41360  Biso   1.000  C
  C22      1.0000 0.52545  0.90510  0.58640  Biso   1.000  C
  C23      1.0000 0.02545  0.90510  0.91360  Biso   1.000  C
  C24      1.0000 0.97455  0.40510  0.08640  Biso   1.000  C
  H13      1.0000 0.51830  0.46920  0.37760  Biso   1.000  H
  H14      1.0000 0.48170  0.96920  0.62240  Biso   1.000  H
  H15      1.0000 0.98170  0.96920  0.87760  Biso   1.000  H
  H16      1.0000 0.01830  0.46920  0.12240  Biso   1.000  H
  H17      1.0000 0.48010  0.29500  0.38390  Biso   1.000  H
  H18      1.0000 0.51990  0.79500  0.61610  Biso   1.000  H
  H19      1.0000 0.01990  0.79500  0.88390  Biso   1.000  H
  H20      1.0000 0.98010  0.29500  0.11610  Biso   1.000  H
  C25      1.0000 0.48428  0.40560  0.55000  Biso   1.000  C
  C26      1.0000 0.51572  0.90560  0.45000  Biso   1.000  C
  C27      1.0000 0.01572  0.90560  0.05000  Biso   1.000  C
  C28      1.0000 0.98428  0.40560  0.95000  Biso   1.000  C
  C29      1.0000 0.27590  0.84020  0.30840  Biso   1.000  C
  C30      1.0000 0.72410  0.34020  0.69160  Biso   1.000  C
  C31      1.0000 0.22410  0.34020  0.80840  Biso   1.000  C
  C32      1.0000 0.77590  0.84020  0.19160  Biso   1.000  C
  H21      1.0000 0.26810  0.74630  0.25820  Biso   1.000  H
  H22      1.0000 0.73190  0.24630  0.74180  Biso   1.000  H
  H23      1.0000 0.23190  0.24630  0.75820  Biso   1.000  H
  H24      1.0000 0.76810  0.74630  0.24180  Biso   1.000  H
  H25      1.0000 0.32680  0.89220  0.28700  Biso   1.000  H
  H26      1.0000 0.67320  0.39220  0.71300  Biso   1.000  H
  H27      1.0000 0.17320  0.39220  0.78700  Biso   1.000  H
  H28      1.0000 0.82680  0.89220  0.21300  Biso   1.000  H
  H29      1.0000 0.23100  0.91420  0.29600  Biso   1.000  H
  H30      1.0000 0.76900  0.41420  0.70400  Biso   1.000  H
  H31      1.0000 0.26900  0.41420  0.79600  Biso   1.000  H
  H32      1.0000 0.73100  0.91420  0.20400  Biso   1.000  H
  C33      1.0000 0.47620  0.54540  0.92900  Biso   1.000  C
  C34      1.0000 0.52380  0.04540  0.07100  Biso   1.000  C
  C35      1.0000 0.02380  0.04540  0.42900  Biso   1.000  C
  C36      1.0000 0.97620  0.54540  0.57100  Biso   1.000  C
  H33      1.0000 0.50570  0.49630  0.99170  Biso   1.000  H
  H34      1.0000 0.49430  0.99630  0.00830  Biso   1.000  H
  H35      1.0000 0.99430  0.99630  0.49170  Biso   1.000  H
  H36      1.0000 0.00570  0.49630  0.50830  Biso   1.000  H
  C37      1.0000 0.20070  0.71660  0.46680  Biso   1.000  C
  C38      1.0000 0.79930  0.21660  0.53320  Biso   1.000  C
  C39      1.0000 0.29930  0.21660  0.96680  Biso   1.000  C
  C40      1.0000 0.70070  0.71660  0.03320  Biso   1.000  C
  H37      1.0000 0.19280  0.62200  0.41730  Biso   1.000  H
  H38      1.0000 0.80720  0.12200  0.58270  Biso   1.000  H
  H39      1.0000 0.30720  0.12200  0.91730  Biso   1.000  H
  H40      1.0000 0.69280  0.62200  0.08270  Biso   1.000  H
  H41      1.0000 0.15670  0.79200  0.45220  Biso   1.000  H
  H42      1.0000 0.84330  0.29200  0.54780  Biso   1.000  H
  H43      1.0000 0.34330  0.29200  0.95220  Biso   1.000  H
  H44      1.0000 0.65670  0.79200  0.04780  Biso   1.000  H
  H45      1.0000 0.20090  0.68610  0.55120  Biso   1.000  H
  H46      1.0000 0.79910  0.18610  0.44880  Biso   1.000  H
  H47      1.0000 0.29910  0.18610  0.05120  Biso   1.000  H
  H48      1.0000 0.70090  0.68610  0.94880  Biso   1.000  H
  C41      1.0000 0.42990  0.67730  0.95160  Biso   1.000  C
  C42      1.0000 0.57010  0.17730  0.04840  Biso   1.000  C
  C43      1.0000 0.07010  0.17730  0.45160  Biso   1.000  C
  C44      1.0000 0.92990  0.67730  0.54840  Biso   1.000  C
  H49      1.0000 0.42670  0.71750  0.03070  Biso   1.000  H
  H50      1.0000 0.57330  0.21750  0.96930  Biso   1.000  H
  H51      1.0000 0.07330  0.21750  0.53070  Biso   1.000  H
  H52      1.0000 0.92670  0.71750  0.46930  Biso   1.000  H
  C45      1.0000 0.33400  0.34580  0.38980  Biso   1.000  C
  C46      1.0000 0.66600  0.84580  0.61020  Biso   1.000  C
  C47      1.0000 0.16600  0.84580  0.88980  Biso   1.000  C
  C48      1.0000 0.83400  0.34580  0.11020  Biso   1.000  C
  H53      1.0000 0.28130  0.38760  0.36550  Biso   1.000  H
  H54      1.0000 0.71870  0.88760  0.63450  Biso   1.000  H
  H55      1.0000 0.21870  0.88760  0.86550  Biso   1.000  H
  H56      1.0000 0.78130  0.38760  0.13450  Biso   1.000  H
  H57      1.0000 0.33170  0.31320  0.47370  Biso   1.000  H
  H58      1.0000 0.66830  0.81320  0.52630  Biso   1.000  H
  H59      1.0000 0.16830  0.81320  0.97370  Biso   1.000  H
  H60      1.0000 0.83170  0.31320  0.02630  Biso   1.000  H
  H61      1.0000 0.34780  0.25410  0.34010  Biso   1.000  H
  H62      1.0000 0.65220  0.75410  0.65990  Biso   1.000  H
  H63      1.0000 0.15220  0.75410  0.84010  Biso   1.000  H
  H64      1.0000 0.84780  0.25410  0.15990  Biso   1.000  H
  C49      1.0000 0.47960  0.48400  0.81340  Biso   1.000  C
  C50      1.0000 0.52040  0.98400  0.18660  Biso   1.000  C
  C51      1.0000 0.02040  0.98400  0.31340  Biso   1.000  C
  C52      1.0000 0.97960  0.48400  0.68660  Biso   1.000  C
  H65      1.0000 0.51110  0.39210  0.79740  Biso   1.000  H
  H66      1.0000 0.48890  0.89210  0.20260  Biso   1.000  H
  H67      1.0000 0.98890  0.89210  0.29740  Biso   1.000  H
  H68      1.0000 0.01110  0.39210  0.70260  Biso   1.000  H
  C53      1.0000 0.40200  0.51310  0.24740  Biso   1.000  C
  C54      1.0000 0.59800  0.01310  0.75260  Biso   1.000  C
  C55      1.0000 0.09800  0.01310  0.74740  Biso   1.000  C
  C56      1.0000 0.90200  0.51310  0.25260  Biso   1.000  C
  H69      1.0000 0.35030  0.55630  0.22000  Biso   1.000  H
  H70      1.0000 0.64970  0.05630  0.78000  Biso   1.000  H
  H71      1.0000 0.14970  0.05630  0.72000  Biso   1.000  H
  H72      1.0000 0.85030  0.55630  0.28000  Biso   1.000  H
  H73      1.0000 0.41560  0.41860  0.20050  Biso   1.000  H
  H74      1.0000 0.58440  0.91860  0.79950  Biso   1.000  H
  H75      1.0000 0.08440  0.91860  0.70050  Biso   1.000  H
  H76      1.0000 0.91560  0.41860  0.29950  Biso   1.000  H
  H77      1.0000 0.44440  0.59310  0.23740  Biso   1.000  H
  H78      1.0000 0.55560  0.09310  0.76260  Biso   1.000  H
  H79      1.0000 0.05560  0.09310  0.73740  Biso   1.000  H
  H80      1.0000 0.94440  0.59310  0.26260  Biso   1.000  H
