data_image0
_cell_length_a       14.8917
_cell_length_b       15.0489
_cell_length_c       20.4115
_cell_angle_alpha    96.871
_cell_angle_beta     90.947
_cell_angle_gamma    94.421

_symmetry_space_group_name_H-M    "P 1"
_symmetry_int_tables_number       1

loop_
  _symmetry_equiv_pos_as_xyz
  'x, y, z'

loop_
  _atom_site_label
  _atom_site_occupancy
  _atom_site_fract_x
  _atom_site_fract_y
  _atom_site_fract_z
  _atom_site_thermal_displace_type
  _atom_site_B_iso_or_equiv
  _atom_site_type_symbol
  Cu1      1.0000 0.59600  0.77726  0.23882  Biso   1.000  Cu
  Cu2      1.0000 0.40400  0.22274  0.76118  Biso   1.000  Cu
  Cu3      1.0000 0.98650  0.97563  0.16155  Biso   1.000  Cu
  Cu4      1.0000 0.01350  0.02437  0.83845  Biso   1.000  Cu
  Cu5      1.0000 0.75558  0.82407  0.56389  Biso   1.000  Cu
  Cu6      1.0000 0.24442  0.17593  0.43611  Biso   1.000  Cu
  Cu7      1.0000 0.86465  0.65758  0.95365  Biso   1.000  Cu
  Cu8      1.0000 0.13535  0.34242  0.04635  Biso   1.000  Cu
  Mo1      1.0000 0.63897  0.04290  0.25106  Biso   1.000  Mo
  Mo2      1.0000 0.36103  0.95710  0.74894  Biso   1.000  Mo
  Mo3      1.0000 0.48103  0.08876  0.13629  Biso   1.000  Mo
  Mo4      1.0000 0.51897  0.91124  0.86371  Biso   1.000  Mo
  Mo5      1.0000 0.44814  0.32070  0.11411  Biso   1.000  Mo
  Mo6      1.0000 0.55186  0.67930  0.88589  Biso   1.000  Mo
  Mo7      1.0000 0.58766  0.49506  0.19805  Biso   1.000  Mo
  Mo8      1.0000 0.41234  0.50494  0.80195  Biso   1.000  Mo
  Mo9      1.0000 0.75357  0.44508  0.31889  Biso   1.000  Mo
  Mo10     1.0000 0.24643  0.55492  0.68111  Biso   1.000  Mo
  Mo11     1.0000 0.78680  0.22409  0.33992  Biso   1.000  Mo
  Mo12     1.0000 0.21320  0.77591  0.66008  Biso   1.000  Mo
  Mo13     1.0000 0.44692  0.14433  0.30340  Biso   1.000  Mo
  Mo14     1.0000 0.55308  0.85567  0.69660  Biso   1.000  Mo
  Mo15     1.0000 0.42684  0.37854  0.28167  Biso   1.000  Mo
  Mo16     1.0000 0.57316  0.62146  0.71833  Biso   1.000  Mo
  Mo17     1.0000 0.59398  0.31823  0.39773  Biso   1.000  Mo
  Mo18     1.0000 0.40602  0.68177  0.60227  Biso   1.000  Mo
  Mo19     1.0000 0.80990  0.16471  0.16421  Biso   1.000  Mo
  Mo20     1.0000 0.19010  0.83529  0.83579  Biso   1.000  Mo
  Mo21     1.0000 0.64940  0.21968  0.05321  Biso   1.000  Mo
  Mo22     1.0000 0.35060  0.78032  0.94679  Biso   1.000  Mo
  Mo23     1.0000 0.78919  0.38828  0.14310  Biso   1.000  Mo
  Mo24     1.0000 0.21081  0.61172  0.85690  Biso   1.000  Mo
  N1       1.0000 0.61390  0.79460  0.14520  Biso   1.000  N
  N2       1.0000 0.38610  0.20540  0.85480  Biso   1.000  N
  N3       1.0000 0.72490  0.75170  0.23500  Biso   1.000  N
  N4       1.0000 0.27510  0.24830  0.76500  Biso   1.000  N
  N5       1.0000 0.66140  0.73120  0.52490  Biso   1.000  N
  N6       1.0000 0.33860  0.26880  0.47510  Biso   1.000  N
  N7       1.0000 0.69780  0.89600  0.50280  Biso   1.000  N
  N8       1.0000 0.30220  0.10400  0.49720  Biso   1.000  N
  N9       1.0000 0.95050  0.99670  0.25550  Biso   1.000  N
  N10      1.0000 0.04950  0.00330  0.74450  Biso   1.000  N
  N11      1.0000 0.09010  0.05960  0.19890  Biso   1.000  N
  N12      1.0000 0.90990  0.94040  0.80110  Biso   1.000  N
  N13      1.0000 0.88040  0.62050  0.85800  Biso   1.000  N
  N14      1.0000 0.11960  0.37950  0.14200  Biso   1.000  N
  N15      1.0000 0.78450  0.54580  0.94360  Biso   1.000  N
  N16      1.0000 0.21550  0.45420  0.05640  Biso   1.000  N
  O1       1.0000 0.56880  0.17640  0.22540  Biso   1.000  O
  O2       1.0000 0.43120  0.82360  0.77460  Biso   1.000  O
  O3       1.0000 0.55020  0.33540  0.20780  Biso   1.000  O
  O4       1.0000 0.44980  0.66460  0.79220  Biso   1.000  O
  O5       1.0000 0.66560  0.29980  0.28980  Biso   1.000  O
  O6       1.0000 0.33440  0.70020  0.71020  Biso   1.000  O
  O7       1.0000 0.68640  0.26200  0.16820  Biso   1.000  O
  O8       1.0000 0.31360  0.73800  0.83180  Biso   1.000  O
  O9       1.0000 0.55850  0.01580  0.17430  Biso   1.000  O
  O10      1.0000 0.44150  0.98420  0.82570  Biso   1.000  O
  O11      1.0000 0.42990  0.19780  0.12260  Biso   1.000  O
  O12      1.0000 0.57010  0.80220  0.87740  Biso   1.000  O
  O13      1.0000 0.50610  0.44250  0.12790  Biso   1.000  O
  O14      1.0000 0.49390  0.55750  0.87210  Biso   1.000  O
  O15      1.0000 0.66120  0.49670  0.27530  Biso   1.000  O
  O16      1.0000 0.33880  0.50330  0.72470  Biso   1.000  O
  O17      1.0000 0.81920  0.34690  0.34340  Biso   1.000  O
  O18      1.0000 0.18080  0.65310  0.65660  Biso   1.000  O
  O19      1.0000 0.70930  0.11570  0.31410  Biso   1.000  O
  O20      1.0000 0.29070  0.88430  0.68590  Biso   1.000  O
  O21      1.0000 0.53540  0.05510  0.29980  Biso   1.000  O
  O22      1.0000 0.46460  0.94490  0.70020  Biso   1.000  O
  O23      1.0000 0.41200  0.09030  0.21560  Biso   1.000  O
  O24      1.0000 0.58800  0.90970  0.78440  Biso   1.000  O
  O25      1.0000 0.38230  0.35000  0.18890  Biso   1.000  O
  O26      1.0000 0.61770  0.65000  0.81110  Biso   1.000  O
  O27      1.0000 0.48590  0.48160  0.25580  Biso   1.000  O
  O28      1.0000 0.51410  0.51840  0.74420  Biso   1.000  O
  O29      1.0000 0.67580  0.42150  0.38600  Biso   1.000  O
  O30      1.0000 0.32420  0.57850  0.61400  Biso   1.000  O
  O31      1.0000 0.69720  0.25350  0.40250  Biso   1.000  O
  O32      1.0000 0.30280  0.74650  0.59750  Biso   1.000  O
  O33      1.0000 0.40710  0.25040  0.28430  Biso   1.000  O
  O34      1.0000 0.59290  0.74960  0.71570  Biso   1.000  O
  O35      1.0000 0.50680  0.37880  0.35470  Biso   1.000  O
  O36      1.0000 0.49320  0.62120  0.64530  Biso   1.000  O
  O37      1.0000 0.52310  0.21210  0.37060  Biso   1.000  O
  O38      1.0000 0.47690  0.78790  0.62940  Biso   1.000  O
  O39      1.0000 0.72990  0.07450  0.18930  Biso   1.000  O
  O40      1.0000 0.27010  0.92550  0.81070  Biso   1.000  O
  O41      1.0000 0.57180  0.12330  0.07970  Biso   1.000  O
  O42      1.0000 0.42820  0.87670  0.92030  Biso   1.000  O
  O43      1.0000 0.55210  0.28990  0.06410  Biso   1.000  O
  O44      1.0000 0.44790  0.71010  0.93590  Biso   1.000  O
  O45      1.0000 0.68520  0.45780  0.14910  Biso   1.000  O
  O46      1.0000 0.31480  0.54220  0.85090  Biso   1.000  O
  O47      1.0000 0.80480  0.42120  0.23290  Biso   1.000  O
  O48      1.0000 0.19520  0.57880  0.76710  Biso   1.000  O
  O49      1.0000 0.83360  0.20440  0.25410  Biso   1.000  O
  O50      1.0000 0.16640  0.79560  0.74590  Biso   1.000  O
  O51      1.0000 0.75110  0.15650  0.07940  Biso   1.000  O
  O52      1.0000 0.24890  0.84350  0.92060  Biso   1.000  O
  O53      1.0000 0.73260  0.32330  0.06250  Biso   1.000  O
  O54      1.0000 0.26740  0.67670  0.93750  Biso   1.000  O
  O55      1.0000 0.85280  0.28690  0.14690  Biso   1.000  O
  O56      1.0000 0.14720  0.71310  0.85310  Biso   1.000  O
  O57      1.0000 0.66240  0.94010  0.26300  Biso   1.000  O
  O58      1.0000 0.33760  0.05990  0.73700  Biso   1.000  O
  O59      1.0000 0.41730  0.01390  0.08800  Biso   1.000  O
  O60      1.0000 0.58270  0.98610  0.91200  Biso   1.000  O
  O61      1.0000 0.37250  0.33080  0.05530  Biso   1.000  O
  O62      1.0000 0.62750  0.66920  0.94470  Biso   1.000  O
  O63      1.0000 0.58540  0.60240  0.18820  Biso   1.000  O
  O64      1.0000 0.41460  0.39760  0.81180  Biso   1.000  O
  O65      1.0000 0.81880  0.53290  0.35470  Biso   1.000  O
  O66      1.0000 0.18120  0.46710  0.64530  Biso   1.000  O
  O67      1.0000 0.86130  0.18840  0.38900  Biso   1.000  O
  O68      1.0000 0.13870  0.81160  0.61100  Biso   1.000  O
  O69      1.0000 0.36670  0.09940  0.34760  Biso   1.000  O
  O70      1.0000 0.63330  0.90060  0.65240  Biso   1.000  O
  O71      1.0000 0.33620  0.41680  0.31570  Biso   1.000  O
  O72      1.0000 0.66380  0.58320  0.68430  Biso   1.000  O
  O73      1.0000 0.57100  0.34290  0.47660  Biso   1.000  O
  O74      1.0000 0.42900  0.65710  0.52340  Biso   1.000  O
  O75      1.0000 0.90150  0.11260  0.14140  Biso   1.000  O
  O76      1.0000 0.09850  0.88740  0.85860  Biso   1.000  O
  O77      1.0000 0.65170  0.19480  0.97140  Biso   1.000  O
  O78      1.0000 0.34830  0.80520  0.02860  Biso   1.000  O
  O79      1.0000 0.86440  0.45670  0.11060  Biso   1.000  O
  O80      1.0000 0.13560  0.54330  0.88940  Biso   1.000  O
  O81      1.0000 0.87060  0.90910  0.13570  Biso   1.000  O
  O82      1.0000 0.12940  0.09090  0.86430  Biso   1.000  O
  O83      1.0000 0.85620  0.91640  0.02620  Biso   1.000  O
  O84      1.0000 0.14380  0.08360  0.97380  Biso   1.000  O
  O85      1.0000 0.82730  0.69030  0.04260  Biso   1.000  O
  O86      1.0000 0.17270  0.30970  0.95740  Biso   1.000  O
  O87      1.0000 0.96340  0.72230  0.08680  Biso   1.000  O
  O88      1.0000 0.03660  0.27770  0.91320  Biso   1.000  O
  O89      1.0000 0.59650  0.76440  0.33110  Biso   1.000  O
  O90      1.0000 0.40350  0.23560  0.66890  Biso   1.000  O
  O91      1.0000 0.47760  0.66390  0.33250  Biso   1.000  O
  O92      1.0000 0.52240  0.33610  0.66750  Biso   1.000  O
  O93      1.0000 0.43260  0.81160  0.45000  Biso   1.000  O
  O94      1.0000 0.56740  0.18840  0.55000  Biso   1.000  O
  O95      1.0000 0.43630  0.89910  0.36820  Biso   1.000  O
  O96      1.0000 0.56370  0.10090  0.63180  Biso   1.000  O
  O97      1.0000 0.16030  0.07990  0.39510  Biso   1.000  O
  O98      1.0000 0.83970  0.92010  0.60490  Biso   1.000  O
  O99      1.0000 0.05750  0.10650  0.47150  Biso   1.000  O
  O100     1.0000 0.94250  0.89350  0.52850  Biso   1.000  O
  O101     1.0000 0.18540  0.25880  0.38750  Biso   1.000  O
  O102     1.0000 0.81460  0.74120  0.61250  Biso   1.000  O
  O103     1.0000 0.04270  0.25630  0.35770  Biso   1.000  O
  O104     1.0000 0.95730  0.74370  0.64230  Biso   1.000  O
  O105     1.0000 0.89720  0.35510  0.71060  Biso   1.000  O
  O106     1.0000 0.10280  0.64490  0.28940  Biso   1.000  O
  O107     1.0000 0.85790  0.33630  0.81270  Biso   1.000  O
  O108     1.0000 0.14210  0.66370  0.18730  Biso   1.000  O
  O109     1.0000 0.71400  0.43470  0.74500  Biso   1.000  O
  O110     1.0000 0.28600  0.56530  0.25500  Biso   1.000  O
  O111     1.0000 0.60300  0.35000  0.78880  Biso   1.000  O
  O112     1.0000 0.39700  0.65000  0.21120  Biso   1.000  O
  O113     1.0000 0.47750  0.82620  0.24210  Biso   1.000  O
  O114     1.0000 0.52250  0.17380  0.75790  Biso   1.000  O
  H1       1.0000 0.45440  0.82800  0.28000  Biso   1.000  H
  H2       1.0000 0.54560  0.17200  0.72000  Biso   1.000  H
  H3       1.0000 0.44040  0.80020  0.21250  Biso   1.000  H
  H4       1.0000 0.55960  0.19980  0.78750  Biso   1.000  H
  O115     1.0000 0.06090  0.85170  0.17370  Biso   1.000  O
  O116     1.0000 0.93910  0.14830  0.82630  Biso   1.000  O
  H5       1.0000 0.03220  0.80510  0.15370  Biso   1.000  H
  H6       1.0000 0.96780  0.19490  0.84630  Biso   1.000  H
  H7       1.0000 0.06610  0.84510  0.21440  Biso   1.000  H
  H8       1.0000 0.93390  0.15490  0.78560  Biso   1.000  H
  O117     1.0000 0.02270  0.97630  0.06970  Biso   1.000  O
  O118     1.0000 0.97730  0.02370  0.93030  Biso   1.000  O
  H9       1.0000 0.97760  0.95620  0.04480  Biso   1.000  H
  H10      1.0000 0.02240  0.04380  0.95520  Biso   1.000  H
  H11      1.0000 0.06340  0.94010  0.06250  Biso   1.000  H
  H12      1.0000 0.93660  0.05990  0.93750  Biso   1.000  H
  O119     1.0000 0.92320  0.77970  0.94750  Biso   1.000  O
  O120     1.0000 0.07680  0.22030  0.05250  Biso   1.000  O
  H13      1.0000 0.97720  0.78290  0.96220  Biso   1.000  H
  H14      1.0000 0.02280  0.21710  0.03780  Biso   1.000  H
  H15      1.0000 0.89520  0.81840  0.97120  Biso   1.000  H
  H16      1.0000 0.10480  0.18160  0.02880  Biso   1.000  H
  O121     1.0000 0.99110  0.59670  0.97890  Biso   1.000  O
  O122     1.0000 0.00890  0.40330  0.02110  Biso   1.000  O
  H17      1.0000 0.03200  0.59270  0.95040  Biso   1.000  H
  H18      1.0000 0.96800  0.40730  0.04960  Biso   1.000  H
  H19      1.0000 0.98660  0.54800  0.99620  Biso   1.000  H
  H20      1.0000 0.01340  0.45200  0.00380  Biso   1.000  H
  P1       1.0000 0.61820  0.26860  0.22487  Biso   1.000  P
  P2       1.0000 0.38180  0.73140  0.77513  Biso   1.000  P
  C1       1.0000 0.55330  0.82550  0.10600  Biso   1.000  C
  C2       1.0000 0.44670  0.17450  0.89400  Biso   1.000  C
  H21      1.0000 0.49260  0.81760  0.11570  Biso   1.000  H
  H22      1.0000 0.50740  0.18240  0.88430  Biso   1.000  H
  C3       1.0000 0.57700  0.86860  0.05180  Biso   1.000  C
  C4       1.0000 0.42300  0.13140  0.94820  Biso   1.000  C
  H23      1.0000 0.53340  0.88400  0.02290  Biso   1.000  H
  H24      1.0000 0.46660  0.11600  0.97710  Biso   1.000  H
  C5       1.0000 0.66760  0.88800  0.04220  Biso   1.000  C
  C6       1.0000 0.33240  0.11200  0.95780  Biso   1.000  C
  H25      1.0000 0.68600  0.92180  0.00880  Biso   1.000  H
  H26      1.0000 0.31400  0.07820  0.99120  Biso   1.000  H
  C7       1.0000 0.73220  0.85650  0.08310  Biso   1.000  C
  C8       1.0000 0.26780  0.14350  0.91690  Biso   1.000  C
  C9       1.0000 0.70190  0.80380  0.13100  Biso   1.000  C
  C10      1.0000 0.29810  0.19620  0.86900  Biso   1.000  C
  C11      1.0000 0.76030  0.75880  0.17460  Biso   1.000  C
  C12      1.0000 0.23970  0.24120  0.82540  Biso   1.000  C
  C13      1.0000 0.84160  0.72320  0.15790  Biso   1.000  C
  C14      1.0000 0.15840  0.27680  0.84210  Biso   1.000  C
  C15      1.0000 0.88880  0.68780  0.20730  Biso   1.000  C
  C16      1.0000 0.11120  0.31220  0.79270  Biso   1.000  C
  H27      1.0000 0.94330  0.66320  0.19810  Biso   1.000  H
  H28      1.0000 0.05670  0.33680  0.80190  Biso   1.000  H
  C17      1.0000 0.85400  0.68940  0.27020  Biso   1.000  C
  C18      1.0000 0.14600  0.31060  0.72980  Biso   1.000  C
  H29      1.0000 0.88710  0.67070  0.30440  Biso   1.000  H
  H30      1.0000 0.11290  0.32930  0.69560  Biso   1.000  H
  C19      1.0000 0.77120  0.71860  0.28070  Biso   1.000  C
  C20      1.0000 0.22880  0.28140  0.71930  Biso   1.000  C
  H31      1.0000 0.74600  0.71530  0.32180  Biso   1.000  H
  H32      1.0000 0.25400  0.28470  0.67820  Biso   1.000  H
  C21      1.0000 0.82630  0.89680  0.08150  Biso   1.000  C
  C22      1.0000 0.17370  0.10320  0.91850  Biso   1.000  C
  C23      1.0000 0.88350  0.71340  0.08990  Biso   1.000  C
  C24      1.0000 0.11650  0.28660  0.91010  Biso   1.000  C
  C25      1.0000 0.66250  0.64580  0.53470  Biso   1.000  C
  C26      1.0000 0.33750  0.35420  0.46530  Biso   1.000  C
  H33      1.0000 0.69370  0.63120  0.57130  Biso   1.000  H
  H34      1.0000 0.30630  0.36880  0.42870  Biso   1.000  H
  C27      1.0000 0.61850  0.57810  0.49200  Biso   1.000  C
  C28      1.0000 0.38150  0.42190  0.50800  Biso   1.000  C
  H35      1.0000 0.61560  0.51870  0.50070  Biso   1.000  H
  H36      1.0000 0.38440  0.48130  0.49930  Biso   1.000  H
  C29      1.0000 0.57890  0.60200  0.43620  Biso   1.000  C
  C30      1.0000 0.42110  0.39800  0.56380  Biso   1.000  C
  H37      1.0000 0.55070  0.55750  0.40560  Biso   1.000  H
  H38      1.0000 0.44930  0.44250  0.59440  Biso   1.000  H
  C31      1.0000 0.57990  0.68960  0.42440  Biso   1.000  C
  C32      1.0000 0.42010  0.31040  0.57560  Biso   1.000  C
  C33      1.0000 0.61910  0.75460  0.47150  Biso   1.000  C
  C34      1.0000 0.38090  0.24540  0.52850  Biso   1.000  C
  C35      1.0000 0.62370  0.85550  0.47050  Biso   1.000  C
  C36      1.0000 0.37630  0.14450  0.52950  Biso   1.000  C
  C37      1.0000 0.56460  0.90460  0.43990  Biso   1.000  C
  C38      1.0000 0.43540  0.09540  0.56010  Biso   1.000  C
  C39      1.0000 0.58820  0.99400  0.43760  Biso   1.000  C
  C40      1.0000 0.41180  0.00600  0.56240  Biso   1.000  C
  H39      1.0000 0.54930  0.02820  0.41710  Biso   1.000  H
  H40      1.0000 0.45070  0.97180  0.58290  Biso   1.000  H
  C41      1.0000 0.66730  0.03350  0.46470  Biso   1.000  C
  C42      1.0000 0.33270  0.96650  0.53530  Biso   1.000  C
  H41      1.0000 0.68620  0.09260  0.45960  Biso   1.000  H
  H42      1.0000 0.31380  0.90740  0.54040  Biso   1.000  H
  C43      1.0000 0.71850  0.98270  0.50020  Biso   1.000  C
  C44      1.0000 0.28150  0.01730  0.49980  Biso   1.000  C
  H43      1.0000 0.76970  0.01020  0.52320  Biso   1.000  H
  H44      1.0000 0.23030  0.98980  0.47680  Biso   1.000  H
  C45      1.0000 0.54560  0.70700  0.35730  Biso   1.000  C
  C46      1.0000 0.45440  0.29300  0.64270  Biso   1.000  C
  C47      1.0000 0.47190  0.87010  0.41650  Biso   1.000  C
  C48      1.0000 0.52810  0.12990  0.58350  Biso   1.000  C
  C49      1.0000 0.88020  0.94920  0.27810  Biso   1.000  C
  C50      1.0000 0.11980  0.05080  0.72190  Biso   1.000  C
  H45      1.0000 0.83860  0.91640  0.24830  Biso   1.000  H
  H46      1.0000 0.16140  0.08360  0.75170  Biso   1.000  H
  C51      1.0000 0.86920  0.94850  0.34540  Biso   1.000  C
  C52      1.0000 0.13080  0.05150  0.65460  Biso   1.000  C
  H47      1.0000 0.81930  0.91780  0.36160  Biso   1.000  H
  H48      1.0000 0.18070  0.08220  0.63840  Biso   1.000  H
  C53      1.0000 0.93340  0.99430  0.38690  Biso   1.000  C
  C54      1.0000 0.06660  0.00570  0.61310  Biso   1.000  C
  H49      1.0000 0.92770  0.99430  0.43220  Biso   1.000  H
  H50      1.0000 0.07230  0.00570  0.56780  Biso   1.000  H
  C55      1.0000 0.00600  0.04010  0.36370  Biso   1.000  C
  C56      1.0000 0.99400  0.95990  0.63630  Biso   1.000  C
  C57      1.0000 0.01170  0.04270  0.29690  Biso   1.000  C
  C58      1.0000 0.98830  0.95730  0.70310  Biso   1.000  C
  C59      1.0000 0.08260  0.09570  0.26090  Biso   1.000  C
  C60      1.0000 0.91740  0.90430  0.73910  Biso   1.000  C
  C61      1.0000 0.13340  0.17220  0.28490  Biso   1.000  C
  C62      1.0000 0.86660  0.82780  0.71510  Biso   1.000  C
  C63      1.0000 0.20120  0.20460  0.24550  Biso   1.000  C
  C64      1.0000 0.79880  0.79540  0.75450  Biso   1.000  C
  H51      1.0000 0.23860  0.25500  0.26190  Biso   1.000  H
  H52      1.0000 0.76140  0.74500  0.73810  Biso   1.000  H
  C65      1.0000 0.21340  0.16330  0.18310  Biso   1.000  C
  C66      1.0000 0.78660  0.83670  0.81690  Biso   1.000  C
  H53      1.0000 0.25910  0.18330  0.15660  Biso   1.000  H
  H54      1.0000 0.74090  0.81670  0.84340  Biso   1.000  H
  C67      1.0000 0.15510  0.09160  0.16210  Biso   1.000  C
  C68      1.0000 0.84490  0.90840  0.83790  Biso   1.000  C
  H55      1.0000 0.16080  0.06310  0.11960  Biso   1.000  H
  H56      1.0000 0.83920  0.93690  0.88040  Biso   1.000  H
  C69      1.0000 0.07800  0.07980  0.41450  Biso   1.000  C
  C70      1.0000 0.92200  0.92020  0.58550  Biso   1.000  C
  C71      1.0000 0.11660  0.23150  0.34860  Biso   1.000  C
  C72      1.0000 0.88340  0.76850  0.65140  Biso   1.000  C
  C73      1.0000 0.94160  0.66220  0.82110  Biso   1.000  C
  C74      1.0000 0.05840  0.33780  0.17890  Biso   1.000  C
  H57      1.0000 0.96060  0.72210  0.83450  Biso   1.000  H
  H58      1.0000 0.03940  0.27790  0.16550  Biso   1.000  H
  C75      1.0000 0.97610  0.62070  0.76580  Biso   1.000  C
  C76      1.0000 0.02390  0.37930  0.23420  Biso   1.000  C
  H59      1.0000 0.01460  0.65210  0.73970  Biso   1.000  H
  H60      1.0000 0.98540  0.34790  0.26030  Biso   1.000  H
  C77      1.0000 0.95250  0.53060  0.74940  Biso   1.000  C
  C78      1.0000 0.04750  0.46940  0.25060  Biso   1.000  C
  H61      1.0000 0.97910  0.50010  0.71340  Biso   1.000  H
  H62      1.0000 0.02090  0.49990  0.28660  Biso   1.000  H
  C79      1.0000 0.89080  0.48420  0.78450  Biso   1.000  C
  C80      1.0000 0.10920  0.51580  0.21550  Biso   1.000  C
  C81      1.0000 0.85080  0.53430  0.83810  Biso   1.000  C
  C82      1.0000 0.14920  0.46570  0.16190  Biso   1.000  C
  C83      1.0000 0.77750  0.50190  0.87940  Biso   1.000  C
  C84      1.0000 0.22250  0.49810  0.12060  Biso   1.000  C
  C85      1.0000 0.70360  0.44020  0.86160  Biso   1.000  C
  C86      1.0000 0.29640  0.55980  0.13840  Biso   1.000  C
  C87      1.0000 0.64350  0.42040  0.91220  Biso   1.000  C
  C88      1.0000 0.35650  0.57960  0.08780  Biso   1.000  C
  H63      1.0000 0.59360  0.37990  0.90120  Biso   1.000  H
  H64      1.0000 0.40640  0.62010  0.09880  Biso   1.000  H
  C89      1.0000 0.65540  0.45720  0.97430  Biso   1.000  C
  C90      1.0000 0.34460  0.54280  0.02570  Biso   1.000  C
  H65      1.0000 0.61760  0.43920  0.00680  Biso   1.000  H
  H66      1.0000 0.38240  0.56080  0.99320  Biso   1.000  H
  C91      1.0000 0.72650  0.52420  0.99010  Biso   1.000  C
  C92      1.0000 0.27350  0.47580  0.00990  Biso   1.000  C
  H67      1.0000 0.73330  0.55350  0.03280  Biso   1.000  H
  H68      1.0000 0.26670  0.44650  0.96720  Biso   1.000  H
  C93      1.0000 0.87830  0.38340  0.77130  Biso   1.000  C
  C94      1.0000 0.12170  0.61660  0.22870  Biso   1.000  C
  C95      1.0000 0.67920  0.40140  0.79240  Biso   1.000  C
  C96      1.0000 0.32080  0.59860  0.20760  Biso   1.000  C
  O123     1.0000 0.84090  0.75030  0.44630  Biso   1.000  O
  O124     1.0000 0.15910  0.24970  0.55370  Biso   1.000  O
  H69      1.0000 0.87480  0.74880  0.48130  Biso   1.000  H
  H70      1.0000 0.12520  0.25120  0.51870  Biso   1.000  H
  H71      1.0000 0.83990  0.80860  0.44790  Biso   1.000  H
  H72      1.0000 0.16010  0.19140  0.55210  Biso   1.000  H
  O125     1.0000 0.75400  0.07470  0.69140  Biso   1.000  O
  O126     1.0000 0.24600  0.92530  0.30860  Biso   1.000  O
  H73      1.0000 0.73830  0.01880  0.68610  Biso   1.000  H
  H74      1.0000 0.26170  0.98120  0.31390  Biso   1.000  H
  H75      1.0000 0.71040  0.10160  0.67790  Biso   1.000  H
  H76      1.0000 0.28960  0.89840  0.32210  Biso   1.000  H
  O127     1.0000 0.90860  0.18320  0.68990  Biso   1.000  O
  O128     1.0000 0.09140  0.81680  0.31010  Biso   1.000  O
  H77      1.0000 0.86070  0.15140  0.69650  Biso   1.000  H
  H78      1.0000 0.13930  0.84860  0.30350  Biso   1.000  H
  H79      1.0000 0.91590  0.17990  0.64850  Biso   1.000  H
  H80      1.0000 0.08410  0.82010  0.35150  Biso   1.000  H
  O129     1.0000 0.09290  0.84680  0.45220  Biso   1.000  O
  O130     1.0000 0.90710  0.15320  0.54780  Biso   1.000  O
  H81      1.0000 0.08380  0.89590  0.47550  Biso   1.000  H
  H82      1.0000 0.91620  0.10410  0.52450  Biso   1.000  H
  H83      1.0000 0.04450  0.81510  0.45790  Biso   1.000  H
  H84      1.0000 0.95550  0.18490  0.54210  Biso   1.000  H
  O131     1.0000 0.23720  0.61790  0.36120  Biso   1.000  O
  O132     1.0000 0.76280  0.38210  0.63880  Biso   1.000  O
  H85      1.0000 0.18680  0.63100  0.34640  Biso   1.000  H
  H86      1.0000 0.81320  0.36900  0.65360  Biso   1.000  H
  H87      1.0000 0.26620  0.59520  0.32870  Biso   1.000  H
  H88      1.0000 0.73380  0.40480  0.67130  Biso   1.000  H
  O133     1.0000 0.15130  0.67870  0.05250  Biso   1.000  O
  O134     1.0000 0.84870  0.32130  0.94750  Biso   1.000  O
  H89      1.0000 0.17330  0.68280  0.01470  Biso   1.000  H
  H90      1.0000 0.82670  0.31720  0.98530  Biso   1.000  H
  H91      1.0000 0.09760  0.69420  0.05220  Biso   1.000  H
  H92      1.0000 0.90240  0.30580  0.94780  Biso   1.000  H
  O135     1.0000 0.09400  0.83200  0.00630  Biso   1.000  O
  O136     1.0000 0.90600  0.16800  0.99370  Biso   1.000  O
  H93      1.0000 0.13580  0.84210  0.97970  Biso   1.000  H
  H94      1.0000 0.86420  0.15790  0.02030  Biso   1.000  H
  H95      1.0000 0.10440  0.78510  0.02360  Biso   1.000  H
  H96      1.0000 0.89560  0.21490  0.97640  Biso   1.000  H
  O137     1.0000 0.67900  0.15000  0.81600  Biso   1.000  O
  O138     1.0000 0.32100  0.85000  0.18400  Biso   1.000  O
  H97      1.0000 0.69140  0.14620  0.85630  Biso   1.000  H
  H98      1.0000 0.30860  0.85380  0.14370  Biso   1.000  H
  H99      1.0000 0.71440  0.11830  0.79210  Biso   1.000  H
  H100     1.0000 0.28560  0.88170  0.20790  Biso   1.000  H
  O139     1.0000 0.66500  0.30800  0.78580  Biso   1.000  O
  O140     1.0000 0.33500  0.69200  0.21420  Biso   1.000  O
  O141     1.0000 0.31100  0.61150  0.38520  Biso   1.000  O
  O142     1.0000 0.68900  0.38850  0.61480  Biso   1.000  O
  H101     1.0000 0.30830  0.55640  0.36950  Biso   1.000  H
  H102     1.0000 0.69170  0.44360  0.63050  Biso   1.000  H
  H103     1.0000 0.35970  0.63690  0.37290  Biso   1.000  H
  H104     1.0000 0.64030  0.36310  0.62710  Biso   1.000  H
  O143     1.0000 0.75700  0.11800  0.84100  Biso   1.000  O
  O144     1.0000 0.24300  0.88200  0.15900  Biso   1.000  O
  H105     1.0000 0.71580  0.13880  0.86570  Biso   1.000  H
  H106     1.0000 0.28420  0.86120  0.13430  Biso   1.000  H
  H107     1.0000 0.73770  0.11140  0.80120  Biso   1.000  H
  H108     1.0000 0.26230  0.88860  0.19880  Biso   1.000  H
