data_image0
_cell_length_a       7.5624
_cell_length_b       15.281
_cell_length_c       8.6423
_cell_angle_alpha    90
_cell_angle_beta     96.022
_cell_angle_gamma    90

_symmetry_space_group_name_H-M    "P 1"
_symmetry_int_tables_number       1

loop_
  _symmetry_equiv_pos_as_xyz
  'x, y, z'

loop_
  _atom_site_label
  _atom_site_occupancy
  _atom_site_fract_x
  _atom_site_fract_y
  _atom_site_fract_z
  _atom_site_thermal_displace_type
  _atom_site_B_iso_or_equiv
  _atom_site_type_symbol
  C1       1.0000 0.27240  0.30190  0.00460  Biso   1.000  C
  C2       1.0000 0.72760  0.80190  0.99540  Biso   1.000  C
  H1       1.0000 0.29630  0.35750  0.96860  Biso   1.000  H
  H2       1.0000 0.70370  0.85750  0.03140  Biso   1.000  H
  C3       1.0000 0.39550  0.26540  0.10540  Biso   1.000  C
  C4       1.0000 0.60450  0.76540  0.89460  Biso   1.000  C
  H3       1.0000 0.50420  0.29220  0.13480  Biso   1.000  H
  H4       1.0000 0.49580  0.79220  0.86520  Biso   1.000  H
  C5       1.0000 0.35090  0.18460  0.16400  Biso   1.000  C
  C6       1.0000 0.64910  0.68460  0.83600  Biso   1.000  C
  H5       1.0000 0.42920  0.15700  0.23870  Biso   1.000  H
  H6       1.0000 0.57080  0.65700  0.76130  Biso   1.000  H
  C7       1.0000 0.19420  0.14520  0.11340  Biso   1.000  C
  C8       1.0000 0.80580  0.64520  0.88660  Biso   1.000  C
  H7       1.0000 0.16570  0.09070  0.15200  Biso   1.000  H
  H8       1.0000 0.83430  0.59070  0.84800  Biso   1.000  H
  C9       1.0000 0.07630  0.18800  0.00230  Biso   1.000  C
  C10      1.0000 0.92370  0.68800  0.99770  Biso   1.000  C
  C11      1.0000 0.90390  0.14950  0.93300  Biso   1.000  C
  C12      1.0000 0.09610  0.64950  0.06700  Biso   1.000  C
  H9       1.0000 0.82350  0.14050  0.01710  Biso   1.000  H
  H10      1.0000 0.17650  0.64050  0.98290  Biso   1.000  H
  C13      1.0000 0.93880  0.06170  0.85510  Biso   1.000  C
  C14      1.0000 0.06120  0.56170  0.14490  Biso   1.000  C
  H11      1.0000 0.83780  0.04650  0.78340  Biso   1.000  H
  H12      1.0000 0.16220  0.54650  0.21660  Biso   1.000  H
  H13      1.0000 0.95820  0.01710  0.93310  Biso   1.000  H
  H14      1.0000 0.04180  0.51710  0.06690  Biso   1.000  H
  H15      1.0000 0.04210  0.06680  0.80000  Biso   1.000  H
  H16      1.0000 0.95790  0.56680  0.20000  Biso   1.000  H
  C15      1.0000 0.53150  0.55550  0.12190  Biso   1.000  C
  C16      1.0000 0.46850  0.05550  0.87810  Biso   1.000  C
  C17      1.0000 0.25130  0.59180  0.59090  Biso   1.000  C
  C18      1.0000 0.74870  0.09180  0.40910  Biso   1.000  C
  C19      1.0000 0.23470  0.23010  0.54940  Biso   1.000  C
  C20      1.0000 0.76530  0.73010  0.45060  Biso   1.000  C
  H17      1.0000 0.21510  0.17410  0.58650  Biso   1.000  H
  H18      1.0000 0.78490  0.67410  0.41350  Biso   1.000  H
  C21      1.0000 0.09820  0.27100  0.45520  Biso   1.000  C
  C22      1.0000 0.90180  0.77100  0.54480  Biso   1.000  C
  H19      1.0000 0.98690  0.24520  0.43500  Biso   1.000  H
  H20      1.0000 0.01310  0.74520  0.56500  Biso   1.000  H
  C23      1.0000 0.13310  0.34780  0.39600  Biso   1.000  C
  C24      1.0000 0.86690  0.84780  0.60400  Biso   1.000  C
  H21      1.0000 0.04720  0.37400  0.32610  Biso   1.000  H
  H22      1.0000 0.95280  0.87400  0.67390  Biso   1.000  H
  C25      1.0000 0.29290  0.39110  0.43390  Biso   1.000  C
  C26      1.0000 0.70710  0.89110  0.56610  Biso   1.000  C
  H23      1.0000 0.31320  0.44620  0.39380  Biso   1.000  H
  H24      1.0000 0.68680  0.94620  0.60620  Biso   1.000  H
  C27      1.0000 0.42300  0.34850  0.53510  Biso   1.000  C
  C28      1.0000 0.57700  0.84850  0.46490  Biso   1.000  C
  C29      1.0000 0.59860  0.38940  0.58950  Biso   1.000  C
  C30      1.0000 0.40140  0.88940  0.41050  Biso   1.000  C
  H25      1.0000 0.58150  0.43150  0.67230  Biso   1.000  H
  H26      1.0000 0.41850  0.93150  0.32770  Biso   1.000  H
  C31      1.0000 0.68290  0.43540  0.46200  Biso   1.000  C
  C32      1.0000 0.31710  0.93540  0.53800  Biso   1.000  C
  H27      1.0000 0.80080  0.45370  0.50030  Biso   1.000  H
  H28      1.0000 0.19920  0.95370  0.49970  Biso   1.000  H
  H29      1.0000 0.61300  0.48570  0.42840  Biso   1.000  H
  H30      1.0000 0.38700  0.98570  0.57160  Biso   1.000  H
  H31      1.0000 0.68860  0.39620  0.37580  Biso   1.000  H
  H32      1.0000 0.31140  0.89620  0.62420  Biso   1.000  H
  C33      1.0000 0.10480  0.48760  0.71850  Biso   1.000  C
  C34      1.0000 0.89520  0.98760  0.28150  Biso   1.000  C
  C35      1.0000 0.66000  0.43820  0.02130  Biso   1.000  C
  C36      1.0000 0.34000  0.93820  0.97870  Biso   1.000  C
  Cu1      1.0000 0.92127  0.31818  0.80659  Biso   1.000  Cu
  Cu2      1.0000 0.07873  0.81818  0.19341  Biso   1.000  Cu
  Cu3      1.0000 0.60159  0.21230  0.70212  Biso   1.000  Cu
  Cu4      1.0000 0.39841  0.71230  0.29788  Biso   1.000  Cu
  N1       1.0000 0.11700  0.26550  0.95030  Biso   1.000  N
  N2       1.0000 0.88300  0.76550  0.04970  Biso   1.000  N
  N3       1.0000 0.38810  0.26680  0.58760  Biso   1.000  N
  N4       1.0000 0.61190  0.76680  0.41240  Biso   1.000  N
  N5       1.0000 0.76790  0.38690  0.99590  Biso   1.000  N
  N6       1.0000 0.23210  0.88690  0.00410  Biso   1.000  N
  N7       1.0000 0.52600  0.48860  0.04260  Biso   1.000  N
  N8       1.0000 0.47400  0.98860  0.95740  Biso   1.000  N
  N9       1.0000 0.03860  0.41660  0.75660  Biso   1.000  N
  N10      1.0000 0.96140  0.91660  0.24340  Biso   1.000  N
  N11      1.0000 0.51220  0.61650  0.19850  Biso   1.000  N
  N12      1.0000 0.48780  0.11650  0.80150  Biso   1.000  N
  N13      1.0000 0.32710  0.62510  0.51350  Biso   1.000  N
  N14      1.0000 0.67290  0.12510  0.48650  Biso   1.000  N
  N15      1.0000 0.16350  0.55700  0.70110  Biso   1.000  N
  N16      1.0000 0.83650  0.05700  0.29890  Biso   1.000  N
  O1       1.0000 0.82670  0.20470  0.81950  Biso   1.000  O
  O2       1.0000 0.17330  0.70470  0.18050  Biso   1.000  O
  O3       1.0000 0.71360  0.32130  0.64910  Biso   1.000  O
  O4       1.0000 0.28640  0.82130  0.35090  Biso   1.000  O
