data_image0
_cell_length_a       19.6241
_cell_length_b       10.4639
_cell_length_c       10.7024
_cell_angle_alpha    90
_cell_angle_beta     96.163
_cell_angle_gamma    90

_symmetry_space_group_name_H-M    "P 1"
_symmetry_int_tables_number       1

loop_
  _symmetry_equiv_pos_as_xyz
  'x, y, z'

loop_
  _atom_site_label
  _atom_site_occupancy
  _atom_site_fract_x
  _atom_site_fract_y
  _atom_site_fract_z
  _atom_site_thermal_displace_type
  _atom_site_B_iso_or_equiv
  _atom_site_type_symbol
  Cu1      1.0000 0.50000  0.50000  0.50000  Biso   1.000  Cu
  Cu2      1.0000 0.50000  0.50000  0.00000  Biso   1.000  Cu
  Cu3      1.0000 0.00000  0.00000  0.50000  Biso   1.000  Cu
  Cu4      1.0000 0.00000  0.00000  0.00000  Biso   1.000  Cu
  O1       1.0000 0.30968  0.15535  0.22648  Biso   1.000  O
  O2       1.0000 0.69032  0.15535  0.27352  Biso   1.000  O
  O3       1.0000 0.80968  0.65535  0.22648  Biso   1.000  O
  O4       1.0000 0.19032  0.65535  0.27352  Biso   1.000  O
  O5       1.0000 0.69032  0.84465  0.77352  Biso   1.000  O
  O6       1.0000 0.30968  0.84465  0.72648  Biso   1.000  O
  O7       1.0000 0.19032  0.34465  0.77352  Biso   1.000  O
  O8       1.0000 0.80968  0.34465  0.72648  Biso   1.000  O
  H1       1.0000 0.33940  0.19360  0.19300  Biso   1.000  H
  H2       1.0000 0.66060  0.19360  0.30700  Biso   1.000  H
  H3       1.0000 0.83940  0.69360  0.19300  Biso   1.000  H
  H4       1.0000 0.16060  0.69360  0.30700  Biso   1.000  H
  H5       1.0000 0.66060  0.80640  0.80700  Biso   1.000  H
  H6       1.0000 0.33940  0.80640  0.69300  Biso   1.000  H
  H7       1.0000 0.16060  0.30640  0.80700  Biso   1.000  H
  H8       1.0000 0.83940  0.30640  0.69300  Biso   1.000  H
  N1       1.0000 0.59190  0.58428  0.49356  Biso   1.000  N
  N2       1.0000 0.40810  0.58428  0.00644  Biso   1.000  N
  N3       1.0000 0.09190  0.08428  0.49356  Biso   1.000  N
  N4       1.0000 0.90810  0.08428  0.00644  Biso   1.000  N
  N5       1.0000 0.40810  0.41572  0.50644  Biso   1.000  N
  N6       1.0000 0.59190  0.41572  0.99356  Biso   1.000  N
  N7       1.0000 0.90810  0.91572  0.50644  Biso   1.000  N
  N8       1.0000 0.09190  0.91572  0.99356  Biso   1.000  N
  O9       1.0000 0.39786  0.70289  0.60831  Biso   1.000  O
  O10      1.0000 0.60214  0.70289  0.89169  Biso   1.000  O
  O11      1.0000 0.89786  0.20289  0.60831  Biso   1.000  O
  O12      1.0000 0.10214  0.20289  0.89169  Biso   1.000  O
  O13      1.0000 0.60214  0.29711  0.39169  Biso   1.000  O
  O14      1.0000 0.39786  0.29711  0.10831  Biso   1.000  O
  O15      1.0000 0.10214  0.79711  0.39169  Biso   1.000  O
  O16      1.0000 0.89786  0.79711  0.10831  Biso   1.000  O
  C1       1.0000 0.71671  0.71533  0.49822  Biso   1.000  C
  C2       1.0000 0.28329  0.71533  0.00178  Biso   1.000  C
  C3       1.0000 0.21671  0.21533  0.49822  Biso   1.000  C
  C4       1.0000 0.78329  0.21533  0.00178  Biso   1.000  C
  C5       1.0000 0.28329  0.28467  0.50178  Biso   1.000  C
  C6       1.0000 0.71671  0.28467  0.99822  Biso   1.000  C
  C7       1.0000 0.78329  0.78467  0.50178  Biso   1.000  C
  C8       1.0000 0.21671  0.78467  0.99822  Biso   1.000  C
  C9       1.0000 0.70489  0.62610  0.58835  Biso   1.000  C
  C10      1.0000 0.29511  0.62610  0.91165  Biso   1.000  C
  C11      1.0000 0.20489  0.12610  0.58835  Biso   1.000  C
  C12      1.0000 0.79511  0.12610  0.91165  Biso   1.000  C
  C13      1.0000 0.29511  0.37390  0.41165  Biso   1.000  C
  C14      1.0000 0.70489  0.37390  0.08835  Biso   1.000  C
  C15      1.0000 0.79511  0.87390  0.41165  Biso   1.000  C
  C16      1.0000 0.20489  0.87390  0.08835  Biso   1.000  C
  H9       1.0000 0.73910  0.60810  0.65300  Biso   1.000  H
  H10      1.0000 0.26090  0.60810  0.84700  Biso   1.000  H
  H11      1.0000 0.23910  0.10810  0.65300  Biso   1.000  H
  H12      1.0000 0.76090  0.10810  0.84700  Biso   1.000  H
  H13      1.0000 0.26090  0.39190  0.34700  Biso   1.000  H
  H14      1.0000 0.73910  0.39190  0.15300  Biso   1.000  H
  H15      1.0000 0.76090  0.89190  0.34700  Biso   1.000  H
  H16      1.0000 0.23910  0.89190  0.15300  Biso   1.000  H
  C17      1.0000 0.32181  0.87987  0.43113  Biso   1.000  C
  C18      1.0000 0.67819  0.87987  0.06887  Biso   1.000  C
  C19      1.0000 0.82181  0.37987  0.43113  Biso   1.000  C
  C20      1.0000 0.17819  0.37987  0.06887  Biso   1.000  C
  C21      1.0000 0.67819  0.12013  0.56887  Biso   1.000  C
  C22      1.0000 0.32181  0.12013  0.93113  Biso   1.000  C
  C23      1.0000 0.17819  0.62013  0.56887  Biso   1.000  C
  C24      1.0000 0.82181  0.62013  0.93113  Biso   1.000  C
  H17      1.0000 0.29300  0.83280  0.47730  Biso   1.000  H
  H18      1.0000 0.70700  0.83280  0.02270  Biso   1.000  H
  H19      1.0000 0.79300  0.33280  0.47730  Biso   1.000  H
  H20      1.0000 0.20700  0.33280  0.02270  Biso   1.000  H
  H21      1.0000 0.70700  0.16720  0.52270  Biso   1.000  H
  H22      1.0000 0.29300  0.16720  0.97730  Biso   1.000  H
  H23      1.0000 0.20700  0.66720  0.52270  Biso   1.000  H
  H24      1.0000 0.79300  0.66720  0.97730  Biso   1.000  H
  C25      1.0000 0.64321  0.56342  0.58369  Biso   1.000  C
  C26      1.0000 0.35679  0.56342  0.91631  Biso   1.000  C
  C27      1.0000 0.14321  0.06342  0.58369  Biso   1.000  C
  C28      1.0000 0.85679  0.06342  0.91631  Biso   1.000  C
  C29      1.0000 0.35679  0.43658  0.41631  Biso   1.000  C
  C30      1.0000 0.64321  0.43658  0.08369  Biso   1.000  C
  C31      1.0000 0.85679  0.93658  0.41631  Biso   1.000  C
  C32      1.0000 0.14321  0.93658  0.08369  Biso   1.000  C
  H25      1.0000 0.63690  0.50390  0.64600  Biso   1.000  H
  H26      1.0000 0.36310  0.50390  0.85400  Biso   1.000  H
  H27      1.0000 0.13690  0.00390  0.64600  Biso   1.000  H
  H28      1.0000 0.86310  0.00390  0.85400  Biso   1.000  H
  H29      1.0000 0.36310  0.49610  0.35400  Biso   1.000  H
  H30      1.0000 0.63690  0.49610  0.14600  Biso   1.000  H
  H31      1.0000 0.86310  0.99610  0.35400  Biso   1.000  H
  H32      1.0000 0.13690  0.99610  0.14600  Biso   1.000  H
  C33      1.0000 0.39060  0.84563  0.43351  Biso   1.000  C
  C34      1.0000 0.60940  0.84563  0.06649  Biso   1.000  C
  C35      1.0000 0.89060  0.34563  0.43351  Biso   1.000  C
  C36      1.0000 0.10940  0.34563  0.06649  Biso   1.000  C
  C37      1.0000 0.60940  0.15437  0.56649  Biso   1.000  C
  C38      1.0000 0.39060  0.15437  0.93351  Biso   1.000  C
  C39      1.0000 0.10940  0.65437  0.56649  Biso   1.000  C
  C40      1.0000 0.89060  0.65437  0.93351  Biso   1.000  C
  C41      1.0000 0.66392  0.73433  0.40271  Biso   1.000  C
  C42      1.0000 0.33608  0.73433  0.09729  Biso   1.000  C
  C43      1.0000 0.16392  0.23433  0.40271  Biso   1.000  C
  C44      1.0000 0.83608  0.23433  0.09729  Biso   1.000  C
  C45      1.0000 0.33608  0.26567  0.59729  Biso   1.000  C
  C46      1.0000 0.66392  0.26567  0.90271  Biso   1.000  C
  C47      1.0000 0.83608  0.76567  0.59729  Biso   1.000  C
  C48      1.0000 0.16392  0.76567  0.90271  Biso   1.000  C
  H33      1.0000 0.66950  0.79160  0.33810  Biso   1.000  H
  H34      1.0000 0.33050  0.79160  0.16190  Biso   1.000  H
  H35      1.0000 0.16950  0.29160  0.33810  Biso   1.000  H
  H36      1.0000 0.83050  0.29160  0.16190  Biso   1.000  H
  H37      1.0000 0.33050  0.20840  0.66190  Biso   1.000  H
  H38      1.0000 0.66950  0.20840  0.83810  Biso   1.000  H
  H39      1.0000 0.83050  0.70840  0.66190  Biso   1.000  H
  H40      1.0000 0.16950  0.70840  0.83810  Biso   1.000  H
  C49      1.0000 0.41740  0.72956  0.50370  Biso   1.000  C
  C50      1.0000 0.58260  0.72956  0.99630  Biso   1.000  C
  C51      1.0000 0.91740  0.22956  0.50370  Biso   1.000  C
  C52      1.0000 0.08260  0.22956  0.99630  Biso   1.000  C
  C53      1.0000 0.58260  0.27044  0.49630  Biso   1.000  C
  C54      1.0000 0.41740  0.27044  0.00370  Biso   1.000  C
  C55      1.0000 0.08260  0.77044  0.49630  Biso   1.000  C
  C56      1.0000 0.91740  0.77044  0.00370  Biso   1.000  C
  C57      1.0000 0.33841  0.05656  0.29441  Biso   1.000  C
  C58      1.0000 0.66159  0.05656  0.20559  Biso   1.000  C
  C59      1.0000 0.83841  0.55656  0.29441  Biso   1.000  C
  C60      1.0000 0.16159  0.55656  0.20559  Biso   1.000  C
  C61      1.0000 0.66159  0.94344  0.70559  Biso   1.000  C
  C62      1.0000 0.33841  0.94344  0.79441  Biso   1.000  C
  C63      1.0000 0.16159  0.44344  0.70559  Biso   1.000  C
  C64      1.0000 0.83841  0.44344  0.79441  Biso   1.000  C
  C65      1.0000 0.29609  0.98290  0.36094  Biso   1.000  C
  C66      1.0000 0.70391  0.98290  0.13906  Biso   1.000  C
  C67      1.0000 0.79609  0.48290  0.36094  Biso   1.000  C
  C68      1.0000 0.20391  0.48290  0.13906  Biso   1.000  C
  C69      1.0000 0.70391  0.01710  0.63906  Biso   1.000  C
  C70      1.0000 0.29609  0.01710  0.86094  Biso   1.000  C
  C71      1.0000 0.20391  0.51710  0.63906  Biso   1.000  C
  C72      1.0000 0.79609  0.51710  0.86094  Biso   1.000  C
  C73      1.0000 0.60315  0.66800  0.40386  Biso   1.000  C
  C74      1.0000 0.39685  0.66800  0.09614  Biso   1.000  C
  C75      1.0000 0.10315  0.16800  0.40386  Biso   1.000  C
  C76      1.0000 0.89685  0.16800  0.09614  Biso   1.000  C
  C77      1.0000 0.39685  0.33200  0.59614  Biso   1.000  C
  C78      1.0000 0.60315  0.33200  0.90386  Biso   1.000  C
  C79      1.0000 0.89685  0.83200  0.59614  Biso   1.000  C
  C80      1.0000 0.10315  0.83200  0.90386  Biso   1.000  C
  C81      1.0000 0.43265  0.91884  0.36560  Biso   1.000  C
  C82      1.0000 0.56735  0.91884  0.13440  Biso   1.000  C
  C83      1.0000 0.93265  0.41884  0.36560  Biso   1.000  C
  C84      1.0000 0.06735  0.41884  0.13440  Biso   1.000  C
  C85      1.0000 0.56735  0.08116  0.63440  Biso   1.000  C
  C86      1.0000 0.43265  0.08116  0.86560  Biso   1.000  C
  C87      1.0000 0.06735  0.58116  0.63440  Biso   1.000  C
  C88      1.0000 0.93265  0.58116  0.86560  Biso   1.000  C
  C89      1.0000 0.40751  0.02480  0.29800  Biso   1.000  C
  C90      1.0000 0.59249  0.02480  0.20200  Biso   1.000  C
  C91      1.0000 0.90751  0.52480  0.29800  Biso   1.000  C
  C92      1.0000 0.09249  0.52480  0.20200  Biso   1.000  C
  C93      1.0000 0.59249  0.97520  0.70200  Biso   1.000  C
  C94      1.0000 0.40751  0.97520  0.79800  Biso   1.000  C
  C95      1.0000 0.09249  0.47520  0.70200  Biso   1.000  C
  C96      1.0000 0.90751  0.47520  0.79800  Biso   1.000  C
  O17      1.0000 0.45896  0.66280  0.44833  Biso   1.000  O
  O18      1.0000 0.54104  0.66280  0.05167  Biso   1.000  O
  O19      1.0000 0.95896  0.16280  0.44833  Biso   1.000  O
  O20      1.0000 0.04104  0.16280  0.05167  Biso   1.000  O
  O21      1.0000 0.54104  0.33720  0.55167  Biso   1.000  O
  O22      1.0000 0.45896  0.33720  0.94833  Biso   1.000  O
  O23      1.0000 0.04104  0.83720  0.55167  Biso   1.000  O
  O24      1.0000 0.95896  0.83720  0.94833  Biso   1.000  O
  H41      1.0000 0.43490  0.07100  0.25300  Biso   1.000  H
  H42      1.0000 0.56510  0.07100  0.24700  Biso   1.000  H
  H43      1.0000 0.93490  0.57100  0.25300  Biso   1.000  H
  H44      1.0000 0.06510  0.57100  0.24700  Biso   1.000  H
  H45      1.0000 0.56510  0.92900  0.74700  Biso   1.000  H
  H46      1.0000 0.43490  0.92900  0.75300  Biso   1.000  H
  H47      1.0000 0.06510  0.42900  0.74700  Biso   1.000  H
  H48      1.0000 0.93490  0.42900  0.75300  Biso   1.000  H
  H49      1.0000 0.25170  0.00400  0.35800  Biso   1.000  H
  H50      1.0000 0.74830  0.00400  0.14200  Biso   1.000  H
  H51      1.0000 0.75170  0.50400  0.35800  Biso   1.000  H
  H52      1.0000 0.24830  0.50400  0.14200  Biso   1.000  H
  H53      1.0000 0.74830  0.99600  0.64200  Biso   1.000  H
  H54      1.0000 0.25170  0.99600  0.85800  Biso   1.000  H
  H55      1.0000 0.24830  0.49600  0.64200  Biso   1.000  H
  H56      1.0000 0.75170  0.49600  0.85800  Biso   1.000  H
  H57      1.0000 0.56890  0.68100  0.34000  Biso   1.000  H
  H58      1.0000 0.43110  0.68100  0.16000  Biso   1.000  H
  H59      1.0000 0.06890  0.18100  0.34000  Biso   1.000  H
  H60      1.0000 0.93110  0.18100  0.16000  Biso   1.000  H
  H61      1.0000 0.43110  0.31900  0.66000  Biso   1.000  H
  H62      1.0000 0.56890  0.31900  0.84000  Biso   1.000  H
  H63      1.0000 0.93110  0.81900  0.66000  Biso   1.000  H
  H64      1.0000 0.06890  0.81900  0.84000  Biso   1.000  H
  H65      1.0000 0.47880  0.89700  0.37000  Biso   1.000  H
  H66      1.0000 0.52120  0.89700  0.13000  Biso   1.000  H
  H67      1.0000 0.97880  0.39700  0.37000  Biso   1.000  H
  H68      1.0000 0.02120  0.39700  0.13000  Biso   1.000  H
  H69      1.0000 0.52120  0.10300  0.63000  Biso   1.000  H
  H70      1.0000 0.47880  0.10300  0.87000  Biso   1.000  H
  H71      1.0000 0.02120  0.60300  0.63000  Biso   1.000  H
  H72      1.0000 0.97880  0.60300  0.87000  Biso   1.000  H
  O25      1.0000 0.50000  0.44350  0.25000  Biso   1.000  O
  O26      1.0000 0.00000  0.94350  0.25000  Biso   1.000  O
  O27      1.0000 0.50000  0.55650  0.75000  Biso   1.000  O
  O28      1.0000 0.00000  0.05650  0.75000  Biso   1.000  O
  H73      1.0000 0.46850  0.39400  0.22000  Biso   1.000  H
  H74      1.0000 0.53150  0.39400  0.28000  Biso   1.000  H
  H75      1.0000 0.96850  0.89400  0.22000  Biso   1.000  H
  H76      1.0000 0.03150  0.89400  0.28000  Biso   1.000  H
  H77      1.0000 0.53150  0.60600  0.78000  Biso   1.000  H
  H78      1.0000 0.46850  0.60600  0.72000  Biso   1.000  H
  H79      1.0000 0.03150  0.10600  0.78000  Biso   1.000  H
  H80      1.0000 0.96850  0.10600  0.72000  Biso   1.000  H
