data_image0
_cell_length_a       13.875
_cell_length_b       5.748
_cell_length_c       14.739
_cell_angle_alpha    90
_cell_angle_beta     106.32
_cell_angle_gamma    90

_symmetry_space_group_name_H-M    "P 1"
_symmetry_int_tables_number       1

loop_
  _symmetry_equiv_pos_as_xyz
  'x, y, z'

loop_
  _atom_site_label
  _atom_site_occupancy
  _atom_site_fract_x
  _atom_site_fract_y
  _atom_site_fract_z
  _atom_site_thermal_displace_type
  _atom_site_B_iso_or_equiv
  _atom_site_type_symbol
  Cu1      1.0000 0.30661  0.27380  0.11666  Biso   1.000  Cu
  Cu2      1.0000 0.19339  0.77380  0.38334  Biso   1.000  Cu
  Cu3      1.0000 0.69339  0.72620  0.88334  Biso   1.000  Cu
  Cu4      1.0000 0.80661  0.22620  0.61666  Biso   1.000  Cu
  O1       1.0000 0.32160  0.52100  0.03010  Biso   1.000  O
  O2       1.0000 0.17840  0.02100  0.46990  Biso   1.000  O
  O3       1.0000 0.67840  0.47900  0.96990  Biso   1.000  O
  O4       1.0000 0.82160  0.97900  0.53010  Biso   1.000  O
  O5       1.0000 0.23970  0.81500  0.94570  Biso   1.000  O
  O6       1.0000 0.26030  0.31500  0.55430  Biso   1.000  O
  O7       1.0000 0.76030  0.18500  0.05430  Biso   1.000  O
  O8       1.0000 0.73970  0.68500  0.44570  Biso   1.000  O
  O9       1.0000 0.25230  0.02700  0.18190  Biso   1.000  O
  O10      1.0000 0.24770  0.52700  0.31810  Biso   1.000  O
  O11      1.0000 0.74770  0.97300  0.81810  Biso   1.000  O
  O12      1.0000 0.75230  0.47300  0.68190  Biso   1.000  O
  O13      1.0000 0.11740  0.95300  0.23210  Biso   1.000  O
  O14      1.0000 0.38260  0.45300  0.26790  Biso   1.000  O
  O15      1.0000 0.88260  0.04700  0.76790  Biso   1.000  O
  O16      1.0000 0.61740  0.54700  0.73210  Biso   1.000  O
  O17      1.0000 0.58200  0.36100  0.38800  Biso   1.000  O
  O18      1.0000 0.91800  0.86100  0.11200  Biso   1.000  O
  O19      1.0000 0.41800  0.63900  0.61200  Biso   1.000  O
  O20      1.0000 0.08200  0.13900  0.88800  Biso   1.000  O
  N1       1.0000 0.17660  0.43100  0.10600  Biso   1.000  N
  N2       1.0000 0.32340  0.93100  0.39400  Biso   1.000  N
  N3       1.0000 0.82340  0.56900  0.89400  Biso   1.000  N
  N4       1.0000 0.67660  0.06900  0.60600  Biso   1.000  N
  N5       1.0000 0.43270  0.13000  0.11930  Biso   1.000  N
  N6       1.0000 0.06730  0.63000  0.38070  Biso   1.000  N
  N7       1.0000 0.56730  0.87000  0.88070  Biso   1.000  N
  N8       1.0000 0.93270  0.37000  0.61930  Biso   1.000  N
  N9       1.0000 0.58680  0.10400  0.10800  Biso   1.000  N
  N10      1.0000 0.91320  0.60400  0.39200  Biso   1.000  N
  N11      1.0000 0.41320  0.89600  0.89200  Biso   1.000  N
  N12      1.0000 0.08680  0.39600  0.60800  Biso   1.000  N
  C1       1.0000 0.24550  0.64800  0.00030  Biso   1.000  C
  C2       1.0000 0.25450  0.14800  0.49970  Biso   1.000  C
  C3       1.0000 0.75450  0.35200  0.99970  Biso   1.000  C
  C4       1.0000 0.74550  0.85200  0.50030  Biso   1.000  C
  C5       1.0000 0.15380  0.58700  0.03090  Biso   1.000  C
  C6       1.0000 0.34620  0.08700  0.46910  Biso   1.000  C
  C7       1.0000 0.84620  0.41300  0.96910  Biso   1.000  C
  C8       1.0000 0.65380  0.91300  0.53090  Biso   1.000  C
  C9       1.0000 0.10730  0.26800  0.12610  Biso   1.000  C
  C10      1.0000 0.39270  0.76800  0.37390  Biso   1.000  C
  C11      1.0000 0.89270  0.73200  0.87390  Biso   1.000  C
  C12      1.0000 0.60730  0.23200  0.62610  Biso   1.000  C
  C13      1.0000 0.16210  0.06400  0.18580  Biso   1.000  C
  C14      1.0000 0.33790  0.56400  0.31420  Biso   1.000  C
  C15      1.0000 0.83790  0.93600  0.81420  Biso   1.000  C
  C16      1.0000 0.66210  0.43600  0.68580  Biso   1.000  C
  C17      1.0000 0.50360  0.22600  0.08870  Biso   1.000  C
  C18      1.0000 0.99640  0.72600  0.41130  Biso   1.000  C
  C19      1.0000 0.49640  0.77400  0.91130  Biso   1.000  C
  C20      1.0000 0.00360  0.27400  0.58870  Biso   1.000  C
  C21      1.0000 0.57080  0.90700  0.15490  Biso   1.000  C
  C22      1.0000 0.92920  0.40700  0.34510  Biso   1.000  C
  C23      1.0000 0.42920  0.09300  0.84510  Biso   1.000  C
  C24      1.0000 0.07080  0.59300  0.65490  Biso   1.000  C
  C25      1.0000 0.65240  0.73100  0.18910  Biso   1.000  C
  C26      1.0000 0.84760  0.23100  0.31090  Biso   1.000  C
  C27      1.0000 0.34760  0.26900  0.81090  Biso   1.000  C
  C28      1.0000 0.15240  0.76900  0.68910  Biso   1.000  C
  C29      1.0000 0.47650  0.92200  0.16170  Biso   1.000  C
  C30      1.0000 0.02350  0.42200  0.33830  Biso   1.000  C
  C31      1.0000 0.52350  0.07800  0.83830  Biso   1.000  C
  C32      1.0000 0.97650  0.57800  0.66170  Biso   1.000  C
  H1       1.0000 0.19590  0.53030  0.16250  Biso   1.000  H
  H2       1.0000 0.30410  0.03030  0.33750  Biso   1.000  H
  H3       1.0000 0.80410  0.46970  0.83750  Biso   1.000  H
  H4       1.0000 0.69590  0.96970  0.66250  Biso   1.000  H
  H5       1.0000 0.12500  0.75000  0.04100  Biso   1.000  H
  H6       1.0000 0.37500  0.25000  0.45900  Biso   1.000  H
  H7       1.0000 0.87500  0.25000  0.95900  Biso   1.000  H
  H8       1.0000 0.62500  0.75000  0.54100  Biso   1.000  H
  H9       1.0000 0.10540  0.50000  0.98050  Biso   1.000  H
  H10      1.0000 0.39460  0.00000  0.51950  Biso   1.000  H
  H11      1.0000 0.89460  0.50000  0.01950  Biso   1.000  H
  H12      1.0000 0.60540  0.00000  0.48050  Biso   1.000  H
  H13      1.0000 0.04100  0.37500  0.14450  Biso   1.000  H
  H14      1.0000 0.45900  0.87500  0.35550  Biso   1.000  H
  H15      1.0000 0.95900  0.62500  0.85550  Biso   1.000  H
  H16      1.0000 0.54100  0.12500  0.64450  Biso   1.000  H
  H17      1.0000 0.06890  0.18000  0.07200  Biso   1.000  H
  H18      1.0000 0.43110  0.68000  0.42800  Biso   1.000  H
  H19      1.0000 0.93110  0.82000  0.92800  Biso   1.000  H
  H20      1.0000 0.56890  0.32000  0.57200  Biso   1.000  H
  H21      1.0000 0.47850  0.37500  0.06250  Biso   1.000  H
  H22      1.0000 0.02150  0.87500  0.43750  Biso   1.000  H
  H23      1.0000 0.52150  0.62500  0.93750  Biso   1.000  H
  H24      1.0000 0.97850  0.12500  0.56250  Biso   1.000  H
  H25      1.0000 0.64640  0.12500  0.10540  Biso   1.000  H
  H26      1.0000 0.85360  0.62500  0.39460  Biso   1.000  H
  H27      1.0000 0.35360  0.87500  0.89460  Biso   1.000  H
  H28      1.0000 0.14640  0.37500  0.60540  Biso   1.000  H
  H29      1.0000 0.62500  0.58210  0.20700  Biso   1.000  H
  H30      1.0000 0.87500  0.08210  0.29300  Biso   1.000  H
  H31      1.0000 0.37500  0.41790  0.79300  Biso   1.000  H
  H32      1.0000 0.12500  0.91790  0.70700  Biso   1.000  H
  H33      1.0000 0.68750  0.79110  0.25000  Biso   1.000  H
  H34      1.0000 0.81250  0.29110  0.25000  Biso   1.000  H
  H35      1.0000 0.31250  0.20890  0.75000  Biso   1.000  H
  H36      1.0000 0.18750  0.70890  0.75000  Biso   1.000  H
  H37      1.0000 0.68440  0.69940  0.14110  Biso   1.000  H
  H38      1.0000 0.81560  0.19940  0.35890  Biso   1.000  H
  H39      1.0000 0.31560  0.30060  0.85890  Biso   1.000  H
  H40      1.0000 0.18440  0.80060  0.64110  Biso   1.000  H
  H41      1.0000 0.43750  0.79110  0.18750  Biso   1.000  H
  H42      1.0000 0.06250  0.29110  0.31250  Biso   1.000  H
  H43      1.0000 0.56250  0.20890  0.81250  Biso   1.000  H
  H44      1.0000 0.93750  0.70890  0.68750  Biso   1.000  H
