data_image0
_cell_length_a       17.956
_cell_length_b       14.313
_cell_length_c       12.443
_cell_angle_alpha    90
_cell_angle_beta     98.85
_cell_angle_gamma    90

_symmetry_space_group_name_H-M    "P 1"
_symmetry_int_tables_number       1

loop_
  _symmetry_equiv_pos_as_xyz
  'x, y, z'

loop_
  _atom_site_label
  _atom_site_occupancy
  _atom_site_fract_x
  _atom_site_fract_y
  _atom_site_fract_z
  _atom_site_thermal_displace_type
  _atom_site_B_iso_or_equiv
  _atom_site_type_symbol
  K1       1.0000 0.06590  0.58340  0.51350  Biso   1.000  K
  K2       1.0000 0.56590  0.08340  0.51350  Biso   1.000  K
  K3       1.0000 0.93410  0.58340  0.98650  Biso   1.000  K
  K4       1.0000 0.43410  0.08340  0.98650  Biso   1.000  K
  K5       1.0000 0.93410  0.41660  0.48650  Biso   1.000  K
  K6       1.0000 0.43410  0.91660  0.48650  Biso   1.000  K
  K7       1.0000 0.06590  0.41660  0.01350  Biso   1.000  K
  K8       1.0000 0.56590  0.91660  0.01350  Biso   1.000  K
  Cu1      1.0000 0.20350  0.70920  0.42180  Biso   1.000  Cu
  Cu2      1.0000 0.70350  0.20920  0.42180  Biso   1.000  Cu
  Cu3      1.0000 0.79650  0.70920  0.07820  Biso   1.000  Cu
  Cu4      1.0000 0.29650  0.20920  0.07820  Biso   1.000  Cu
  Cu5      1.0000 0.79650  0.29080  0.57820  Biso   1.000  Cu
  Cu6      1.0000 0.29650  0.79080  0.57820  Biso   1.000  Cu
  Cu7      1.0000 0.20350  0.29080  0.92180  Biso   1.000  Cu
  Cu8      1.0000 0.70350  0.79080  0.92180  Biso   1.000  Cu
  Cu9      1.0000 0.00000  0.48430  0.25000  Biso   1.000  Cu
  Cu10     1.0000 0.50000  0.98430  0.25000  Biso   1.000  Cu
  Cu11     1.0000 0.00000  0.51570  0.75000  Biso   1.000  Cu
  Cu12     1.0000 0.50000  0.01570  0.75000  Biso   1.000  Cu
  O1       1.0000 0.12700  0.75730  0.50700  Biso   1.000  O
  O2       1.0000 0.62700  0.25730  0.50700  Biso   1.000  O
  O3       1.0000 0.87300  0.75730  0.99300  Biso   1.000  O
  O4       1.0000 0.37300  0.25730  0.99300  Biso   1.000  O
  O5       1.0000 0.87300  0.24270  0.49300  Biso   1.000  O
  O6       1.0000 0.37300  0.74270  0.49300  Biso   1.000  O
  O7       1.0000 0.12700  0.24270  0.00700  Biso   1.000  O
  O8       1.0000 0.62700  0.74270  0.00700  Biso   1.000  O
  O9       1.0000 0.29400  0.67170  0.36360  Biso   1.000  O
  O10      1.0000 0.79400  0.17170  0.36360  Biso   1.000  O
  O11      1.0000 0.70600  0.67170  0.13640  Biso   1.000  O
  O12      1.0000 0.20600  0.17170  0.13640  Biso   1.000  O
  O13      1.0000 0.70600  0.32830  0.63640  Biso   1.000  O
  O14      1.0000 0.20600  0.82830  0.63640  Biso   1.000  O
  O15      1.0000 0.29400  0.32830  0.86360  Biso   1.000  O
  O16      1.0000 0.79400  0.82830  0.86360  Biso   1.000  O
  O17      1.0000 0.21750  0.60070  0.52150  Biso   1.000  O
  O18      1.0000 0.71750  0.10070  0.52150  Biso   1.000  O
  O19      1.0000 0.78250  0.60070  0.97850  Biso   1.000  O
  O20      1.0000 0.28250  0.10070  0.97850  Biso   1.000  O
  O21      1.0000 0.78250  0.39930  0.47850  Biso   1.000  O
  O22      1.0000 0.28250  0.89930  0.47850  Biso   1.000  O
  O23      1.0000 0.21750  0.39930  0.02150  Biso   1.000  O
  O24      1.0000 0.71750  0.89930  0.02150  Biso   1.000  O
  O25      1.0000 0.20270  0.83010  0.34920  Biso   1.000  O
  O26      1.0000 0.70270  0.33010  0.34920  Biso   1.000  O
  O27      1.0000 0.79730  0.83010  0.15080  Biso   1.000  O
  O28      1.0000 0.29730  0.33010  0.15080  Biso   1.000  O
  O29      1.0000 0.79730  0.16990  0.65080  Biso   1.000  O
  O30      1.0000 0.29730  0.66990  0.65080  Biso   1.000  O
  O31      1.0000 0.20270  0.16990  0.84920  Biso   1.000  O
  O32      1.0000 0.70270  0.66990  0.84920  Biso   1.000  O
  O33      1.0000 0.11940  0.63140  0.31730  Biso   1.000  O
  O34      1.0000 0.61940  0.13140  0.31730  Biso   1.000  O
  O35      1.0000 0.88060  0.63140  0.18270  Biso   1.000  O
  O36      1.0000 0.38060  0.13140  0.18270  Biso   1.000  O
  O37      1.0000 0.88060  0.36860  0.68270  Biso   1.000  O
  O38      1.0000 0.38060  0.86860  0.68270  Biso   1.000  O
  O39      1.0000 0.11940  0.36860  0.81730  Biso   1.000  O
  O40      1.0000 0.61940  0.86860  0.81730  Biso   1.000  O
  O41      1.0000 0.04900  0.57520  0.17020  Biso   1.000  O
  O42      1.0000 0.54900  0.07520  0.17020  Biso   1.000  O
  O43      1.0000 0.95100  0.57520  0.32980  Biso   1.000  O
  O44      1.0000 0.45100  0.07520  0.32980  Biso   1.000  O
  O45      1.0000 0.95100  0.42480  0.82980  Biso   1.000  O
  O46      1.0000 0.45100  0.92480  0.82980  Biso   1.000  O
  O47      1.0000 0.04900  0.42480  0.67020  Biso   1.000  O
  O48      1.0000 0.54900  0.92480  0.67020  Biso   1.000  O
  O49      1.0000 0.08090  0.39120  0.23940  Biso   1.000  O
  O50      1.0000 0.58090  0.89120  0.23940  Biso   1.000  O
  O51      1.0000 0.91910  0.39120  0.26060  Biso   1.000  O
  O52      1.0000 0.41910  0.89120  0.26060  Biso   1.000  O
  O53      1.0000 0.91910  0.60880  0.76060  Biso   1.000  O
  O54      1.0000 0.41910  0.10880  0.76060  Biso   1.000  O
  O55      1.0000 0.08090  0.60880  0.73940  Biso   1.000  O
  O56      1.0000 0.58090  0.10880  0.73940  Biso   1.000  O
  O57      1.0000 0.07490  0.41390  0.41250  Biso   1.000  O
  O58      1.0000 0.57490  0.91390  0.41250  Biso   1.000  O
  O59      1.0000 0.92510  0.41390  0.08750  Biso   1.000  O
  O60      1.0000 0.42510  0.91390  0.08750  Biso   1.000  O
  O61      1.0000 0.92510  0.58610  0.58750  Biso   1.000  O
  O62      1.0000 0.42510  0.08610  0.58750  Biso   1.000  O
  O63      1.0000 0.07490  0.58610  0.91250  Biso   1.000  O
  O64      1.0000 0.57490  0.08610  0.91250  Biso   1.000  O
  C1       1.0000 0.14190  0.80690  0.59080  Biso   1.000  C
  C2       1.0000 0.64190  0.30690  0.59080  Biso   1.000  C
  C3       1.0000 0.85810  0.80690  0.90920  Biso   1.000  C
  C4       1.0000 0.35810  0.30690  0.90920  Biso   1.000  C
  C5       1.0000 0.85810  0.19310  0.40920  Biso   1.000  C
  C6       1.0000 0.35810  0.69310  0.40920  Biso   1.000  C
  C7       1.0000 0.14190  0.19310  0.09080  Biso   1.000  C
  C8       1.0000 0.64190  0.69310  0.09080  Biso   1.000  C
  C9       1.0000 0.07590  0.84120  0.63960  Biso   1.000  C
  C10      1.0000 0.57590  0.34120  0.63960  Biso   1.000  C
  C11      1.0000 0.92410  0.84120  0.86040  Biso   1.000  C
  C12      1.0000 0.42410  0.34120  0.86040  Biso   1.000  C
  C13      1.0000 0.92410  0.15880  0.36040  Biso   1.000  C
  C14      1.0000 0.42410  0.65880  0.36040  Biso   1.000  C
  C15      1.0000 0.07590  0.15880  0.13960  Biso   1.000  C
  C16      1.0000 0.57590  0.65880  0.13960  Biso   1.000  C
  C17      1.0000 0.26030  0.60030  0.61030  Biso   1.000  C
  C18      1.0000 0.76030  0.10030  0.61030  Biso   1.000  C
  C19      1.0000 0.73970  0.60030  0.88970  Biso   1.000  C
  C20      1.0000 0.23970  0.10030  0.88970  Biso   1.000  C
  C21      1.0000 0.73970  0.39970  0.38970  Biso   1.000  C
  C22      1.0000 0.23970  0.89970  0.38970  Biso   1.000  C
  C23      1.0000 0.26030  0.39970  0.11030  Biso   1.000  C
  C24      1.0000 0.76030  0.89970  0.11030  Biso   1.000  C
  C25      1.0000 0.26660  0.51220  0.67420  Biso   1.000  C
  C26      1.0000 0.76660  0.01220  0.67420  Biso   1.000  C
  C27      1.0000 0.73340  0.51220  0.82580  Biso   1.000  C
  C28      1.0000 0.23340  0.01220  0.82580  Biso   1.000  C
  C29      1.0000 0.73340  0.48780  0.32580  Biso   1.000  C
  C30      1.0000 0.23340  0.98780  0.32580  Biso   1.000  C
  C31      1.0000 0.26660  0.48780  0.17420  Biso   1.000  C
  C32      1.0000 0.76660  0.98780  0.17420  Biso   1.000  C
  C33      1.0000 0.09470  0.63480  0.21820  Biso   1.000  C
  C34      1.0000 0.59470  0.13480  0.21820  Biso   1.000  C
  C35      1.0000 0.90530  0.63480  0.28180  Biso   1.000  C
  C36      1.0000 0.40530  0.13480  0.28180  Biso   1.000  C
  C37      1.0000 0.90530  0.36520  0.78180  Biso   1.000  C
  C38      1.0000 0.40530  0.86520  0.78180  Biso   1.000  C
  C39      1.0000 0.09470  0.36520  0.71820  Biso   1.000  C
  C40      1.0000 0.59470  0.86520  0.71820  Biso   1.000  C
  C41      1.0000 0.11820  0.71160  0.15080  Biso   1.000  C
  C42      1.0000 0.61820  0.21160  0.15080  Biso   1.000  C
  C43      1.0000 0.88180  0.71160  0.34920  Biso   1.000  C
  C44      1.0000 0.38180  0.21160  0.34920  Biso   1.000  C
  C45      1.0000 0.88180  0.28840  0.84920  Biso   1.000  C
  C46      1.0000 0.38180  0.78840  0.84920  Biso   1.000  C
  C47      1.0000 0.11820  0.28840  0.65080  Biso   1.000  C
  C48      1.0000 0.61820  0.78840  0.65080  Biso   1.000  C
  C49      1.0000 0.10570  0.37890  0.33970  Biso   1.000  C
  C50      1.0000 0.60570  0.87890  0.33970  Biso   1.000  C
  C51      1.0000 0.89430  0.37890  0.16030  Biso   1.000  C
  C52      1.0000 0.39430  0.87890  0.16030  Biso   1.000  C
  C53      1.0000 0.89430  0.62110  0.66030  Biso   1.000  C
  C54      1.0000 0.39430  0.12110  0.66030  Biso   1.000  C
  C55      1.0000 0.10570  0.62110  0.83970  Biso   1.000  C
  C56      1.0000 0.60570  0.12110  0.83970  Biso   1.000  C
  C57      1.0000 0.17350  0.31960  0.36740  Biso   1.000  C
  C58      1.0000 0.67350  0.81960  0.36740  Biso   1.000  C
  C59      1.0000 0.82650  0.31960  0.13260  Biso   1.000  C
  C60      1.0000 0.32650  0.81960  0.13260  Biso   1.000  C
  C61      1.0000 0.82650  0.68040  0.63260  Biso   1.000  C
  C62      1.0000 0.32650  0.18040  0.63260  Biso   1.000  C
  C63      1.0000 0.17350  0.68040  0.86740  Biso   1.000  C
  C64      1.0000 0.67350  0.18040  0.86740  Biso   1.000  C
