data_image0
_cell_length_a       8.3759
_cell_length_b       10.749
_cell_length_c       11.873
_cell_angle_alpha    63.165
_cell_angle_beta     82.979
_cell_angle_gamma    80.932

_symmetry_space_group_name_H-M    "P 1"
_symmetry_int_tables_number       1

loop_
  _symmetry_equiv_pos_as_xyz
  'x, y, z'

loop_
  _atom_site_label
  _atom_site_occupancy
  _atom_site_fract_x
  _atom_site_fract_y
  _atom_site_fract_z
  _atom_site_thermal_displace_type
  _atom_site_B_iso_or_equiv
  _atom_site_type_symbol
  C1       1.0000 0.94580  0.55630  0.83440  Biso   1.000  C
  C2       1.0000 0.05420  0.44370  0.16560  Biso   1.000  C
  H1       1.0000 0.88840  0.57220  0.90270  Biso   1.000  H
  H2       1.0000 0.11160  0.42780  0.09730  Biso   1.000  H
  H3       1.0000 0.05690  0.52240  0.85380  Biso   1.000  H
  H4       1.0000 0.94310  0.47760  0.14620  Biso   1.000  H
  H5       1.0000 0.89730  0.48800  0.82290  Biso   1.000  H
  H6       1.0000 0.10270  0.51200  0.17710  Biso   1.000  H
  C3       1.0000 0.03530  0.79310  0.72750  Biso   1.000  C
  C4       1.0000 0.96470  0.20690  0.27250  Biso   1.000  C
  H7       1.0000 0.00350  0.79580  0.80690  Biso   1.000  H
  H8       1.0000 0.99650  0.20420  0.19310  Biso   1.000  H
  H9       1.0000 0.01590  0.88570  0.65980  Biso   1.000  H
  H10      1.0000 0.98410  0.11430  0.34020  Biso   1.000  H
  H11      1.0000 0.14840  0.75990  0.72560  Biso   1.000  H
  H12      1.0000 0.85160  0.24010  0.27440  Biso   1.000  H
  C5       1.0000 0.76140  0.75730  0.69470  Biso   1.000  C
  C6       1.0000 0.23860  0.24270  0.30530  Biso   1.000  C
  H13      1.0000 0.70290  0.69910  0.67670  Biso   1.000  H
  H14      1.0000 0.29710  0.30090  0.32330  Biso   1.000  H
  H15      1.0000 0.75500  0.84990  0.62580  Biso   1.000  H
  H16      1.0000 0.24500  0.15010  0.37420  Biso   1.000  H
  H17      1.0000 0.71510  0.76240  0.77080  Biso   1.000  H
  H18      1.0000 0.28490  0.23760  0.22920  Biso   1.000  H
  Cu1      1.0000 0.00000  0.00000  0.00000  Biso   1.000  Cu
  O1       1.0000 0.06140  0.82443  0.14903  Biso   1.000  O
  O2       1.0000 0.93860  0.17557  0.85097  Biso   1.000  O
  O3       1.0000 0.89500  0.95080  0.22610  Biso   1.000  O
  O4       1.0000 0.10500  0.04920  0.77390  Biso   1.000  O
  O5       1.0000 0.41190  0.41640  0.43320  Biso   1.000  O
  O6       1.0000 0.58810  0.58360  0.56680  Biso   1.000  O
  H19      1.0000 0.46210  0.33880  0.45000  Biso   1.000  H
  H20      1.0000 0.53790  0.66120  0.55000  Biso   1.000  H
  O7       1.0000 0.35510  0.32370  0.64080  Biso   1.000  O
  O8       1.0000 0.64490  0.67630  0.35920  Biso   1.000  O
  N1       1.0000 0.20100  0.07180  0.01550  Biso   1.000  N
  N2       1.0000 0.79900  0.92820  0.98450  Biso   1.000  N
  N3       1.0000 0.40670  0.18990  0.97050  Biso   1.000  N
  N4       1.0000 0.59330  0.81010  0.02950  Biso   1.000  N
  N5       1.0000 0.42130  0.09210  0.09200  Biso   1.000  N
  N6       1.0000 0.57870  0.90790  0.90800  Biso   1.000  N
  C7       1.0000 0.04500  0.74400  0.37250  Biso   1.000  C
  C8       1.0000 0.95500  0.25600  0.62750  Biso   1.000  C
  C9       1.0000 0.16420  0.63170  0.38990  Biso   1.000  C
  C10      1.0000 0.83580  0.36830  0.61010  Biso   1.000  C
  H21      1.0000 0.21370  0.61870  0.32080  Biso   1.000  H
  H22      1.0000 0.78630  0.38130  0.67920  Biso   1.000  H
  C11      1.0000 0.20800  0.53990  0.51070  Biso   1.000  C
  C12      1.0000 0.79200  0.46010  0.48930  Biso   1.000  C
  C13      1.0000 0.13260  0.56100  0.61270  Biso   1.000  C
  C14      1.0000 0.86740  0.43900  0.38730  Biso   1.000  C
  H23      1.0000 0.16280  0.49820  0.69370  Biso   1.000  H
  H24      1.0000 0.83720  0.50180  0.30630  Biso   1.000  H
  C15      1.0000 0.01480  0.67150  0.59820  Biso   1.000  C
  C16      1.0000 0.98520  0.32850  0.40180  Biso   1.000  C
  C17      1.0000 0.97400  0.76250  0.47600  Biso   1.000  C
  C18      1.0000 0.02600  0.23750  0.52400  Biso   1.000  C
  H25      1.0000 0.89610  0.83890  0.46300  Biso   1.000  H
  H26      1.0000 0.10390  0.16110  0.53700  Biso   1.000  H
  C19      1.0000 0.99440  0.84570  0.24310  Biso   1.000  C
  C20      1.0000 0.00560  0.15430  0.75690  Biso   1.000  C
  C21      1.0000 0.33090  0.41570  0.53630  Biso   1.000  C
  C22      1.0000 0.66910  0.58430  0.46370  Biso   1.000  C
  C23      1.0000 0.93760  0.69510  0.71190  Biso   1.000  C
  C24      1.0000 0.06240  0.30490  0.28810  Biso   1.000  C
  C25      1.0000 0.27610  0.17620  0.92680  Biso   1.000  C
  C26      1.0000 0.72390  0.82380  0.07320  Biso   1.000  C
  H27      1.0000 0.24170  0.23190  0.84550  Biso   1.000  H
  H28      1.0000 0.75830  0.76810  0.15450  Biso   1.000  H
  C27      1.0000 0.29520  0.02400  0.11520  Biso   1.000  C
  C28      1.0000 0.70480  0.97600  0.88480  Biso   1.000  C
  H29      1.0000 0.27240  0.94980  0.19290  Biso   1.000  H
  H30      1.0000 0.72760  0.05020  0.80710  Biso   1.000  H
  C29      1.0000 0.52680  0.29080  0.90480  Biso   1.000  C
  C30      1.0000 0.47320  0.70920  0.09520  Biso   1.000  C
  H31      1.0000 0.51000  0.33770  0.81500  Biso   1.000  H
  H32      1.0000 0.49000  0.66230  0.18500  Biso   1.000  H
  H33      1.0000 0.63490  0.24050  0.91630  Biso   1.000  H
  H34      1.0000 0.36510  0.75950  0.08370  Biso   1.000  H
  C31      1.0000 0.51300  0.39910  0.95480  Biso   1.000  C
  C32      1.0000 0.48700  0.60090  0.04520  Biso   1.000  C
  C33      1.0000 0.42630  0.52780  0.89340  Biso   1.000  C
  C34      1.0000 0.57370  0.47220  0.10660  Biso   1.000  C
  H35      1.0000 0.37640  0.54860  0.82020  Biso   1.000  H
  H36      1.0000 0.62360  0.45140  0.17980  Biso   1.000  H
  C35      1.0000 0.41180  0.62770  0.93890  Biso   1.000  C
  C36      1.0000 0.58820  0.37230  0.06110  Biso   1.000  C
  H37      1.0000 0.35040  0.71370  0.89680  Biso   1.000  H
  H38      1.0000 0.64960  0.28630  0.10320  Biso   1.000  H
  C37      1.0000 0.85100  0.56960  0.80300  Biso   1.000  C
  C38      1.0000 0.14900  0.43040  0.19700  Biso   1.000  C
  H39      1.0000 0.80820  0.58260  0.87610  Biso   1.000  H
  H40      1.0000 0.19180  0.41740  0.12390  Biso   1.000  H
  H41      1.0000 0.92660  0.48590  0.82830  Biso   1.000  H
  H42      1.0000 0.07340  0.51410  0.17170  Biso   1.000  H
  H43      1.0000 0.76460  0.56110  0.76180  Biso   1.000  H
  H44      1.0000 0.23540  0.43890  0.23820  Biso   1.000  H
  C39      1.0000 0.05900  0.72100  0.78300  Biso   1.000  C
  C40      1.0000 0.94100  0.27900  0.21700  Biso   1.000  C
  H45      1.0000 0.00300  0.73690  0.85150  Biso   1.000  H
  H46      1.0000 0.99700  0.26310  0.14850  Biso   1.000  H
  H47      1.0000 0.11170  0.80130  0.72630  Biso   1.000  H
  H48      1.0000 0.88830  0.19870  0.27370  Biso   1.000  H
  H49      1.0000 0.13800  0.64000  0.81570  Biso   1.000  H
  H50      1.0000 0.86200  0.36000  0.18430  Biso   1.000  H
  C41      1.0000 0.80900  0.82570  0.66700  Biso   1.000  C
  C42      1.0000 0.19100  0.17430  0.33300  Biso   1.000  C
  H51      1.0000 0.73230  0.81450  0.61920  Biso   1.000  H
  H52      1.0000 0.26770  0.18550  0.38080  Biso   1.000  H
  H53      1.0000 0.86180  0.90790  0.61380  Biso   1.000  H
  H54      1.0000 0.13820  0.09210  0.38620  Biso   1.000  H
  H55      1.0000 0.75460  0.83550  0.73840  Biso   1.000  H
  H56      1.0000 0.24540  0.16450  0.26160  Biso   1.000  H
  O9       1.0000 0.41650  0.82890  0.51550  Biso   1.000  O
  O10      1.0000 0.58350  0.17110  0.48450  Biso   1.000  O
  H57      1.0000 0.42860  0.85490  0.57140  Biso   1.000  H
  H58      1.0000 0.57140  0.14510  0.42860  Biso   1.000  H
  H59      1.0000 0.47450  0.88550  0.45640  Biso   1.000  H
  H60      1.0000 0.52550  0.11450  0.54360  Biso   1.000  H
  O11      1.0000 0.60240  0.03020  0.32180  Biso   1.000  O
  O12      1.0000 0.39760  0.96980  0.67820  Biso   1.000  O
  H61      1.0000 0.69570  0.00110  0.30000  Biso   1.000  H
  H62      1.0000 0.30430  0.99890  0.70000  Biso   1.000  H
  H63      1.0000 0.58500  0.06770  0.24360  Biso   1.000  H
  H64      1.0000 0.41500  0.93230  0.75640  Biso   1.000  H
