data_image0
_cell_length_a       20.934
_cell_length_b       12.031
_cell_length_c       14.0271
_cell_angle_alpha    90
_cell_angle_beta     121.894
_cell_angle_gamma    90

_symmetry_space_group_name_H-M    "P 1"
_symmetry_int_tables_number       1

loop_
  _symmetry_equiv_pos_as_xyz
  'x, y, z'

loop_
  _atom_site_label
  _atom_site_occupancy
  _atom_site_fract_x
  _atom_site_fract_y
  _atom_site_fract_z
  _atom_site_thermal_displace_type
  _atom_site_B_iso_or_equiv
  _atom_site_type_symbol
  Cu1      1.0000 0.77548  0.79512  0.26292  Biso   1.000  Cu
  Cu2      1.0000 0.22452  0.79512  0.23708  Biso   1.000  Cu
  Cu3      1.0000 0.27548  0.29512  0.26292  Biso   1.000  Cu
  Cu4      1.0000 0.72452  0.29512  0.23708  Biso   1.000  Cu
  Cu5      1.0000 0.22452  0.20488  0.73708  Biso   1.000  Cu
  Cu6      1.0000 0.77548  0.20488  0.76292  Biso   1.000  Cu
  Cu7      1.0000 0.72452  0.70488  0.73708  Biso   1.000  Cu
  Cu8      1.0000 0.27548  0.70488  0.76292  Biso   1.000  Cu
  O1       1.0000 0.86610  0.81408  0.25784  Biso   1.000  O
  O2       1.0000 0.13390  0.81408  0.24216  Biso   1.000  O
  O3       1.0000 0.36610  0.31408  0.25784  Biso   1.000  O
  O4       1.0000 0.63390  0.31408  0.24216  Biso   1.000  O
  O5       1.0000 0.13390  0.18592  0.74216  Biso   1.000  O
  O6       1.0000 0.86610  0.18592  0.75784  Biso   1.000  O
  O7       1.0000 0.63390  0.68592  0.74216  Biso   1.000  O
  O8       1.0000 0.36610  0.68592  0.75784  Biso   1.000  O
  H1       1.0000 0.88948  0.87319  0.28277  Biso   1.000  H
  H2       1.0000 0.11052  0.87319  0.21723  Biso   1.000  H
  H3       1.0000 0.38948  0.37319  0.28277  Biso   1.000  H
  H4       1.0000 0.61052  0.37319  0.21723  Biso   1.000  H
  H5       1.0000 0.11052  0.12681  0.71723  Biso   1.000  H
  H6       1.0000 0.88948  0.12681  0.78277  Biso   1.000  H
  H7       1.0000 0.61052  0.62681  0.71723  Biso   1.000  H
  H8       1.0000 0.38948  0.62681  0.78277  Biso   1.000  H
  H9       1.0000 0.89558  0.76159  0.28997  Biso   1.000  H
  H10      1.0000 0.10442  0.76159  0.21003  Biso   1.000  H
  H11      1.0000 0.39558  0.26159  0.28997  Biso   1.000  H
  H12      1.0000 0.60442  0.26159  0.21003  Biso   1.000  H
  H13      1.0000 0.10442  0.23841  0.71003  Biso   1.000  H
  H14      1.0000 0.89558  0.23841  0.78997  Biso   1.000  H
  H15      1.0000 0.60442  0.73841  0.71003  Biso   1.000  H
  H16      1.0000 0.39558  0.73841  0.78997  Biso   1.000  H
  O9       1.0000 0.66678  0.77796  0.21321  Biso   1.000  O
  O10      1.0000 0.33322  0.77796  0.28679  Biso   1.000  O
  O11      1.0000 0.16678  0.27796  0.21321  Biso   1.000  O
  O12      1.0000 0.83322  0.27796  0.28679  Biso   1.000  O
  O13      1.0000 0.33322  0.22204  0.78679  Biso   1.000  O
  O14      1.0000 0.66678  0.22204  0.71321  Biso   1.000  O
  O15      1.0000 0.83322  0.72204  0.78679  Biso   1.000  O
  O16      1.0000 0.16678  0.72204  0.71321  Biso   1.000  O
  N1       1.0000 0.58404  0.09722  0.16939  Biso   1.000  N
  N2       1.0000 0.41596  0.09722  0.33061  Biso   1.000  N
  N3       1.0000 0.08404  0.59722  0.16939  Biso   1.000  N
  N4       1.0000 0.91596  0.59722  0.33061  Biso   1.000  N
  N5       1.0000 0.41596  0.90278  0.83061  Biso   1.000  N
  N6       1.0000 0.58404  0.90278  0.66939  Biso   1.000  N
  N7       1.0000 0.91596  0.40278  0.83061  Biso   1.000  N
  N8       1.0000 0.08404  0.40278  0.66939  Biso   1.000  N
  C1       1.0000 0.65424  0.06948  0.20449  Biso   1.000  C
  C2       1.0000 0.34576  0.06948  0.29551  Biso   1.000  C
  C3       1.0000 0.15424  0.56948  0.20449  Biso   1.000  C
  C4       1.0000 0.84576  0.56948  0.29551  Biso   1.000  C
  C5       1.0000 0.34576  0.93052  0.79551  Biso   1.000  C
  C6       1.0000 0.65424  0.93052  0.70449  Biso   1.000  C
  C7       1.0000 0.84576  0.43052  0.79551  Biso   1.000  C
  C8       1.0000 0.15424  0.43052  0.70449  Biso   1.000  C
  N9       1.0000 0.71618  0.13353  0.23617  Biso   1.000  N
  N10      1.0000 0.28382  0.13353  0.26383  Biso   1.000  N
  N11      1.0000 0.21618  0.63353  0.23617  Biso   1.000  N
  N12      1.0000 0.78382  0.63353  0.26383  Biso   1.000  N
  N13      1.0000 0.28382  0.86647  0.76383  Biso   1.000  N
  N14      1.0000 0.71618  0.86647  0.73617  Biso   1.000  N
  N15      1.0000 0.78382  0.36647  0.76383  Biso   1.000  N
  N16      1.0000 0.21618  0.36647  0.73617  Biso   1.000  N
  C9       1.0000 0.77285  0.06085  0.26317  Biso   1.000  C
  C10      1.0000 0.22715  0.06085  0.23683  Biso   1.000  C
  C11      1.0000 0.27285  0.56085  0.26317  Biso   1.000  C
  C12      1.0000 0.72715  0.56085  0.23683  Biso   1.000  C
  C13      1.0000 0.22715  0.93915  0.73683  Biso   1.000  C
  C14      1.0000 0.77285  0.93915  0.76317  Biso   1.000  C
  C15      1.0000 0.72715  0.43915  0.73683  Biso   1.000  C
  C16      1.0000 0.27285  0.43915  0.76317  Biso   1.000  C
  H17      1.0000 0.82282  0.08327  0.28812  Biso   1.000  H
  H18      1.0000 0.17718  0.08327  0.21188  Biso   1.000  H
  H19      1.0000 0.32282  0.58327  0.28812  Biso   1.000  H
  H20      1.0000 0.67718  0.58327  0.21188  Biso   1.000  H
  H21      1.0000 0.17718  0.91673  0.71188  Biso   1.000  H
  H22      1.0000 0.82282  0.91673  0.78812  Biso   1.000  H
  H23      1.0000 0.67718  0.41673  0.71188  Biso   1.000  H
  H24      1.0000 0.32282  0.41673  0.78812  Biso   1.000  H
  N17      1.0000 0.75156  0.95566  0.25127  Biso   1.000  N
  N18      1.0000 0.24844  0.95566  0.24873  Biso   1.000  N
  N19      1.0000 0.25156  0.45566  0.25127  Biso   1.000  N
  N20      1.0000 0.74844  0.45566  0.24873  Biso   1.000  N
  N21      1.0000 0.24844  0.04434  0.74873  Biso   1.000  N
  N22      1.0000 0.75156  0.04434  0.75127  Biso   1.000  N
  N23      1.0000 0.74844  0.54434  0.74873  Biso   1.000  N
  N24      1.0000 0.25156  0.54434  0.75127  Biso   1.000  N
  N25      1.0000 0.67713  0.96292  0.21491  Biso   1.000  N
  N26      1.0000 0.32287  0.96292  0.28509  Biso   1.000  N
  N27      1.0000 0.17713  0.46292  0.21491  Biso   1.000  N
  N28      1.0000 0.82287  0.46292  0.28509  Biso   1.000  N
  N29      1.0000 0.32287  0.03708  0.78509  Biso   1.000  N
  N30      1.0000 0.67713  0.03708  0.71491  Biso   1.000  N
  N31      1.0000 0.82287  0.53708  0.78509  Biso   1.000  N
  N32      1.0000 0.17713  0.53708  0.71491  Biso   1.000  N
  C17      1.0000 0.63323  0.87057  0.19490  Biso   1.000  C
  C18      1.0000 0.36677  0.87057  0.30510  Biso   1.000  C
  C19      1.0000 0.13323  0.37057  0.19490  Biso   1.000  C
  C20      1.0000 0.86677  0.37057  0.30510  Biso   1.000  C
  C21      1.0000 0.36677  0.12943  0.80510  Biso   1.000  C
  C22      1.0000 0.63323  0.12943  0.69490  Biso   1.000  C
  C23      1.0000 0.86677  0.62943  0.80510  Biso   1.000  C
  C24      1.0000 0.13323  0.62943  0.69490  Biso   1.000  C
  C25      1.0000 0.55833  0.89784  0.15666  Biso   1.000  C
  C26      1.0000 0.44167  0.89784  0.34334  Biso   1.000  C
  C27      1.0000 0.05833  0.39784  0.15666  Biso   1.000  C
  C28      1.0000 0.94167  0.39784  0.34334  Biso   1.000  C
  C29      1.0000 0.44167  0.10216  0.84334  Biso   1.000  C
  C30      1.0000 0.55833  0.10216  0.65666  Biso   1.000  C
  C31      1.0000 0.94167  0.60216  0.84334  Biso   1.000  C
  C32      1.0000 0.05833  0.60216  0.65666  Biso   1.000  C
  H25      1.0000 0.52247  0.84059  0.13894  Biso   1.000  H
  H26      1.0000 0.47753  0.84059  0.36106  Biso   1.000  H
  H27      1.0000 0.02247  0.34059  0.13894  Biso   1.000  H
  H28      1.0000 0.97753  0.34059  0.36106  Biso   1.000  H
  H29      1.0000 0.47753  0.15941  0.86106  Biso   1.000  H
  H30      1.0000 0.52247  0.15941  0.63894  Biso   1.000  H
  H31      1.0000 0.97753  0.65941  0.86106  Biso   1.000  H
  H32      1.0000 0.02247  0.65941  0.63894  Biso   1.000  H
  C33      1.0000 0.53626  0.00997  0.14452  Biso   1.000  C
  C34      1.0000 0.46374  0.00997  0.35548  Biso   1.000  C
  C35      1.0000 0.03626  0.50997  0.14452  Biso   1.000  C
  C36      1.0000 0.96374  0.50997  0.35548  Biso   1.000  C
  C37      1.0000 0.46374  0.99003  0.85548  Biso   1.000  C
  C38      1.0000 0.53626  0.99003  0.64452  Biso   1.000  C
  C39      1.0000 0.96374  0.49003  0.85548  Biso   1.000  C
  C40      1.0000 0.03626  0.49003  0.64452  Biso   1.000  C
  C41      1.0000 0.45676  0.04034  0.10180  Biso   1.000  C
  C42      1.0000 0.54324  0.04034  0.39820  Biso   1.000  C
  C43      1.0000 0.95676  0.54034  0.10180  Biso   1.000  C
  C44      1.0000 0.04324  0.54034  0.39820  Biso   1.000  C
  C45      1.0000 0.54324  0.95966  0.89820  Biso   1.000  C
  C46      1.0000 0.45676  0.95966  0.60180  Biso   1.000  C
  C47      1.0000 0.04324  0.45966  0.89820  Biso   1.000  C
  C48      1.0000 0.95676  0.45966  0.60180  Biso   1.000  C
  C49      1.0000 0.40247  0.95933  0.07848  Biso   1.000  C
  C50      1.0000 0.59753  0.95933  0.42152  Biso   1.000  C
  C51      1.0000 0.90247  0.45933  0.07848  Biso   1.000  C
  C52      1.0000 0.09753  0.45933  0.42152  Biso   1.000  C
  C53      1.0000 0.59753  0.04067  0.92152  Biso   1.000  C
  C54      1.0000 0.40247  0.04067  0.57848  Biso   1.000  C
  C55      1.0000 0.09753  0.54067  0.92152  Biso   1.000  C
  C56      1.0000 0.90247  0.54067  0.57848  Biso   1.000  C
  H33      1.0000 0.41656  0.88317  0.09073  Biso   1.000  H
  H34      1.0000 0.58344  0.88317  0.40927  Biso   1.000  H
  H35      1.0000 0.91656  0.38317  0.09073  Biso   1.000  H
  H36      1.0000 0.08344  0.38317  0.40927  Biso   1.000  H
  H37      1.0000 0.58344  0.11683  0.90927  Biso   1.000  H
  H38      1.0000 0.41656  0.11683  0.59073  Biso   1.000  H
  H39      1.0000 0.08344  0.61683  0.90927  Biso   1.000  H
  H40      1.0000 0.91656  0.61683  0.59073  Biso   1.000  H
  C57      1.0000 0.32791  0.98889  0.03749  Biso   1.000  C
  C58      1.0000 0.67209  0.98889  0.46251  Biso   1.000  C
  C59      1.0000 0.82791  0.48889  0.03749  Biso   1.000  C
  C60      1.0000 0.17209  0.48889  0.46251  Biso   1.000  C
  C61      1.0000 0.67209  0.01111  0.96251  Biso   1.000  C
  C62      1.0000 0.32791  0.01111  0.53749  Biso   1.000  C
  C63      1.0000 0.17209  0.51111  0.96251  Biso   1.000  C
  C64      1.0000 0.82791  0.51111  0.53749  Biso   1.000  C
  H41      1.0000 0.29160  0.93301  0.02198  Biso   1.000  H
  H42      1.0000 0.70840  0.93301  0.47802  Biso   1.000  H
  H43      1.0000 0.79160  0.43301  0.02198  Biso   1.000  H
  H44      1.0000 0.20840  0.43301  0.47802  Biso   1.000  H
  H45      1.0000 0.70840  0.06699  0.97802  Biso   1.000  H
  H46      1.0000 0.29160  0.06699  0.52198  Biso   1.000  H
  H47      1.0000 0.20840  0.56699  0.97802  Biso   1.000  H
  H48      1.0000 0.79160  0.56699  0.52198  Biso   1.000  H
  C65      1.0000 0.30672  0.10005  0.01932  Biso   1.000  C
  C66      1.0000 0.69328  0.10005  0.48068  Biso   1.000  C
  C67      1.0000 0.80672  0.60005  0.01932  Biso   1.000  C
  C68      1.0000 0.19328  0.60005  0.48068  Biso   1.000  C
  C69      1.0000 0.69328  0.89995  0.98068  Biso   1.000  C
  C70      1.0000 0.30672  0.89995  0.51932  Biso   1.000  C
  C71      1.0000 0.19328  0.39995  0.98068  Biso   1.000  C
  C72      1.0000 0.80672  0.39995  0.51932  Biso   1.000  C
  H49      1.0000 0.25597  0.12031  0.99154  Biso   1.000  H
  H50      1.0000 0.74403  0.12031  0.50846  Biso   1.000  H
  H51      1.0000 0.75597  0.62031  0.99154  Biso   1.000  H
  H52      1.0000 0.24403  0.62031  0.50846  Biso   1.000  H
  H53      1.0000 0.74403  0.87969  0.00846  Biso   1.000  H
  H54      1.0000 0.25597  0.87969  0.49154  Biso   1.000  H
  H55      1.0000 0.24403  0.37969  0.00846  Biso   1.000  H
  H56      1.0000 0.75597  0.37969  0.49154  Biso   1.000  H
  C73      1.0000 0.35992  0.18133  0.04189  Biso   1.000  C
  C74      1.0000 0.64008  0.18133  0.45811  Biso   1.000  C
  C75      1.0000 0.85992  0.68133  0.04189  Biso   1.000  C
  C76      1.0000 0.14008  0.68133  0.45811  Biso   1.000  C
  C77      1.0000 0.64008  0.81867  0.95811  Biso   1.000  C
  C78      1.0000 0.35992  0.81867  0.54189  Biso   1.000  C
  C79      1.0000 0.14008  0.31867  0.95811  Biso   1.000  C
  C80      1.0000 0.85992  0.31867  0.54189  Biso   1.000  C
  H57      1.0000 0.34548  0.25735  0.02968  Biso   1.000  H
  H58      1.0000 0.65452  0.25735  0.47032  Biso   1.000  H
  H59      1.0000 0.84548  0.75735  0.02968  Biso   1.000  H
  H60      1.0000 0.15452  0.75735  0.47032  Biso   1.000  H
  H61      1.0000 0.65452  0.74265  0.97032  Biso   1.000  H
  H62      1.0000 0.34548  0.74265  0.52968  Biso   1.000  H
  H63      1.0000 0.15452  0.24265  0.97032  Biso   1.000  H
  H64      1.0000 0.84548  0.24265  0.52968  Biso   1.000  H
  C81      1.0000 0.43447  0.15213  0.08237  Biso   1.000  C
  C82      1.0000 0.56553  0.15213  0.41763  Biso   1.000  C
  C83      1.0000 0.93447  0.65213  0.08237  Biso   1.000  C
  C84      1.0000 0.06553  0.65213  0.41763  Biso   1.000  C
  C85      1.0000 0.56553  0.84787  0.91763  Biso   1.000  C
  C86      1.0000 0.43447  0.84787  0.58237  Biso   1.000  C
  C87      1.0000 0.06553  0.34787  0.91763  Biso   1.000  C
  C88      1.0000 0.93447  0.34787  0.58237  Biso   1.000  C
  H65      1.0000 0.47039  0.20834  0.09689  Biso   1.000  H
  H66      1.0000 0.52961  0.20834  0.40311  Biso   1.000  H
  H67      1.0000 0.97039  0.70834  0.09689  Biso   1.000  H
  H68      1.0000 0.02961  0.70834  0.40311  Biso   1.000  H
  H69      1.0000 0.52961  0.79166  0.90311  Biso   1.000  H
  H70      1.0000 0.47039  0.79166  0.59689  Biso   1.000  H
  H71      1.0000 0.02961  0.29166  0.90311  Biso   1.000  H
  H72      1.0000 0.97039  0.29166  0.59689  Biso   1.000  H
  Cl1      1.0000 0.88294  0.87362  0.53438  Biso   1.000  Cl
  Cl2      1.0000 0.11706  0.87362  0.96562  Biso   1.000  Cl
  Cl3      1.0000 0.38294  0.37362  0.53438  Biso   1.000  Cl
  Cl4      1.0000 0.61706  0.37362  0.96562  Biso   1.000  Cl
  Cl5      1.0000 0.11706  0.12638  0.46562  Biso   1.000  Cl
  Cl6      1.0000 0.88294  0.12638  0.03438  Biso   1.000  Cl
  Cl7      1.0000 0.61706  0.62638  0.46562  Biso   1.000  Cl
  Cl8      1.0000 0.38294  0.62638  0.03438  Biso   1.000  Cl
  O17      1.0000 0.82499  0.79846  0.45517  Biso   1.000  O
  O18      1.0000 0.17501  0.79846  0.04483  Biso   1.000  O
  O19      1.0000 0.32499  0.29846  0.45517  Biso   1.000  O
  O20      1.0000 0.67501  0.29846  0.04483  Biso   1.000  O
  O21      1.0000 0.17501  0.20154  0.54483  Biso   1.000  O
  O22      1.0000 0.82499  0.20154  0.95517  Biso   1.000  O
  O23      1.0000 0.67501  0.70154  0.54483  Biso   1.000  O
  O24      1.0000 0.32499  0.70154  0.95517  Biso   1.000  O
  O25      1.0000 0.84580  0.97180  0.54110  Biso   1.000  O
  O26      1.0000 0.15420  0.97180  0.95890  Biso   1.000  O
  O27      1.0000 0.34580  0.47180  0.54110  Biso   1.000  O
  O28      1.0000 0.65420  0.47180  0.95890  Biso   1.000  O
  O29      1.0000 0.15420  0.02820  0.45890  Biso   1.000  O
  O30      1.0000 0.84580  0.02820  0.04110  Biso   1.000  O
  O31      1.0000 0.65420  0.52820  0.45890  Biso   1.000  O
  O32      1.0000 0.34580  0.52820  0.04110  Biso   1.000  O
  O33      1.0000 0.92760  0.82840  0.64370  Biso   1.000  O
  O34      1.0000 0.07240  0.82840  0.85630  Biso   1.000  O
  O35      1.0000 0.42760  0.32840  0.64370  Biso   1.000  O
  O36      1.0000 0.57240  0.32840  0.85630  Biso   1.000  O
  O37      1.0000 0.07240  0.17160  0.35630  Biso   1.000  O
  O38      1.0000 0.92760  0.17160  0.14370  Biso   1.000  O
  O39      1.0000 0.57240  0.67160  0.35630  Biso   1.000  O
  O40      1.0000 0.42760  0.67160  0.14370  Biso   1.000  O
  O41      1.0000 0.93080  0.90710  0.49450  Biso   1.000  O
  O42      1.0000 0.06920  0.90710  0.00550  Biso   1.000  O
  O43      1.0000 0.43080  0.40710  0.49450  Biso   1.000  O
  O44      1.0000 0.56920  0.40710  0.00550  Biso   1.000  O
  O45      1.0000 0.06920  0.09290  0.50550  Biso   1.000  O
  O46      1.0000 0.93080  0.09290  0.99450  Biso   1.000  O
  O47      1.0000 0.56920  0.59290  0.50550  Biso   1.000  O
  O48      1.0000 0.43080  0.59290  0.99450  Biso   1.000  O
  O49      1.0000 0.85820  0.98150  0.52240  Biso   1.000  O
  O50      1.0000 0.14180  0.98150  0.97760  Biso   1.000  O
  O51      1.0000 0.35820  0.48150  0.52240  Biso   1.000  O
  O52      1.0000 0.64180  0.48150  0.97760  Biso   1.000  O
  O53      1.0000 0.14180  0.01850  0.47760  Biso   1.000  O
  O54      1.0000 0.85820  0.01850  0.02240  Biso   1.000  O
  O55      1.0000 0.64180  0.51850  0.47760  Biso   1.000  O
  O56      1.0000 0.35820  0.51850  0.02240  Biso   1.000  O
  O57      1.0000 0.90590  0.82990  0.64300  Biso   1.000  O
  O58      1.0000 0.09410  0.82990  0.85700  Biso   1.000  O
  O59      1.0000 0.40590  0.32990  0.64300  Biso   1.000  O
  O60      1.0000 0.59410  0.32990  0.85700  Biso   1.000  O
  O61      1.0000 0.09410  0.17010  0.35700  Biso   1.000  O
  O62      1.0000 0.90590  0.17010  0.14300  Biso   1.000  O
  O63      1.0000 0.59410  0.67010  0.35700  Biso   1.000  O
  O64      1.0000 0.40590  0.67010  0.14300  Biso   1.000  O
  O65      1.0000 0.94360  0.86610  0.51640  Biso   1.000  O
  O66      1.0000 0.05640  0.86610  0.98360  Biso   1.000  O
  O67      1.0000 0.44360  0.36610  0.51640  Biso   1.000  O
  O68      1.0000 0.55640  0.36610  0.98360  Biso   1.000  O
  O69      1.0000 0.05640  0.13390  0.48360  Biso   1.000  O
  O70      1.0000 0.94360  0.13390  0.01640  Biso   1.000  O
  O71      1.0000 0.55640  0.63390  0.48360  Biso   1.000  O
  O72      1.0000 0.44360  0.63390  0.01640  Biso   1.000  O
  O73      1.0000 0.93329  0.00809  0.30861  Biso   1.000  O
  O74      1.0000 0.06671  0.00809  0.19139  Biso   1.000  O
  O75      1.0000 0.43329  0.50809  0.30861  Biso   1.000  O
  O76      1.0000 0.56671  0.50809  0.19139  Biso   1.000  O
  O77      1.0000 0.06671  0.99191  0.69139  Biso   1.000  O
  O78      1.0000 0.93329  0.99191  0.80861  Biso   1.000  O
  O79      1.0000 0.56671  0.49191  0.69139  Biso   1.000  O
  O80      1.0000 0.43329  0.49191  0.80861  Biso   1.000  O
  H73      1.0000 0.97007  0.02393  0.36924  Biso   1.000  H
  H74      1.0000 0.02993  0.02393  0.13076  Biso   1.000  H
  H75      1.0000 0.47007  0.52393  0.36924  Biso   1.000  H
  H76      1.0000 0.52993  0.52393  0.13076  Biso   1.000  H
  H77      1.0000 0.02993  0.97607  0.63076  Biso   1.000  H
  H78      1.0000 0.97007  0.97607  0.86924  Biso   1.000  H
  H79      1.0000 0.52993  0.47607  0.63076  Biso   1.000  H
  H80      1.0000 0.47007  0.47607  0.86924  Biso   1.000  H
  H81      1.0000 0.93167  0.04753  0.25144  Biso   1.000  H
  H82      1.0000 0.06833  0.04753  0.24856  Biso   1.000  H
  H83      1.0000 0.43167  0.54753  0.25144  Biso   1.000  H
  H84      1.0000 0.56833  0.54753  0.24856  Biso   1.000  H
  H85      1.0000 0.06833  0.95247  0.74856  Biso   1.000  H
  H86      1.0000 0.93167  0.95247  0.75144  Biso   1.000  H
  H87      1.0000 0.56833  0.45247  0.74856  Biso   1.000  H
  H88      1.0000 0.43167  0.45247  0.75144  Biso   1.000  H
