data_image0
_cell_length_a       8.759
_cell_length_b       9.365
_cell_length_c       13.398
_cell_angle_alpha    90
_cell_angle_beta     90
_cell_angle_gamma    90

_symmetry_space_group_name_H-M    "P 1"
_symmetry_int_tables_number       1

loop_
  _symmetry_equiv_pos_as_xyz
  'x, y, z'

loop_
  _atom_site_label
  _atom_site_occupancy
  _atom_site_fract_x
  _atom_site_fract_y
  _atom_site_fract_z
  _atom_site_thermal_displace_type
  _atom_site_B_iso_or_equiv
  _atom_site_type_symbol
  Cu1      1.0000 0.79675  0.75860  0.38423  Biso   1.000  Cu
  Cu2      1.0000 0.29675  0.74140  0.61577  Biso   1.000  Cu
  Cu3      1.0000 0.20325  0.25860  0.11577  Biso   1.000  Cu
  Cu4      1.0000 0.70325  0.24140  0.88423  Biso   1.000  Cu
  O1       1.0000 0.00853  0.83656  0.40286  Biso   1.000  O
  O2       1.0000 0.50853  0.66344  0.59714  Biso   1.000  O
  O3       1.0000 0.99147  0.33656  0.09714  Biso   1.000  O
  O4       1.0000 0.49147  0.16344  0.90286  Biso   1.000  O
  O5       1.0000 0.17630  0.98870  0.33928  Biso   1.000  O
  O6       1.0000 0.67630  0.51130  0.66072  Biso   1.000  O
  O7       1.0000 0.82370  0.48870  0.16072  Biso   1.000  O
  O8       1.0000 0.32370  0.01130  0.83928  Biso   1.000  O
  O9       1.0000 0.64696  0.00940  0.16126  Biso   1.000  O
  O10      1.0000 0.14696  0.49060  0.83874  Biso   1.000  O
  O11      1.0000 0.35304  0.50940  0.33874  Biso   1.000  O
  O12      1.0000 0.85304  0.99060  0.66126  Biso   1.000  O
  O13      1.0000 0.68420  0.86502  0.52106  Biso   1.000  O
  O14      1.0000 0.18420  0.63498  0.47894  Biso   1.000  O
  O15      1.0000 0.31580  0.36502  0.97894  Biso   1.000  O
  O16      1.0000 0.81580  0.13498  0.02106  Biso   1.000  O
  N1       1.0000 0.61940  0.68470  0.30285  Biso   1.000  N
  N2       1.0000 0.11940  0.81530  0.69715  Biso   1.000  N
  N3       1.0000 0.38060  0.18470  0.19715  Biso   1.000  N
  N4       1.0000 0.88060  0.31530  0.80285  Biso   1.000  N
  H1       1.0000 0.65210  0.61740  0.25997  Biso   1.000  H
  H2       1.0000 0.15210  0.88260  0.74003  Biso   1.000  H
  H3       1.0000 0.34790  0.11740  0.24003  Biso   1.000  H
  H4       1.0000 0.84790  0.38260  0.75997  Biso   1.000  H
  H5       1.0000 0.54920  0.64510  0.34336  Biso   1.000  H
  H6       1.0000 0.04920  0.85490  0.65664  Biso   1.000  H
  H7       1.0000 0.45080  0.14510  0.15664  Biso   1.000  H
  H8       1.0000 0.95080  0.35490  0.84336  Biso   1.000  H
  N5       1.0000 0.83530  0.57910  0.46634  Biso   1.000  N
  N6       1.0000 0.33530  0.92090  0.53366  Biso   1.000  N
  N7       1.0000 0.16470  0.07910  0.03366  Biso   1.000  N
  N8       1.0000 0.66470  0.42090  0.96634  Biso   1.000  N
  H9       1.0000 0.90470  0.58042  0.51584  Biso   1.000  H
  H10      1.0000 0.40470  0.91958  0.48416  Biso   1.000  H
  H11      1.0000 0.09530  0.08042  0.98416  Biso   1.000  H
  H12      1.0000 0.59530  0.41958  0.01584  Biso   1.000  H
  H13      1.0000 0.79730  0.66160  0.44248  Biso   1.000  H
  H14      1.0000 0.29730  0.83840  0.55752  Biso   1.000  H
  H15      1.0000 0.20270  0.16160  0.05752  Biso   1.000  H
  H16      1.0000 0.70270  0.33840  0.94248  Biso   1.000  H
  N9       1.0000 0.78580  0.91650  0.29231  Biso   1.000  N
  N10      1.0000 0.28580  0.58350  0.70769  Biso   1.000  N
  N11      1.0000 0.21420  0.41650  0.20769  Biso   1.000  N
  N12      1.0000 0.71420  0.08350  0.79231  Biso   1.000  N
  C1       1.0000 0.66710  0.91990  0.23014  Biso   1.000  C
  C2       1.0000 0.16710  0.58010  0.76986  Biso   1.000  C
  C3       1.0000 0.33290  0.41990  0.26986  Biso   1.000  C
  C4       1.0000 0.83290  0.08010  0.73014  Biso   1.000  C
  C5       1.0000 0.91540  0.00710  0.28353  Biso   1.000  C
  C6       1.0000 0.41540  0.49290  0.71647  Biso   1.000  C
  C7       1.0000 0.08460  0.50710  0.21647  Biso   1.000  C
  C8       1.0000 0.58460  0.99290  0.78353  Biso   1.000  C
  H17      1.0000 0.94660  0.00810  0.21484  Biso   1.000  H
  H18      1.0000 0.44660  0.49190  0.78516  Biso   1.000  H
  H19      1.0000 0.05340  0.50810  0.28516  Biso   1.000  H
  H20      1.0000 0.55340  0.99190  0.71484  Biso   1.000  H
  C9       1.0000 0.55350  0.80560  0.24640  Biso   1.000  C
  C10      1.0000 0.05350  0.69440  0.75360  Biso   1.000  C
  C11      1.0000 0.44650  0.30560  0.25360  Biso   1.000  C
  C12      1.0000 0.94650  0.19440  0.74640  Biso   1.000  C
  H21      1.0000 0.51660  0.77240  0.18310  Biso   1.000  H
  H22      1.0000 0.01660  0.72760  0.81690  Biso   1.000  H
  H23      1.0000 0.48340  0.27240  0.31690  Biso   1.000  H
  H24      1.0000 0.98340  0.22760  0.68310  Biso   1.000  H
  H25      1.0000 0.46860  0.84340  0.28320  Biso   1.000  H
  H26      1.0000 0.96860  0.65660  0.71680  Biso   1.000  H
  H27      1.0000 0.53140  0.34340  0.21680  Biso   1.000  H
  H28      1.0000 0.03140  0.15660  0.78320  Biso   1.000  H
  C13      1.0000 0.04520  0.94070  0.34569  Biso   1.000  C
  C14      1.0000 0.54520  0.55930  0.65431  Biso   1.000  C
  C15      1.0000 0.95480  0.44070  0.15431  Biso   1.000  C
  C16      1.0000 0.45480  0.05930  0.84569  Biso   1.000  C
  C17      1.0000 0.88620  0.16260  0.31950  Biso   1.000  C
  C18      1.0000 0.38620  0.33740  0.68050  Biso   1.000  C
  C19      1.0000 0.11380  0.66260  0.18050  Biso   1.000  C
  C20      1.0000 0.61380  0.83740  0.81950  Biso   1.000  C
  H29      1.0000 0.97830  0.21710  0.31167  Biso   1.000  H
  H30      1.0000 0.47830  0.28290  0.68833  Biso   1.000  H
  H31      1.0000 0.02170  0.71710  0.18833  Biso   1.000  H
  H32      1.0000 0.52170  0.78290  0.81167  Biso   1.000  H
  H33      1.0000 0.80840  0.20540  0.27876  Biso   1.000  H
  H34      1.0000 0.30840  0.29460  0.72124  Biso   1.000  H
  H35      1.0000 0.19160  0.70540  0.22124  Biso   1.000  H
  H36      1.0000 0.69160  0.79460  0.77876  Biso   1.000  H
  C21      1.0000 0.83320  0.16980  0.42952  Biso   1.000  C
  C22      1.0000 0.33320  0.33020  0.57048  Biso   1.000  C
  C23      1.0000 0.16680  0.66980  0.07048  Biso   1.000  C
  C24      1.0000 0.66680  0.83020  0.92952  Biso   1.000  C
  H37      1.0000 0.72690  0.14590  0.43425  Biso   1.000  H
  H38      1.0000 0.22690  0.35410  0.56575  Biso   1.000  H
  H39      1.0000 0.27310  0.64590  0.06575  Biso   1.000  H
  H40      1.0000 0.77310  0.85410  0.93425  Biso   1.000  H
  H41      1.0000 0.89020  0.10000  0.46642  Biso   1.000  H
  H42      1.0000 0.39020  0.40000  0.53358  Biso   1.000  H
  H43      1.0000 0.10980  0.60000  0.03358  Biso   1.000  H
  H44      1.0000 0.60980  0.90000  0.96642  Biso   1.000  H
  C25      1.0000 0.86340  0.31580  0.47360  Biso   1.000  C
  C26      1.0000 0.36340  0.18420  0.52640  Biso   1.000  C
  C27      1.0000 0.13660  0.81580  0.02640  Biso   1.000  C
  C28      1.0000 0.63660  0.68420  0.97360  Biso   1.000  C
  H45      1.0000 0.83110  0.31390  0.54210  Biso   1.000  H
  H46      1.0000 0.33110  0.18610  0.45790  Biso   1.000  H
  H47      1.0000 0.16890  0.81390  0.95790  Biso   1.000  H
  H48      1.0000 0.66890  0.68610  0.04210  Biso   1.000  H
  H49      1.0000 0.97140  0.33350  0.47350  Biso   1.000  H
  H50      1.0000 0.47140  0.16650  0.52650  Biso   1.000  H
  H51      1.0000 0.02860  0.83350  0.02650  Biso   1.000  H
  H52      1.0000 0.52860  0.66650  0.97350  Biso   1.000  H
  C29      1.0000 0.78610  0.44360  0.42514  Biso   1.000  C
  C30      1.0000 0.28610  0.05640  0.57486  Biso   1.000  C
  C31      1.0000 0.21390  0.94360  0.07486  Biso   1.000  C
  C32      1.0000 0.71390  0.55640  0.92514  Biso   1.000  C
  H53      1.0000 0.67760  0.43520  0.43333  Biso   1.000  H
  H54      1.0000 0.17760  0.06480  0.56667  Biso   1.000  H
  H55      1.0000 0.32240  0.93520  0.06667  Biso   1.000  H
  H56      1.0000 0.82240  0.56480  0.93333  Biso   1.000  H
  H57      1.0000 0.80810  0.44140  0.35496  Biso   1.000  H
  H58      1.0000 0.30810  0.05860  0.64504  Biso   1.000  H
  H59      1.0000 0.19190  0.94140  0.14504  Biso   1.000  H
  H60      1.0000 0.69190  0.55860  0.85496  Biso   1.000  H
