data_image0
_cell_length_a       8.674
_cell_length_b       8.164
_cell_length_c       10.449
_cell_angle_alpha    90
_cell_angle_beta     92.37
_cell_angle_gamma    90

_symmetry_space_group_name_H-M    "P 1"
_symmetry_int_tables_number       1

loop_
  _symmetry_equiv_pos_as_xyz
  'x, y, z'

loop_
  _atom_site_label
  _atom_site_occupancy
  _atom_site_fract_x
  _atom_site_fract_y
  _atom_site_fract_z
  _atom_site_thermal_displace_type
  _atom_site_B_iso_or_equiv
  _atom_site_type_symbol
  Cu1      1.0000 0.97602  0.00000  0.83331  Biso   1.000  Cu
  Cu2      1.0000 0.02398  0.50000  0.16669  Biso   1.000  Cu
  N1       1.0000 0.05110  0.78372  0.83219  Biso   1.000  N
  N2       1.0000 0.94890  0.28372  0.16781  Biso   1.000  N
  O1       1.0000 0.19120  0.05621  0.79359  Biso   1.000  O
  O2       1.0000 0.80880  0.55621  0.20641  Biso   1.000  O
  N3       1.0000 0.77440  0.88896  0.87712  Biso   1.000  N
  N4       1.0000 0.22560  0.38896  0.12288  Biso   1.000  N
  C1       1.0000 0.97220  0.66830  0.88822  Biso   1.000  C
  C2       1.0000 0.02780  0.16830  0.11178  Biso   1.000  C
  C3       1.0000 0.80580  0.71350  0.91329  Biso   1.000  C
  C4       1.0000 0.19420  0.21350  0.08671  Biso   1.000  C
  O3       1.0000 0.02064  0.52974  0.92375  Biso   1.000  O
  O4       1.0000 0.97936  0.02974  0.07625  Biso   1.000  O
  O5       1.0000 0.42397  0.94500  0.76942  Biso   1.000  O
  O6       1.0000 0.57603  0.44500  0.23058  Biso   1.000  O
  C5       1.0000 0.21346  0.76030  0.79808  Biso   1.000  C
  C6       1.0000 0.78654  0.26030  0.20192  Biso   1.000  C
  C7       1.0000 0.27710  0.93540  0.78609  Biso   1.000  C
  C8       1.0000 0.72290  0.43540  0.21391  Biso   1.000  C
  N5       1.0000 0.10530  0.72434  0.19229  Biso   1.000  N
  N6       1.0000 0.89470  0.22434  0.80771  Biso   1.000  N
  C9       1.0000 0.15730  0.68230  0.42781  Biso   1.000  C
  C10      1.0000 0.84270  0.18230  0.57219  Biso   1.000  C
  C11      1.0000 0.22360  0.66830  0.66858  Biso   1.000  C
  C12      1.0000 0.77640  0.16830  0.33142  Biso   1.000  C
  C13      1.0000 0.08190  0.79070  0.32316  Biso   1.000  C
  C14      1.0000 0.91810  0.29070  0.67684  Biso   1.000  C
  C15      1.0000 0.14280  0.76620  0.55741  Biso   1.000  C
  C16      1.0000 0.85720  0.26620  0.44259  Biso   1.000  C
  O7       1.0000 0.55855  0.21740  0.85810  Biso   1.000  O
  O8       1.0000 0.44145  0.71740  0.14190  Biso   1.000  O
  O9       1.0000 0.48790  0.36830  0.85140  Biso   1.000  O
  O10      1.0000 0.51210  0.86830  0.14860  Biso   1.000  O
  O11      1.0000 0.63560  0.71170  0.51110  Biso   1.000  O
  O12      1.0000 0.36440  0.21170  0.48890  Biso   1.000  O
  O13      1.0000 0.36520  0.26620  0.38070  Biso   1.000  O
  O14      1.0000 0.63480  0.76620  0.61930  Biso   1.000  O
