data_image0
_cell_length_a       9.732
_cell_length_b       7.38
_cell_length_c       9.596
_cell_angle_alpha    104.43
_cell_angle_beta     119.35
_cell_angle_gamma    68.25

_symmetry_space_group_name_H-M    "P 1"
_symmetry_int_tables_number       1

loop_
  _symmetry_equiv_pos_as_xyz
  'x, y, z'

loop_
  _atom_site_label
  _atom_site_occupancy
  _atom_site_fract_x
  _atom_site_fract_y
  _atom_site_fract_z
  _atom_site_thermal_displace_type
  _atom_site_B_iso_or_equiv
  _atom_site_type_symbol
  Cl1      1.0000 0.34310  0.47440  0.23140  Biso   1.000  Cl
  Cl2      1.0000 0.65690  0.52560  0.76860  Biso   1.000  Cl
  Cl3      1.0000 0.72720  0.57390  0.41500  Biso   1.000  Cl
  Cl4      1.0000 0.27280  0.42610  0.58500  Biso   1.000  Cl
  Cl5      1.0000 0.39400  0.93940  0.21450  Biso   1.000  Cl
  Cl6      1.0000 0.60600  0.06060  0.78550  Biso   1.000  Cl
  Cu1      1.0000 0.50000  0.50000  0.50000  Biso   1.000  Cu
  Cu2      1.0000 0.51810  0.62160  0.17180  Biso   1.000  Cu
  Cu3      1.0000 0.48190  0.37840  0.82820  Biso   1.000  Cu
  C1       1.0000 0.90100  0.20400  0.18700  Biso   1.000  C
  C2       1.0000 0.09900  0.79600  0.81300  Biso   1.000  C
  C3       1.0000 0.01500  0.03400  0.26900  Biso   1.000  C
  C4       1.0000 0.98500  0.96600  0.73100  Biso   1.000  C
  C5       1.0000 0.97200  0.90700  0.30500  Biso   1.000  C
  C6       1.0000 0.02800  0.09300  0.69500  Biso   1.000  C
  C7       1.0000 0.80600  0.93700  0.25700  Biso   1.000  C
  C8       1.0000 0.19400  0.06300  0.74300  Biso   1.000  C
  C9       1.0000 0.69100  0.09600  0.18000  Biso   1.000  C
  C10      1.0000 0.30900  0.90400  0.82000  Biso   1.000  C
  C11      1.0000 0.94100  0.34800  0.14400  Biso   1.000  C
  C12      1.0000 0.05900  0.65200  0.85600  Biso   1.000  C
  N1       1.0000 0.74100  0.22500  0.14700  Biso   1.000  N
  N2       1.0000 0.25900  0.77500  0.85300  Biso   1.000  N
  O1       1.0000 0.40700  0.79000  0.50300  Biso   1.000  O
  O2       1.0000 0.59300  0.21000  0.49700  Biso   1.000  O
  O3       1.0000 0.62170  0.38000  0.06340  Biso   1.000  O
  O4       1.0000 0.37830  0.62000  0.93660  Biso   1.000  O
