data_image0
_cell_length_a       26.2
_cell_length_b       9.025
_cell_length_c       23.05
_cell_angle_alpha    90
_cell_angle_beta     93.36
_cell_angle_gamma    90

_symmetry_space_group_name_H-M    "P 1"
_symmetry_int_tables_number       1

loop_
  _symmetry_equiv_pos_as_xyz
  'x, y, z'

loop_
  _atom_site_label
  _atom_site_occupancy
  _atom_site_fract_x
  _atom_site_fract_y
  _atom_site_fract_z
  _atom_site_thermal_displace_type
  _atom_site_B_iso_or_equiv
  _atom_site_type_symbol
  Cu1      1.0000 0.37470  0.46260  0.54680  Biso   1.000  Cu
  Cu2      1.0000 0.62530  0.46260  0.95320  Biso   1.000  Cu
  Cu3      1.0000 0.87470  0.96260  0.54680  Biso   1.000  Cu
  Cu4      1.0000 0.12530  0.96260  0.95320  Biso   1.000  Cu
  Cu5      1.0000 0.62530  0.53740  0.45320  Biso   1.000  Cu
  Cu6      1.0000 0.37470  0.53740  0.04680  Biso   1.000  Cu
  Cu7      1.0000 0.12530  0.03740  0.45320  Biso   1.000  Cu
  Cu8      1.0000 0.87470  0.03740  0.04680  Biso   1.000  Cu
  Cu9      1.0000 0.31320  0.69810  0.45820  Biso   1.000  Cu
  Cu10     1.0000 0.68680  0.69810  0.04180  Biso   1.000  Cu
  Cu11     1.0000 0.81320  0.19810  0.45820  Biso   1.000  Cu
  Cu12     1.0000 0.18680  0.19810  0.04180  Biso   1.000  Cu
  Cu13     1.0000 0.68680  0.30190  0.54180  Biso   1.000  Cu
  Cu14     1.0000 0.31320  0.30190  0.95820  Biso   1.000  Cu
  Cu15     1.0000 0.18680  0.80190  0.54180  Biso   1.000  Cu
  Cu16     1.0000 0.81320  0.80190  0.95820  Biso   1.000  Cu
  Cu17     1.0000 0.32150  0.73710  0.60260  Biso   1.000  Cu
  Cu18     1.0000 0.67850  0.73710  0.89740  Biso   1.000  Cu
  Cu19     1.0000 0.82150  0.23710  0.60260  Biso   1.000  Cu
  Cu20     1.0000 0.17850  0.23710  0.89740  Biso   1.000  Cu
  Cu21     1.0000 0.67850  0.26290  0.39740  Biso   1.000  Cu
  Cu22     1.0000 0.32150  0.26290  0.10260  Biso   1.000  Cu
  Cu23     1.0000 0.17850  0.76290  0.39740  Biso   1.000  Cu
  Cu24     1.0000 0.82150  0.76290  0.10260  Biso   1.000  Cu
  Cl1      1.0000 0.41860  0.71830  0.55730  Biso   1.000  Cl
  Cl2      1.0000 0.58140  0.71830  0.94270  Biso   1.000  Cl
  Cl3      1.0000 0.91860  0.21830  0.55730  Biso   1.000  Cl
  Cl4      1.0000 0.08140  0.21830  0.94270  Biso   1.000  Cl
  Cl5      1.0000 0.58140  0.28170  0.44270  Biso   1.000  Cl
  Cl6      1.0000 0.41860  0.28170  0.05730  Biso   1.000  Cl
  Cl7      1.0000 0.08140  0.78170  0.44270  Biso   1.000  Cl
  Cl8      1.0000 0.91860  0.78170  0.05730  Biso   1.000  Cl
  Cl9      1.0000 0.28190  0.77640  0.36830  Biso   1.000  Cl
  Cl10     1.0000 0.71810  0.77640  0.13170  Biso   1.000  Cl
  Cl11     1.0000 0.78190  0.27640  0.36830  Biso   1.000  Cl
  Cl12     1.0000 0.21810  0.27640  0.13170  Biso   1.000  Cl
  Cl13     1.0000 0.71810  0.22360  0.63170  Biso   1.000  Cl
  Cl14     1.0000 0.28190  0.22360  0.86830  Biso   1.000  Cl
  Cl15     1.0000 0.21810  0.72360  0.63170  Biso   1.000  Cl
  Cl16     1.0000 0.78190  0.72360  0.86830  Biso   1.000  Cl
  O1       1.0000 0.31380  0.60000  0.53200  Biso   1.000  O
  O2       1.0000 0.68620  0.60000  0.96800  Biso   1.000  O
  O3       1.0000 0.81380  0.10000  0.53200  Biso   1.000  O
  O4       1.0000 0.18620  0.10000  0.96800  Biso   1.000  O
  O5       1.0000 0.68620  0.40000  0.46800  Biso   1.000  O
  O6       1.0000 0.31380  0.40000  0.03200  Biso   1.000  O
  O7       1.0000 0.18620  0.90000  0.46800  Biso   1.000  O
  O8       1.0000 0.81380  0.90000  0.03200  Biso   1.000  O
  H1       1.0000 0.28290  0.53800  0.53800  Biso   1.000  H
  H2       1.0000 0.71710  0.53800  0.96200  Biso   1.000  H
  H3       1.0000 0.78290  0.03800  0.53800  Biso   1.000  H
  H4       1.0000 0.21710  0.03800  0.96200  Biso   1.000  H
  H5       1.0000 0.71710  0.46200  0.46200  Biso   1.000  H
  H6       1.0000 0.28290  0.46200  0.03800  Biso   1.000  H
  H7       1.0000 0.21710  0.96200  0.46200  Biso   1.000  H
  H8       1.0000 0.78290  0.96200  0.03800  Biso   1.000  H
  N1       1.0000 0.43400  0.33800  0.56300  Biso   1.000  N
  N2       1.0000 0.56600  0.33800  0.93700  Biso   1.000  N
  N3       1.0000 0.93400  0.83800  0.56300  Biso   1.000  N
  N4       1.0000 0.06600  0.83800  0.93700  Biso   1.000  N
  N5       1.0000 0.56600  0.66200  0.43700  Biso   1.000  N
  N6       1.0000 0.43400  0.66200  0.06300  Biso   1.000  N
  N7       1.0000 0.06600  0.16200  0.43700  Biso   1.000  N
  N8       1.0000 0.93400  0.16200  0.06300  Biso   1.000  N
  N9       1.0000 0.65700  0.87200  0.83100  Biso   1.000  N
  N10      1.0000 0.34300  0.87200  0.66900  Biso   1.000  N
  N11      1.0000 0.15700  0.37200  0.83100  Biso   1.000  N
  N12      1.0000 0.84300  0.37200  0.66900  Biso   1.000  N
  N13      1.0000 0.34300  0.12800  0.16900  Biso   1.000  N
  N14      1.0000 0.65700  0.12800  0.33100  Biso   1.000  N
  N15      1.0000 0.84300  0.62800  0.16900  Biso   1.000  N
  N16      1.0000 0.15700  0.62800  0.33100  Biso   1.000  N
  C1       1.0000 0.47230  0.09500  0.56700  Biso   1.000  C
  C2       1.0000 0.52770  0.09500  0.93300  Biso   1.000  C
  C3       1.0000 0.97230  0.59500  0.56700  Biso   1.000  C
  C4       1.0000 0.02770  0.59500  0.93300  Biso   1.000  C
  C5       1.0000 0.52770  0.90500  0.43300  Biso   1.000  C
  C6       1.0000 0.47230  0.90500  0.06700  Biso   1.000  C
  C7       1.0000 0.02770  0.40500  0.43300  Biso   1.000  C
  C8       1.0000 0.97230  0.40500  0.06700  Biso   1.000  C
  H9       1.0000 0.46760  0.99268  0.56739  Biso   1.000  H
  H10      1.0000 0.53240  0.99268  0.93261  Biso   1.000  H
  H11      1.0000 0.96760  0.49268  0.56739  Biso   1.000  H
  H12      1.0000 0.03240  0.49268  0.93261  Biso   1.000  H
  H13      1.0000 0.53240  0.00732  0.43261  Biso   1.000  H
  H14      1.0000 0.46760  0.00732  0.06739  Biso   1.000  H
  H15      1.0000 0.03240  0.50732  0.43261  Biso   1.000  H
  H16      1.0000 0.96760  0.50732  0.06739  Biso   1.000  H
  C9       1.0000 0.43050  0.18400  0.56300  Biso   1.000  C
  C10      1.0000 0.56950  0.18400  0.93700  Biso   1.000  C
  C11      1.0000 0.93050  0.68400  0.56300  Biso   1.000  C
  C12      1.0000 0.06950  0.68400  0.93700  Biso   1.000  C
  C13      1.0000 0.56950  0.81600  0.43700  Biso   1.000  C
  C14      1.0000 0.43050  0.81600  0.06300  Biso   1.000  C
  C15      1.0000 0.06950  0.31600  0.43700  Biso   1.000  C
  C16      1.0000 0.93050  0.31600  0.06300  Biso   1.000  C
  H17      1.0000 0.39830  0.14050  0.56038  Biso   1.000  H
  H18      1.0000 0.60170  0.14050  0.93962  Biso   1.000  H
  H19      1.0000 0.89830  0.64050  0.56038  Biso   1.000  H
  H20      1.0000 0.10170  0.64050  0.93962  Biso   1.000  H
  H21      1.0000 0.60170  0.85950  0.43962  Biso   1.000  H
  H22      1.0000 0.39830  0.85950  0.06038  Biso   1.000  H
  H23      1.0000 0.10170  0.35950  0.43962  Biso   1.000  H
  H24      1.0000 0.89830  0.35950  0.06038  Biso   1.000  H
  C17      1.0000 0.48370  0.39300  0.56700  Biso   1.000  C
  C18      1.0000 0.51630  0.39300  0.93300  Biso   1.000  C
  C19      1.0000 0.98370  0.89300  0.56700  Biso   1.000  C
  C20      1.0000 0.01630  0.89300  0.93300  Biso   1.000  C
  C21      1.0000 0.51630  0.60700  0.43300  Biso   1.000  C
  C22      1.0000 0.48370  0.60700  0.06700  Biso   1.000  C
  C23      1.0000 0.01630  0.10700  0.43300  Biso   1.000  C
  C24      1.0000 0.98370  0.10700  0.06700  Biso   1.000  C
  H25      1.0000 0.48858  0.49524  0.56624  Biso   1.000  H
  H26      1.0000 0.51142  0.49524  0.93376  Biso   1.000  H
  H27      1.0000 0.98858  0.99524  0.56624  Biso   1.000  H
  H28      1.0000 0.01142  0.99524  0.93376  Biso   1.000  H
  H29      1.0000 0.51142  0.50476  0.43376  Biso   1.000  H
  H30      1.0000 0.48858  0.50476  0.06624  Biso   1.000  H
  H31      1.0000 0.01142  0.00476  0.43376  Biso   1.000  H
  H32      1.0000 0.98858  0.00476  0.06624  Biso   1.000  H
  C25      1.0000 0.52520  0.30300  0.57100  Biso   1.000  C
  C26      1.0000 0.47480  0.30300  0.92900  Biso   1.000  C
  C27      1.0000 0.02520  0.80300  0.57100  Biso   1.000  C
  C28      1.0000 0.97480  0.80300  0.92900  Biso   1.000  C
  C29      1.0000 0.47480  0.69700  0.42900  Biso   1.000  C
  C30      1.0000 0.52520  0.69700  0.07100  Biso   1.000  C
  C31      1.0000 0.97480  0.19700  0.42900  Biso   1.000  C
  C32      1.0000 0.02520  0.19700  0.07100  Biso   1.000  C
  H33      1.0000 0.55749  0.34585  0.57561  Biso   1.000  H
  H34      1.0000 0.44251  0.34585  0.92439  Biso   1.000  H
  H35      1.0000 0.05749  0.84585  0.57561  Biso   1.000  H
  H36      1.0000 0.94251  0.84585  0.92439  Biso   1.000  H
  H37      1.0000 0.44251  0.65415  0.42439  Biso   1.000  H
  H38      1.0000 0.55749  0.65415  0.07561  Biso   1.000  H
  H39      1.0000 0.94251  0.15415  0.42439  Biso   1.000  H
  H40      1.0000 0.05749  0.15415  0.07561  Biso   1.000  H
  C33      1.0000 0.52160  0.15000  0.56900  Biso   1.000  C
  C34      1.0000 0.47840  0.15000  0.93100  Biso   1.000  C
  C35      1.0000 0.02160  0.65000  0.56900  Biso   1.000  C
  C36      1.0000 0.97840  0.65000  0.93100  Biso   1.000  C
  C37      1.0000 0.47840  0.85000  0.43100  Biso   1.000  C
  C38      1.0000 0.52160  0.85000  0.06900  Biso   1.000  C
  C39      1.0000 0.97840  0.35000  0.43100  Biso   1.000  C
  C40      1.0000 0.02160  0.35000  0.06900  Biso   1.000  C
  C41      1.0000 0.57400  0.06600  0.56900  Biso   1.000  C
  C42      1.0000 0.42600  0.06600  0.93100  Biso   1.000  C
  C43      1.0000 0.07400  0.56600  0.56900  Biso   1.000  C
  C44      1.0000 0.92600  0.56600  0.93100  Biso   1.000  C
  C45      1.0000 0.42600  0.93400  0.43100  Biso   1.000  C
  C46      1.0000 0.57400  0.93400  0.06900  Biso   1.000  C
  C47      1.0000 0.92600  0.43400  0.43100  Biso   1.000  C
  C48      1.0000 0.07400  0.43400  0.06900  Biso   1.000  C
  H41      1.0000 0.57195  0.98851  0.53996  Biso   1.000  H
  H42      1.0000 0.42805  0.98851  0.96004  Biso   1.000  H
  H43      1.0000 0.07195  0.48851  0.53996  Biso   1.000  H
  H44      1.0000 0.92805  0.48851  0.96004  Biso   1.000  H
  H45      1.0000 0.42805  0.01149  0.46004  Biso   1.000  H
  H46      1.0000 0.57195  0.01149  0.03996  Biso   1.000  H
  H47      1.0000 0.92805  0.51149  0.46004  Biso   1.000  H
  H48      1.0000 0.07195  0.51149  0.03996  Biso   1.000  H
  H49      1.0000 0.60078  0.13431  0.55973  Biso   1.000  H
  H50      1.0000 0.39922  0.13431  0.94027  Biso   1.000  H
  H51      1.0000 0.10078  0.63431  0.55973  Biso   1.000  H
  H52      1.0000 0.89922  0.63431  0.94027  Biso   1.000  H
  H53      1.0000 0.39922  0.86569  0.44027  Biso   1.000  H
  H54      1.0000 0.60078  0.86569  0.05973  Biso   1.000  H
  H55      1.0000 0.89922  0.36569  0.44027  Biso   1.000  H
  H56      1.0000 0.10078  0.36569  0.05973  Biso   1.000  H
  C49      1.0000 0.58600  0.99900  0.62800  Biso   1.000  C
  C50      1.0000 0.41400  0.99900  0.87200  Biso   1.000  C
  C51      1.0000 0.08600  0.49900  0.62800  Biso   1.000  C
  C52      1.0000 0.91400  0.49900  0.87200  Biso   1.000  C
  C53      1.0000 0.41400  0.00100  0.37200  Biso   1.000  C
  C54      1.0000 0.58600  0.00100  0.12800  Biso   1.000  C
  C55      1.0000 0.91400  0.50100  0.37200  Biso   1.000  C
  C56      1.0000 0.08600  0.50100  0.12800  Biso   1.000  C
  H57      1.0000 0.61804  0.94335  0.62626  Biso   1.000  H
  H58      1.0000 0.38196  0.94335  0.87374  Biso   1.000  H
  H59      1.0000 0.11804  0.44335  0.62626  Biso   1.000  H
  H60      1.0000 0.88196  0.44335  0.87374  Biso   1.000  H
  H61      1.0000 0.38196  0.05665  0.37374  Biso   1.000  H
  H62      1.0000 0.61804  0.05665  0.12626  Biso   1.000  H
  H63      1.0000 0.88196  0.55665  0.37374  Biso   1.000  H
  H64      1.0000 0.11804  0.55665  0.12626  Biso   1.000  H
  H65      1.0000 0.55976  0.92821  0.63586  Biso   1.000  H
  H66      1.0000 0.44024  0.92821  0.86414  Biso   1.000  H
  H67      1.0000 0.05976  0.42821  0.63586  Biso   1.000  H
  H68      1.0000 0.94024  0.42821  0.86414  Biso   1.000  H
  H69      1.0000 0.44024  0.07179  0.36414  Biso   1.000  H
  H70      1.0000 0.55976  0.07179  0.13586  Biso   1.000  H
  H71      1.0000 0.94024  0.57179  0.36414  Biso   1.000  H
  H72      1.0000 0.05976  0.57179  0.13586  Biso   1.000  H
  C57      1.0000 0.59300  0.11300  0.68400  Biso   1.000  C
  C58      1.0000 0.40700  0.11300  0.81600  Biso   1.000  C
  C59      1.0000 0.09300  0.61300  0.68400  Biso   1.000  C
  C60      1.0000 0.90700  0.61300  0.81600  Biso   1.000  C
  C61      1.0000 0.40700  0.88700  0.31600  Biso   1.000  C
  C62      1.0000 0.59300  0.88700  0.18400  Biso   1.000  C
  C63      1.0000 0.90700  0.38700  0.31600  Biso   1.000  C
  C64      1.0000 0.09300  0.38700  0.18400  Biso   1.000  C
  H73      1.0000 0.61726  0.18980  0.67578  Biso   1.000  H
  H74      1.0000 0.38274  0.18980  0.82422  Biso   1.000  H
  H75      1.0000 0.11726  0.68980  0.67578  Biso   1.000  H
  H76      1.0000 0.88274  0.68980  0.82422  Biso   1.000  H
  H77      1.0000 0.38274  0.81020  0.32422  Biso   1.000  H
  H78      1.0000 0.61726  0.81020  0.17578  Biso   1.000  H
  H79      1.0000 0.88274  0.31020  0.32422  Biso   1.000  H
  H80      1.0000 0.11726  0.31020  0.17578  Biso   1.000  H
  H81      1.0000 0.56030  0.15949  0.69006  Biso   1.000  H
  H82      1.0000 0.43970  0.15949  0.80994  Biso   1.000  H
  H83      1.0000 0.06030  0.65949  0.69006  Biso   1.000  H
  H84      1.0000 0.93970  0.65949  0.80994  Biso   1.000  H
  H85      1.0000 0.43970  0.84051  0.30994  Biso   1.000  H
  H86      1.0000 0.56030  0.84051  0.19006  Biso   1.000  H
  H87      1.0000 0.93970  0.34051  0.30994  Biso   1.000  H
  H88      1.0000 0.06030  0.34051  0.19006  Biso   1.000  H
  C65      1.0000 0.61100  0.03200  0.73600  Biso   1.000  C
  C66      1.0000 0.38900  0.03200  0.76400  Biso   1.000  C
  C67      1.0000 0.11100  0.53200  0.73600  Biso   1.000  C
  C68      1.0000 0.88900  0.53200  0.76400  Biso   1.000  C
  C69      1.0000 0.38900  0.96800  0.26400  Biso   1.000  C
  C70      1.0000 0.61100  0.96800  0.23600  Biso   1.000  C
  C71      1.0000 0.88900  0.46800  0.26400  Biso   1.000  C
  C72      1.0000 0.11100  0.46800  0.23600  Biso   1.000  C
  C73      1.0000 0.66300  0.00200  0.74100  Biso   1.000  C
  C74      1.0000 0.33700  0.00200  0.75900  Biso   1.000  C
  C75      1.0000 0.16300  0.50200  0.74100  Biso   1.000  C
  C76      1.0000 0.83700  0.50200  0.75900  Biso   1.000  C
  C77      1.0000 0.33700  0.99800  0.25900  Biso   1.000  C
  C78      1.0000 0.66300  0.99800  0.24100  Biso   1.000  C
  C79      1.0000 0.83700  0.49800  0.25900  Biso   1.000  C
  C80      1.0000 0.16300  0.49800  0.24100  Biso   1.000  C
  H89      1.0000 0.68342  0.04213  0.71328  Biso   1.000  H
  H90      1.0000 0.31658  0.04213  0.78672  Biso   1.000  H
  H91      1.0000 0.18342  0.54213  0.71328  Biso   1.000  H
  H92      1.0000 0.81658  0.54213  0.78672  Biso   1.000  H
  H93      1.0000 0.31658  0.95787  0.28672  Biso   1.000  H
  H94      1.0000 0.68342  0.95787  0.21328  Biso   1.000  H
  H95      1.0000 0.81658  0.45787  0.28672  Biso   1.000  H
  H96      1.0000 0.18342  0.45787  0.21328  Biso   1.000  H
  C81      1.0000 0.68400  0.91700  0.78400  Biso   1.000  C
  C82      1.0000 0.31600  0.91700  0.71600  Biso   1.000  C
  C83      1.0000 0.18400  0.41700  0.78400  Biso   1.000  C
  C84      1.0000 0.81600  0.41700  0.71600  Biso   1.000  C
  C85      1.0000 0.31600  0.08300  0.21600  Biso   1.000  C
  C86      1.0000 0.68400  0.08300  0.28400  Biso   1.000  C
  C87      1.0000 0.81600  0.58300  0.21600  Biso   1.000  C
  C88      1.0000 0.18400  0.58300  0.28400  Biso   1.000  C
  H97      1.0000 0.71754  0.88679  0.78218  Biso   1.000  H
  H98      1.0000 0.28246  0.88679  0.71782  Biso   1.000  H
  H99      1.0000 0.21754  0.38679  0.78218  Biso   1.000  H
  H100     1.0000 0.78246  0.38679  0.71782  Biso   1.000  H
  H101     1.0000 0.28246  0.11321  0.21782  Biso   1.000  H
  H102     1.0000 0.71754  0.11321  0.28218  Biso   1.000  H
  H103     1.0000 0.78246  0.61321  0.21782  Biso   1.000  H
  H104     1.0000 0.21754  0.61321  0.28218  Biso   1.000  H
  C89      1.0000 0.60500  0.90600  0.82700  Biso   1.000  C
  C90      1.0000 0.39500  0.90600  0.67300  Biso   1.000  C
  C91      1.0000 0.10500  0.40600  0.82700  Biso   1.000  C
  C92      1.0000 0.89500  0.40600  0.67300  Biso   1.000  C
  C93      1.0000 0.39500  0.09400  0.17300  Biso   1.000  C
  C94      1.0000 0.60500  0.09400  0.32700  Biso   1.000  C
  C95      1.0000 0.89500  0.59400  0.17300  Biso   1.000  C
  C96      1.0000 0.10500  0.59400  0.32700  Biso   1.000  C
  H105     1.0000 0.58389  0.87069  0.85571  Biso   1.000  H
  H106     1.0000 0.41611  0.87069  0.64429  Biso   1.000  H
  H107     1.0000 0.08389  0.37069  0.85571  Biso   1.000  H
  H108     1.0000 0.91611  0.37069  0.64429  Biso   1.000  H
  H109     1.0000 0.41611  0.12931  0.14429  Biso   1.000  H
  H110     1.0000 0.58389  0.12931  0.35571  Biso   1.000  H
  H111     1.0000 0.91611  0.62931  0.14429  Biso   1.000  H
  H112     1.0000 0.08389  0.62931  0.35571  Biso   1.000  H
  C97      1.0000 0.58300  0.99000  0.78300  Biso   1.000  C
  C98      1.0000 0.41700  0.99000  0.71700  Biso   1.000  C
  C99      1.0000 0.08300  0.49000  0.78300  Biso   1.000  C
  C100     1.0000 0.91700  0.49000  0.71700  Biso   1.000  C
  C101     1.0000 0.41700  0.01000  0.21700  Biso   1.000  C
  C102     1.0000 0.58300  0.01000  0.28300  Biso   1.000  C
  C103     1.0000 0.91700  0.51000  0.21700  Biso   1.000  C
  C104     1.0000 0.08300  0.51000  0.28300  Biso   1.000  C
  H113     1.0000 0.54956  0.01974  0.78474  Biso   1.000  H
  H114     1.0000 0.45044  0.01974  0.71526  Biso   1.000  H
  H115     1.0000 0.04956  0.51974  0.78474  Biso   1.000  H
  H116     1.0000 0.95044  0.51974  0.71526  Biso   1.000  H
  H117     1.0000 0.45044  0.98026  0.21526  Biso   1.000  H
  H118     1.0000 0.54956  0.98026  0.28474  Biso   1.000  H
  H119     1.0000 0.95044  0.48026  0.21526  Biso   1.000  H
  H120     1.0000 0.04956  0.48026  0.28474  Biso   1.000  H
  N17      1.0000 0.37300  0.43400  0.47100  Biso   1.000  N
  N18      1.0000 0.62700  0.43400  0.02900  Biso   1.000  N
  N19      1.0000 0.87300  0.93400  0.47100  Biso   1.000  N
  N20      1.0000 0.12700  0.93400  0.02900  Biso   1.000  N
  N21      1.0000 0.62700  0.56600  0.52900  Biso   1.000  N
  N22      1.0000 0.37300  0.56600  0.97100  Biso   1.000  N
  N23      1.0000 0.12700  0.06600  0.52900  Biso   1.000  N
  N24      1.0000 0.87300  0.06600  0.97100  Biso   1.000  N
  N25      1.0000 0.34100  0.52600  0.43500  Biso   1.000  N
  N26      1.0000 0.65900  0.52600  0.06500  Biso   1.000  N
  N27      1.0000 0.84100  0.02600  0.43500  Biso   1.000  N
  N28      1.0000 0.15900  0.02600  0.06500  Biso   1.000  N
  N29      1.0000 0.65900  0.47400  0.56500  Biso   1.000  N
  N30      1.0000 0.34100  0.47400  0.93500  Biso   1.000  N
  N31      1.0000 0.15900  0.97400  0.56500  Biso   1.000  N
  N32      1.0000 0.84100  0.97400  0.93500  Biso   1.000  N
  C105     1.0000 0.40400  0.35200  0.42600  Biso   1.000  C
  C106     1.0000 0.59600  0.35200  0.07400  Biso   1.000  C
  C107     1.0000 0.90400  0.85200  0.42600  Biso   1.000  C
  C108     1.0000 0.09600  0.85200  0.07400  Biso   1.000  C
  C109     1.0000 0.59600  0.64800  0.57400  Biso   1.000  C
  C110     1.0000 0.40400  0.64800  0.92600  Biso   1.000  C
  C111     1.0000 0.09600  0.14800  0.57400  Biso   1.000  C
  C112     1.0000 0.90400  0.14800  0.92600  Biso   1.000  C
  H121     1.0000 0.43075  0.29117  0.43919  Biso   1.000  H
  H122     1.0000 0.56925  0.29117  0.06081  Biso   1.000  H
  H123     1.0000 0.93075  0.79117  0.43919  Biso   1.000  H
  H124     1.0000 0.06925  0.79117  0.06081  Biso   1.000  H
  H125     1.0000 0.56925  0.70883  0.56081  Biso   1.000  H
  H126     1.0000 0.43075  0.70883  0.93919  Biso   1.000  H
  H127     1.0000 0.06925  0.20883  0.56081  Biso   1.000  H
  H128     1.0000 0.93075  0.20883  0.93919  Biso   1.000  H
  C113     1.0000 0.39100  0.36600  0.36500  Biso   1.000  C
  C114     1.0000 0.60900  0.36600  0.13500  Biso   1.000  C
  C115     1.0000 0.89100  0.86600  0.36500  Biso   1.000  C
  C116     1.0000 0.10900  0.86600  0.13500  Biso   1.000  C
  C117     1.0000 0.60900  0.63400  0.63500  Biso   1.000  C
  C118     1.0000 0.39100  0.63400  0.86500  Biso   1.000  C
  C119     1.0000 0.10900  0.13400  0.63500  Biso   1.000  C
  C120     1.0000 0.89100  0.13400  0.86500  Biso   1.000  C
  H129     1.0000 0.40257  0.31882  0.33247  Biso   1.000  H
  H130     1.0000 0.59743  0.31882  0.16753  Biso   1.000  H
  H131     1.0000 0.90257  0.81882  0.33247  Biso   1.000  H
  H132     1.0000 0.09743  0.81882  0.16753  Biso   1.000  H
  H133     1.0000 0.59743  0.68118  0.66753  Biso   1.000  H
  H134     1.0000 0.40257  0.68118  0.83247  Biso   1.000  H
  H135     1.0000 0.09743  0.18118  0.66753  Biso   1.000  H
  H136     1.0000 0.90257  0.18118  0.83247  Biso   1.000  H
  C121     1.0000 0.35400  0.48100  0.37300  Biso   1.000  C
  C122     1.0000 0.64600  0.48100  0.12700  Biso   1.000  C
  C123     1.0000 0.85400  0.98100  0.37300  Biso   1.000  C
  C124     1.0000 0.14600  0.98100  0.12700  Biso   1.000  C
  C125     1.0000 0.64600  0.51900  0.62700  Biso   1.000  C
  C126     1.0000 0.35400  0.51900  0.87300  Biso   1.000  C
  C127     1.0000 0.14600  0.01900  0.62700  Biso   1.000  C
  C128     1.0000 0.85400  0.01900  0.87300  Biso   1.000  C
  H137     1.0000 0.33819  0.52796  0.34132  Biso   1.000  H
  H138     1.0000 0.66181  0.52796  0.15868  Biso   1.000  H
  H139     1.0000 0.83819  0.02796  0.34132  Biso   1.000  H
  H140     1.0000 0.16181  0.02796  0.15868  Biso   1.000  H
  H141     1.0000 0.66181  0.47204  0.65868  Biso   1.000  H
  H142     1.0000 0.33819  0.47204  0.84132  Biso   1.000  H
  H143     1.0000 0.16181  0.97204  0.65868  Biso   1.000  H
  H144     1.0000 0.83819  0.97204  0.84132  Biso   1.000  H
  N33      1.0000 0.35140  0.44200  0.62200  Biso   1.000  N
  N34      1.0000 0.64860  0.44200  0.87800  Biso   1.000  N
  N35      1.0000 0.85140  0.94200  0.62200  Biso   1.000  N
  N36      1.0000 0.14860  0.94200  0.87800  Biso   1.000  N
  N37      1.0000 0.64860  0.55800  0.37800  Biso   1.000  N
  N38      1.0000 0.35140  0.55800  0.12200  Biso   1.000  N
  N39      1.0000 0.14860  0.05800  0.37800  Biso   1.000  N
  N40      1.0000 0.85140  0.05800  0.12200  Biso   1.000  N
  N41      1.0000 0.33200  0.56800  0.64900  Biso   1.000  N
  N42      1.0000 0.66800  0.56800  0.85100  Biso   1.000  N
  N43      1.0000 0.83200  0.06800  0.64900  Biso   1.000  N
  N44      1.0000 0.16800  0.06800  0.85100  Biso   1.000  N
  N45      1.0000 0.66800  0.43200  0.35100  Biso   1.000  N
  N46      1.0000 0.33200  0.43200  0.14900  Biso   1.000  N
  N47      1.0000 0.16800  0.93200  0.35100  Biso   1.000  N
  N48      1.0000 0.83200  0.93200  0.14900  Biso   1.000  N
  C129     1.0000 0.35300  0.34100  0.66500  Biso   1.000  C
  C130     1.0000 0.64700  0.34100  0.83500  Biso   1.000  C
  C131     1.0000 0.85300  0.84100  0.66500  Biso   1.000  C
  C132     1.0000 0.14700  0.84100  0.83500  Biso   1.000  C
  C133     1.0000 0.64700  0.65900  0.33500  Biso   1.000  C
  C134     1.0000 0.35300  0.65900  0.16500  Biso   1.000  C
  C135     1.0000 0.14700  0.15900  0.33500  Biso   1.000  C
  C136     1.0000 0.85300  0.15900  0.16500  Biso   1.000  C
  H145     1.0000 0.36580  0.24697  0.65823  Biso   1.000  H
  H146     1.0000 0.63420  0.24697  0.84177  Biso   1.000  H
  H147     1.0000 0.86580  0.74697  0.65823  Biso   1.000  H
  H148     1.0000 0.13420  0.74697  0.84177  Biso   1.000  H
  H149     1.0000 0.63420  0.75303  0.34177  Biso   1.000  H
  H150     1.0000 0.36580  0.75303  0.15823  Biso   1.000  H
  H151     1.0000 0.13420  0.25303  0.34177  Biso   1.000  H
  H152     1.0000 0.86580  0.25303  0.15823  Biso   1.000  H
  C137     1.0000 0.33600  0.37700  0.71800  Biso   1.000  C
  C138     1.0000 0.66400  0.37700  0.78200  Biso   1.000  C
  C139     1.0000 0.83600  0.87700  0.71800  Biso   1.000  C
  C140     1.0000 0.16400  0.87700  0.78200  Biso   1.000  C
  C141     1.0000 0.66400  0.62300  0.28200  Biso   1.000  C
  C142     1.0000 0.33600  0.62300  0.21800  Biso   1.000  C
  C143     1.0000 0.16400  0.12300  0.28200  Biso   1.000  C
  C144     1.0000 0.83600  0.12300  0.21800  Biso   1.000  C
  H153     1.0000 0.33460  0.32428  0.75276  Biso   1.000  H
  H154     1.0000 0.66540  0.32428  0.74724  Biso   1.000  H
  H155     1.0000 0.83460  0.82428  0.75276  Biso   1.000  H
  H156     1.0000 0.16540  0.82428  0.74724  Biso   1.000  H
  H157     1.0000 0.66540  0.67572  0.24724  Biso   1.000  H
  H158     1.0000 0.33460  0.67572  0.25276  Biso   1.000  H
  H159     1.0000 0.16540  0.17572  0.24724  Biso   1.000  H
  H160     1.0000 0.83460  0.17572  0.25276  Biso   1.000  H
  C145     1.0000 0.32300  0.52000  0.70300  Biso   1.000  C
  C146     1.0000 0.67700  0.52000  0.79700  Biso   1.000  C
  C147     1.0000 0.82300  0.02000  0.70300  Biso   1.000  C
  C148     1.0000 0.17700  0.02000  0.79700  Biso   1.000  C
  C149     1.0000 0.67700  0.48000  0.29700  Biso   1.000  C
  C150     1.0000 0.32300  0.48000  0.20300  Biso   1.000  C
  C151     1.0000 0.17700  0.98000  0.29700  Biso   1.000  C
  C152     1.0000 0.82300  0.98000  0.20300  Biso   1.000  C
  H161     1.0000 0.30801  0.58193  0.72880  Biso   1.000  H
  H162     1.0000 0.69199  0.58193  0.77120  Biso   1.000  H
  H163     1.0000 0.80801  0.08193  0.72880  Biso   1.000  H
  H164     1.0000 0.19199  0.08193  0.77120  Biso   1.000  H
  H165     1.0000 0.69199  0.41807  0.27120  Biso   1.000  H
  H166     1.0000 0.30801  0.41807  0.22880  Biso   1.000  H
  H167     1.0000 0.19199  0.91807  0.27120  Biso   1.000  H
  H168     1.0000 0.80801  0.91807  0.22880  Biso   1.000  H
  N49      1.0000 0.30360  0.90500  0.54900  Biso   1.000  N
  N50      1.0000 0.69640  0.90500  0.95100  Biso   1.000  N
  N51      1.0000 0.80360  0.40500  0.54900  Biso   1.000  N
  N52      1.0000 0.19640  0.40500  0.95100  Biso   1.000  N
  N53      1.0000 0.69640  0.09500  0.45100  Biso   1.000  N
  N54      1.0000 0.30360  0.09500  0.04900  Biso   1.000  N
  N55      1.0000 0.19640  0.59500  0.45100  Biso   1.000  N
  N56      1.0000 0.80360  0.59500  0.04900  Biso   1.000  N
  N57      1.0000 0.30430  0.88700  0.48800  Biso   1.000  N
  N58      1.0000 0.69570  0.88700  0.01200  Biso   1.000  N
  N59      1.0000 0.80430  0.38700  0.48800  Biso   1.000  N
  N60      1.0000 0.19570  0.38700  0.01200  Biso   1.000  N
  N61      1.0000 0.69570  0.11300  0.51200  Biso   1.000  N
  N62      1.0000 0.30430  0.11300  0.98800  Biso   1.000  N
  N63      1.0000 0.19570  0.61300  0.51200  Biso   1.000  N
  N64      1.0000 0.80430  0.61300  0.98800  Biso   1.000  N
  C153     1.0000 0.30000  0.04800  0.55500  Biso   1.000  C
  C154     1.0000 0.70000  0.04800  0.94500  Biso   1.000  C
  C155     1.0000 0.80000  0.54800  0.55500  Biso   1.000  C
  C156     1.0000 0.20000  0.54800  0.94500  Biso   1.000  C
  C157     1.0000 0.70000  0.95200  0.44500  Biso   1.000  C
  C158     1.0000 0.30000  0.95200  0.05500  Biso   1.000  C
  C159     1.0000 0.20000  0.45200  0.44500  Biso   1.000  C
  C160     1.0000 0.80000  0.45200  0.05500  Biso   1.000  C
  H169     1.0000 0.29685  0.09102  0.59092  Biso   1.000  H
  H170     1.0000 0.70315  0.09102  0.90908  Biso   1.000  H
  H171     1.0000 0.79685  0.59102  0.59092  Biso   1.000  H
  H172     1.0000 0.20315  0.59102  0.90908  Biso   1.000  H
  H173     1.0000 0.70315  0.90898  0.40908  Biso   1.000  H
  H174     1.0000 0.29685  0.90898  0.09092  Biso   1.000  H
  H175     1.0000 0.20315  0.40898  0.40908  Biso   1.000  H
  H176     1.0000 0.79685  0.40898  0.09092  Biso   1.000  H
  C161     1.0000 0.29900  0.13000  0.50700  Biso   1.000  C
  C162     1.0000 0.70100  0.13000  0.99300  Biso   1.000  C
  C163     1.0000 0.79900  0.63000  0.50700  Biso   1.000  C
  C164     1.0000 0.20100  0.63000  0.99300  Biso   1.000  C
  C165     1.0000 0.70100  0.87000  0.49300  Biso   1.000  C
  C166     1.0000 0.29900  0.87000  0.00700  Biso   1.000  C
  C167     1.0000 0.20100  0.37000  0.49300  Biso   1.000  C
  C168     1.0000 0.79900  0.37000  0.00700  Biso   1.000  C
  H177     1.0000 0.29882  0.23203  0.50225  Biso   1.000  H
  H178     1.0000 0.70118  0.23203  0.99775  Biso   1.000  H
  H179     1.0000 0.79882  0.73203  0.50225  Biso   1.000  H
  H180     1.0000 0.20118  0.73203  0.99775  Biso   1.000  H
  H181     1.0000 0.70118  0.76797  0.49775  Biso   1.000  H
  H182     1.0000 0.29882  0.76797  0.00225  Biso   1.000  H
  H183     1.0000 0.20118  0.26797  0.49775  Biso   1.000  H
  H184     1.0000 0.79882  0.26797  0.00225  Biso   1.000  H
  C169     1.0000 0.30100  0.02200  0.46800  Biso   1.000  C
  C170     1.0000 0.69900  0.02200  0.03200  Biso   1.000  C
  C171     1.0000 0.80100  0.52200  0.46800  Biso   1.000  C
  C172     1.0000 0.19900  0.52200  0.03200  Biso   1.000  C
  C173     1.0000 0.69900  0.97800  0.53200  Biso   1.000  C
  C174     1.0000 0.30100  0.97800  0.96800  Biso   1.000  C
  C175     1.0000 0.19900  0.47800  0.53200  Biso   1.000  C
  C176     1.0000 0.80100  0.47800  0.96800  Biso   1.000  C
  H185     1.0000 0.29863  0.04095  0.42868  Biso   1.000  H
  H186     1.0000 0.70137  0.04095  0.07132  Biso   1.000  H
  H187     1.0000 0.79863  0.54095  0.42868  Biso   1.000  H
  H188     1.0000 0.20137  0.54095  0.07132  Biso   1.000  H
  H189     1.0000 0.70137  0.95905  0.57132  Biso   1.000  H
  H190     1.0000 0.29863  0.95905  0.92868  Biso   1.000  H
  H191     1.0000 0.20137  0.45905  0.57132  Biso   1.000  H
  H192     1.0000 0.79863  0.45905  0.92868  Biso   1.000  H
