data_image0
_cell_length_a       11.4342
_cell_length_b       17.8014
_cell_length_c       15.7329
_cell_angle_alpha    90
_cell_angle_beta     95.709
_cell_angle_gamma    90

_symmetry_space_group_name_H-M    "P 1"
_symmetry_int_tables_number       1

loop_
  _symmetry_equiv_pos_as_xyz
  'x, y, z'

loop_
  _atom_site_label
  _atom_site_occupancy
  _atom_site_fract_x
  _atom_site_fract_y
  _atom_site_fract_z
  _atom_site_thermal_displace_type
  _atom_site_B_iso_or_equiv
  _atom_site_type_symbol
  Cu1      1.0000 0.61564  0.45032  0.92517  Biso   1.000  Cu
  Cu2      1.0000 0.88436  0.95032  0.57483  Biso   1.000  Cu
  Cu3      1.0000 0.38436  0.54968  0.07483  Biso   1.000  Cu
  Cu4      1.0000 0.11564  0.04968  0.42517  Biso   1.000  Cu
  Cu5      1.0000 0.44788  0.33443  0.03219  Biso   1.000  Cu
  Cu6      1.0000 0.05212  0.83443  0.46781  Biso   1.000  Cu
  Cu7      1.0000 0.55212  0.66557  0.96781  Biso   1.000  Cu
  Cu8      1.0000 0.94788  0.16557  0.53219  Biso   1.000  Cu
  Cu9      1.0000 0.45731  0.31135  0.83185  Biso   1.000  Cu
  Cu10     1.0000 0.04269  0.81135  0.66815  Biso   1.000  Cu
  Cu11     1.0000 0.54269  0.68865  0.16815  Biso   1.000  Cu
  Cu12     1.0000 0.95731  0.18865  0.33185  Biso   1.000  Cu
  Cl1      1.0000 0.72491  0.55697  0.92448  Biso   1.000  Cl
  Cl2      1.0000 0.77509  0.05697  0.57552  Biso   1.000  Cl
  Cl3      1.0000 0.27509  0.44303  0.07552  Biso   1.000  Cl
  Cl4      1.0000 0.22491  0.94303  0.42448  Biso   1.000  Cl
  Cl5      1.0000 0.62115  0.25149  0.93436  Biso   1.000  Cl
  Cl6      1.0000 0.87885  0.75149  0.56564  Biso   1.000  Cl
  Cl7      1.0000 0.37885  0.74851  0.06564  Biso   1.000  Cl
  Cl8      1.0000 0.12115  0.24851  0.43436  Biso   1.000  Cl
  O1       1.0000 0.46850  0.39094  0.92436  Biso   1.000  O
  O2       1.0000 0.03150  0.89094  0.57564  Biso   1.000  O
  O3       1.0000 0.53150  0.60906  0.07564  Biso   1.000  O
  O4       1.0000 0.96850  0.10906  0.42436  Biso   1.000  O
  H1       1.0000 0.40047  0.42598  0.91275  Biso   1.000  H
  H2       1.0000 0.09953  0.92598  0.58725  Biso   1.000  H
  H3       1.0000 0.59953  0.57402  0.08725  Biso   1.000  H
  H4       1.0000 0.90047  0.07402  0.41275  Biso   1.000  H
  N1       1.0000 0.63970  0.44240  0.04970  Biso   1.000  N
  N2       1.0000 0.86030  0.94240  0.45030  Biso   1.000  N
  N3       1.0000 0.36030  0.55760  0.95030  Biso   1.000  N
  N4       1.0000 0.13970  0.05760  0.54970  Biso   1.000  N
  N5       1.0000 0.56920  0.39780  0.09200  Biso   1.000  N
  N6       1.0000 0.93080  0.89780  0.40800  Biso   1.000  N
  N7       1.0000 0.43080  0.60220  0.90800  Biso   1.000  N
  N8       1.0000 0.06920  0.10220  0.59200  Biso   1.000  N
  N9       1.0000 0.32200  0.27650  0.96930  Biso   1.000  N
  N10      1.0000 0.17800  0.77650  0.53070  Biso   1.000  N
  N11      1.0000 0.67800  0.72350  0.03070  Biso   1.000  N
  N12      1.0000 0.82200  0.22350  0.46930  Biso   1.000  N
  N13      1.0000 0.32260  0.26880  0.88290  Biso   1.000  N
  N14      1.0000 0.17740  0.76880  0.61710  Biso   1.000  N
  N15      1.0000 0.67740  0.73120  0.11710  Biso   1.000  N
  N16      1.0000 0.82260  0.23120  0.38290  Biso   1.000  N
  N17      1.0000 0.55610  0.37390  0.76650  Biso   1.000  N
  N18      1.0000 0.94390  0.87390  0.73350  Biso   1.000  N
  N19      1.0000 0.44390  0.62610  0.23350  Biso   1.000  N
  N20      1.0000 0.05610  0.12610  0.26650  Biso   1.000  N
  N21      1.0000 0.61710  0.43270  0.80410  Biso   1.000  N
  N22      1.0000 0.88290  0.93270  0.69590  Biso   1.000  N
  N23      1.0000 0.38290  0.56730  0.19590  Biso   1.000  N
  N24      1.0000 0.11710  0.06730  0.30410  Biso   1.000  N
  N25      1.0000 0.44150  0.23600  0.73630  Biso   1.000  N
  N26      1.0000 0.05850  0.73600  0.76370  Biso   1.000  N
  N27      1.0000 0.55850  0.76400  0.26370  Biso   1.000  N
  N28      1.0000 0.94150  0.26400  0.23630  Biso   1.000  N
  N29      1.0000 0.44450  0.26650  0.13460  Biso   1.000  N
  N30      1.0000 0.05550  0.76650  0.36540  Biso   1.000  N
  N31      1.0000 0.55550  0.73350  0.86540  Biso   1.000  N
  N32      1.0000 0.94450  0.23350  0.63460  Biso   1.000  N
  C1       1.0000 0.71400  0.47780  0.10790  Biso   1.000  C
  C2       1.0000 0.78600  0.97780  0.39210  Biso   1.000  C
  C3       1.0000 0.28600  0.52220  0.89210  Biso   1.000  C
  C4       1.0000 0.21400  0.02220  0.60790  Biso   1.000  C
  H5       1.0000 0.77391  0.51172  0.09517  Biso   1.000  H
  H6       1.0000 0.72609  0.01172  0.40483  Biso   1.000  H
  H7       1.0000 0.22609  0.48828  0.90483  Biso   1.000  H
  H8       1.0000 0.27391  0.98828  0.59517  Biso   1.000  H
  C5       1.0000 0.69050  0.45760  0.18860  Biso   1.000  C
  C6       1.0000 0.80950  0.95760  0.31140  Biso   1.000  C
  C7       1.0000 0.30950  0.54240  0.81140  Biso   1.000  C
  C8       1.0000 0.19050  0.04240  0.68860  Biso   1.000  C
  H9       1.0000 0.72863  0.47473  0.24140  Biso   1.000  H
  H10      1.0000 0.77137  0.97473  0.25860  Biso   1.000  H
  H11      1.0000 0.27137  0.52527  0.75860  Biso   1.000  H
  H12      1.0000 0.22863  0.02527  0.74140  Biso   1.000  H
  C9       1.0000 0.60020  0.40730  0.17620  Biso   1.000  C
  C10      1.0000 0.89980  0.90730  0.32380  Biso   1.000  C
  C11      1.0000 0.39980  0.59270  0.82380  Biso   1.000  C
  C12      1.0000 0.10020  0.09270  0.67620  Biso   1.000  C
  H13      1.0000 0.56440  0.38266  0.22054  Biso   1.000  H
  H14      1.0000 0.93560  0.88266  0.27946  Biso   1.000  H
  H15      1.0000 0.43560  0.61734  0.77946  Biso   1.000  H
  H16      1.0000 0.06440  0.11734  0.72054  Biso   1.000  H
  C13      1.0000 0.23250  0.23640  0.99220  Biso   1.000  C
  C14      1.0000 0.26750  0.73640  0.50780  Biso   1.000  C
  C15      1.0000 0.76750  0.76360  0.00780  Biso   1.000  C
  C16      1.0000 0.73250  0.26360  0.49220  Biso   1.000  C
  H17      1.0000 0.21312  0.23130  0.04921  Biso   1.000  H
  H18      1.0000 0.28688  0.73130  0.45079  Biso   1.000  H
  H19      1.0000 0.78688  0.76870  0.95079  Biso   1.000  H
  H20      1.0000 0.71312  0.26870  0.54921  Biso   1.000  H
  C17      1.0000 0.17150  0.20320  0.92240  Biso   1.000  C
  C18      1.0000 0.32850  0.70320  0.57760  Biso   1.000  C
  C19      1.0000 0.82850  0.79680  0.07760  Biso   1.000  C
  C20      1.0000 0.67150  0.29680  0.42240  Biso   1.000  C
  H21      1.0000 0.10348  0.17240  0.92079  Biso   1.000  H
  H22      1.0000 0.39652  0.67240  0.57921  Biso   1.000  H
  H23      1.0000 0.89652  0.82760  0.07921  Biso   1.000  H
  H24      1.0000 0.60348  0.32760  0.42079  Biso   1.000  H
  C21      1.0000 0.23190  0.22500  0.85620  Biso   1.000  C
  C22      1.0000 0.26810  0.72500  0.64380  Biso   1.000  C
  C23      1.0000 0.76810  0.77500  0.14380  Biso   1.000  C
  C24      1.0000 0.73190  0.27500  0.35620  Biso   1.000  C
  H25      1.0000 0.21184  0.21082  0.79834  Biso   1.000  H
  H26      1.0000 0.28816  0.71082  0.70166  Biso   1.000  H
  H27      1.0000 0.78816  0.78918  0.20166  Biso   1.000  H
  H28      1.0000 0.71184  0.28918  0.29834  Biso   1.000  H
  C25      1.0000 0.58160  0.37070  0.68470  Biso   1.000  C
  C26      1.0000 0.91840  0.87070  0.81530  Biso   1.000  C
  C27      1.0000 0.41840  0.62930  0.31530  Biso   1.000  C
  C28      1.0000 0.08160  0.12930  0.18470  Biso   1.000  C
  H29      1.0000 0.54992  0.33504  0.64373  Biso   1.000  H
  H30      1.0000 0.95008  0.83504  0.85627  Biso   1.000  H
  H31      1.0000 0.45008  0.66496  0.35627  Biso   1.000  H
  H32      1.0000 0.04992  0.16496  0.14373  Biso   1.000  H
  C29      1.0000 0.65970  0.42610  0.66920  Biso   1.000  C
  C30      1.0000 0.84030  0.92610  0.83080  Biso   1.000  C
  C31      1.0000 0.34030  0.57390  0.33080  Biso   1.000  C
  C32      1.0000 0.15970  0.07390  0.16920  Biso   1.000  C
  H33      1.0000 0.69295  0.43598  0.61734  Biso   1.000  H
  H34      1.0000 0.80705  0.93598  0.88266  Biso   1.000  H
  H35      1.0000 0.30705  0.56402  0.38266  Biso   1.000  H
  H36      1.0000 0.19295  0.06402  0.11734  Biso   1.000  H
  C33      1.0000 0.67960  0.46440  0.74540  Biso   1.000  C
  C34      1.0000 0.82040  0.96440  0.75460  Biso   1.000  C
  C35      1.0000 0.32040  0.53560  0.25460  Biso   1.000  C
  C36      1.0000 0.17960  0.03560  0.24540  Biso   1.000  C
  H37      1.0000 0.72974  0.50672  0.75507  Biso   1.000  H
  H38      1.0000 0.77026  0.00672  0.74493  Biso   1.000  H
  H39      1.0000 0.27026  0.49328  0.24493  Biso   1.000  H
  H40      1.0000 0.22974  0.99328  0.25507  Biso   1.000  H
  C37      1.0000 0.52080  0.18350  0.73060  Biso   1.000  C
  C38      1.0000 0.97920  0.68350  0.76940  Biso   1.000  C
  C39      1.0000 0.47920  0.81650  0.26940  Biso   1.000  C
  C40      1.0000 0.02080  0.31650  0.23060  Biso   1.000  C
  H41      1.0000 0.57807  0.17598  0.77789  Biso   1.000  H
  H42      1.0000 0.92193  0.67598  0.72211  Biso   1.000  H
  H43      1.0000 0.42193  0.82402  0.22211  Biso   1.000  H
  H44      1.0000 0.07807  0.32402  0.27789  Biso   1.000  H
  C41      1.0000 0.52530  0.13910  0.66000  Biso   1.000  C
  C42      1.0000 0.97470  0.63910  0.84000  Biso   1.000  C
  C43      1.0000 0.47470  0.86090  0.34000  Biso   1.000  C
  C44      1.0000 0.02530  0.36090  0.16000  Biso   1.000  C
  H45      1.0000 0.58481  0.10194  0.65916  Biso   1.000  H
  H46      1.0000 0.91519  0.60194  0.84084  Biso   1.000  H
  H47      1.0000 0.41519  0.89806  0.34084  Biso   1.000  H
  H48      1.0000 0.08481  0.39806  0.15916  Biso   1.000  H
  C45      1.0000 0.44300  0.14820  0.58940  Biso   1.000  C
  C46      1.0000 0.05700  0.64820  0.91060  Biso   1.000  C
  C47      1.0000 0.55700  0.85180  0.41060  Biso   1.000  C
  C48      1.0000 0.94300  0.35180  0.08940  Biso   1.000  C
  C49      1.0000 0.35650  0.20160  0.59710  Biso   1.000  C
  C50      1.0000 0.14350  0.70160  0.90290  Biso   1.000  C
  C51      1.0000 0.64350  0.79840  0.40290  Biso   1.000  C
  C52      1.0000 0.85650  0.29840  0.09710  Biso   1.000  C
  H49      1.0000 0.29618  0.20890  0.55178  Biso   1.000  H
  H50      1.0000 0.20382  0.70890  0.94822  Biso   1.000  H
  H51      1.0000 0.70382  0.79110  0.44822  Biso   1.000  H
  H52      1.0000 0.79618  0.29110  0.05178  Biso   1.000  H
  C53      1.0000 0.35770  0.24380  0.66960  Biso   1.000  C
  C54      1.0000 0.14230  0.74380  0.83040  Biso   1.000  C
  C55      1.0000 0.64230  0.75620  0.33040  Biso   1.000  C
  C56      1.0000 0.85770  0.25620  0.16960  Biso   1.000  C
  H53      1.0000 0.29755  0.28011  0.67345  Biso   1.000  H
  H54      1.0000 0.20245  0.78011  0.82655  Biso   1.000  H
  H55      1.0000 0.70245  0.71989  0.32655  Biso   1.000  H
  H56      1.0000 0.79755  0.21989  0.17345  Biso   1.000  H
  C57      1.0000 0.45080  0.10460  0.50840  Biso   1.000  C
  C58      1.0000 0.04920  0.60460  0.99160  Biso   1.000  C
  C59      1.0000 0.54920  0.89540  0.49160  Biso   1.000  C
  C60      1.0000 0.95080  0.39540  0.00840  Biso   1.000  C
  H57      1.0000 0.38961  0.06505  0.50407  Biso   1.000  H
  H58      1.0000 0.11039  0.56505  0.99593  Biso   1.000  H
  H59      1.0000 0.61039  0.93495  0.49593  Biso   1.000  H
  H60      1.0000 0.88961  0.43495  0.00407  Biso   1.000  H
  H61      1.0000 0.52830  0.07950  0.51109  Biso   1.000  H
  H62      1.0000 0.97170  0.57950  0.98891  Biso   1.000  H
  H63      1.0000 0.47170  0.92050  0.48891  Biso   1.000  H
  H64      1.0000 0.02830  0.42050  0.01109  Biso   1.000  H
  C61      1.0000 0.43530  0.15280  0.42970  Biso   1.000  C
  C62      1.0000 0.06470  0.65280  0.07030  Biso   1.000  C
  C63      1.0000 0.56470  0.84720  0.57030  Biso   1.000  C
  C64      1.0000 0.93530  0.34720  0.92970  Biso   1.000  C
  H65      1.0000 0.35480  0.17398  0.42489  Biso   1.000  H
  H66      1.0000 0.14520  0.67398  0.07511  Biso   1.000  H
  H67      1.0000 0.64520  0.82602  0.57511  Biso   1.000  H
  H68      1.0000 0.85480  0.32602  0.92489  Biso   1.000  H
  H69      1.0000 0.49090  0.19545  0.43759  Biso   1.000  H
  H70      1.0000 0.00910  0.69545  0.06241  Biso   1.000  H
  H71      1.0000 0.50910  0.80455  0.56241  Biso   1.000  H
  H72      1.0000 0.99090  0.30455  0.93759  Biso   1.000  H
  C65      1.0000 0.45310  0.11520  0.34830  Biso   1.000  C
  C66      1.0000 0.04690  0.61520  0.15170  Biso   1.000  C
  C67      1.0000 0.54690  0.88480  0.65170  Biso   1.000  C
  C68      1.0000 0.95310  0.38480  0.84830  Biso   1.000  C
  H73      1.0000 0.39256  0.07565  0.33732  Biso   1.000  H
  H74      1.0000 0.10744  0.57565  0.16268  Biso   1.000  H
  H75      1.0000 0.60744  0.92435  0.66268  Biso   1.000  H
  H76      1.0000 0.89256  0.42435  0.83732  Biso   1.000  H
  H77      1.0000 0.53080  0.09009  0.35451  Biso   1.000  H
  H78      1.0000 0.96920  0.59009  0.14549  Biso   1.000  H
  H79      1.0000 0.46920  0.90991  0.64549  Biso   1.000  H
  H80      1.0000 0.03080  0.40991  0.85451  Biso   1.000  H
  C69      1.0000 0.44740  0.16720  0.27150  Biso   1.000  C
  C70      1.0000 0.05260  0.66720  0.22850  Biso   1.000  C
  C71      1.0000 0.55260  0.83280  0.72850  Biso   1.000  C
  C72      1.0000 0.94740  0.33280  0.77150  Biso   1.000  C
  C73      1.0000 0.52330  0.15900  0.20910  Biso   1.000  C
  C74      1.0000 0.97670  0.65900  0.29090  Biso   1.000  C
  C75      1.0000 0.47670  0.84100  0.79090  Biso   1.000  C
  C76      1.0000 0.02330  0.34100  0.70910  Biso   1.000  C
  H81      1.0000 0.57842  0.11887  0.21252  Biso   1.000  H
  H82      1.0000 0.92158  0.61887  0.28748  Biso   1.000  H
  H83      1.0000 0.42158  0.88113  0.78748  Biso   1.000  H
  H84      1.0000 0.07842  0.38113  0.71252  Biso   1.000  H
  C77      1.0000 0.51940  0.20860  0.14230  Biso   1.000  C
  C78      1.0000 0.98060  0.70860  0.35770  Biso   1.000  C
  C79      1.0000 0.48060  0.79140  0.85770  Biso   1.000  C
  C80      1.0000 0.01940  0.29140  0.64230  Biso   1.000  C
  H85      1.0000 0.57185  0.20161  0.09982  Biso   1.000  H
  H86      1.0000 0.92815  0.70161  0.40018  Biso   1.000  H
  H87      1.0000 0.42815  0.79839  0.90018  Biso   1.000  H
  H88      1.0000 0.07185  0.29839  0.59982  Biso   1.000  H
  C81      1.0000 0.37020  0.27390  0.19390  Biso   1.000  C
  C82      1.0000 0.12980  0.77390  0.30610  Biso   1.000  C
  C83      1.0000 0.62980  0.72610  0.80610  Biso   1.000  C
  C84      1.0000 0.87020  0.22610  0.69390  Biso   1.000  C
  H89      1.0000 0.31595  0.31448  0.18886  Biso   1.000  H
  H90      1.0000 0.18405  0.81448  0.31114  Biso   1.000  H
  H91      1.0000 0.68405  0.68552  0.81114  Biso   1.000  H
  H92      1.0000 0.81595  0.18552  0.68886  Biso   1.000  H
  C85      1.0000 0.36820  0.22610  0.26190  Biso   1.000  C
  C86      1.0000 0.13180  0.72610  0.23810  Biso   1.000  C
  C87      1.0000 0.63180  0.77390  0.73810  Biso   1.000  C
  C88      1.0000 0.86820  0.27390  0.76190  Biso   1.000  C
  H93      1.0000 0.31265  0.23329  0.30221  Biso   1.000  H
  H94      1.0000 0.18735  0.73329  0.19779  Biso   1.000  H
  H95      1.0000 0.68735  0.76671  0.69779  Biso   1.000  H
  H96      1.0000 0.81265  0.26671  0.80221  Biso   1.000  H
  N33      1.0000 0.58490  0.02520  0.85220  Biso   1.000  N
  N34      1.0000 0.91510  0.52520  0.64780  Biso   1.000  N
  N35      1.0000 0.41510  0.97480  0.14780  Biso   1.000  N
  N36      1.0000 0.08490  0.47480  0.35220  Biso   1.000  N
  C89      1.0000 0.51880  0.05150  0.89150  Biso   1.000  C
  C90      1.0000 0.98120  0.55150  0.60850  Biso   1.000  C
  C91      1.0000 0.48120  0.94850  0.10850  Biso   1.000  C
  C92      1.0000 0.01880  0.44850  0.39150  Biso   1.000  C
  C93      1.0000 0.43460  0.08710  0.93950  Biso   1.000  C
  C94      1.0000 0.06540  0.58710  0.56050  Biso   1.000  C
  C95      1.0000 0.56540  0.91290  0.06050  Biso   1.000  C
  C96      1.0000 0.93460  0.41290  0.43950  Biso   1.000  C
  H97      1.0000 0.44093  0.14172  0.93399  Biso   1.000  H
  H98      1.0000 0.05907  0.64172  0.56601  Biso   1.000  H
  H99      1.0000 0.55907  0.85828  0.06601  Biso   1.000  H
  H100     1.0000 0.94093  0.35828  0.43399  Biso   1.000  H
  H101     1.0000 0.44970  0.07288  0.99974  Biso   1.000  H
  H102     1.0000 0.05030  0.57288  0.50026  Biso   1.000  H
  H103     1.0000 0.55030  0.92712  0.00026  Biso   1.000  H
  H104     1.0000 0.94970  0.42712  0.49974  Biso   1.000  H
  H105     1.0000 0.35527  0.07099  0.91756  Biso   1.000  H
  H106     1.0000 0.14473  0.57099  0.58244  Biso   1.000  H
  H107     1.0000 0.64473  0.92901  0.08244  Biso   1.000  H
  H108     1.0000 0.85527  0.42901  0.41756  Biso   1.000  H
  N37      1.0000 0.74230  0.07080  0.10080  Biso   1.000  N
  N38      1.0000 0.75770  0.57080  0.39920  Biso   1.000  N
  N39      1.0000 0.25770  0.92920  0.89920  Biso   1.000  N
  N40      1.0000 0.24230  0.42920  0.60080  Biso   1.000  N
  C97      1.0000 0.78800  0.08620  0.04270  Biso   1.000  C
  C98      1.0000 0.71200  0.58620  0.45730  Biso   1.000  C
  C99      1.0000 0.21200  0.91380  0.95730  Biso   1.000  C
  C100     1.0000 0.28800  0.41380  0.54270  Biso   1.000  C
  C101     1.0000 0.84610  0.10840  0.96890  Biso   1.000  C
  C102     1.0000 0.65390  0.60840  0.53110  Biso   1.000  C
  C103     1.0000 0.15390  0.89160  0.03110  Biso   1.000  C
  C104     1.0000 0.34610  0.39160  0.46890  Biso   1.000  C
  H109     1.0000 0.81201  0.15560  0.94588  Biso   1.000  H
  H110     1.0000 0.68799  0.65560  0.55412  Biso   1.000  H
  H111     1.0000 0.18799  0.84440  0.05412  Biso   1.000  H
  H112     1.0000 0.31201  0.34440  0.44588  Biso   1.000  H
  H113     1.0000 0.83539  0.06920  0.92513  Biso   1.000  H
  H114     1.0000 0.66461  0.56920  0.57487  Biso   1.000  H
  H115     1.0000 0.16461  0.93080  0.07487  Biso   1.000  H
  H116     1.0000 0.33539  0.43080  0.42513  Biso   1.000  H
  H117     1.0000 0.93018  0.11552  0.98584  Biso   1.000  H
  H118     1.0000 0.56982  0.61552  0.51416  Biso   1.000  H
  H119     1.0000 0.06982  0.88448  0.01416  Biso   1.000  H
  H120     1.0000 0.43018  0.38448  0.48584  Biso   1.000  H
