data_image0
_cell_length_a       26.6086
_cell_length_b       9.2327
_cell_length_c       23.5434
_cell_angle_alpha    90
_cell_angle_beta     96.902
_cell_angle_gamma    90

_symmetry_space_group_name_H-M    "P 1"
_symmetry_int_tables_number       1

loop_
  _symmetry_equiv_pos_as_xyz
  'x, y, z'

loop_
  _atom_site_label
  _atom_site_occupancy
  _atom_site_fract_x
  _atom_site_fract_y
  _atom_site_fract_z
  _atom_site_thermal_displace_type
  _atom_site_B_iso_or_equiv
  _atom_site_type_symbol
  Cu1      1.0000 0.17592  0.23890  0.89405  Biso   1.000  Cu
  Cu2      1.0000 0.82408  0.23890  0.60595  Biso   1.000  Cu
  Cu3      1.0000 0.67592  0.73890  0.89405  Biso   1.000  Cu
  Cu4      1.0000 0.32408  0.73890  0.60595  Biso   1.000  Cu
  Cu5      1.0000 0.82408  0.76110  0.10595  Biso   1.000  Cu
  Cu6      1.0000 0.17592  0.76110  0.39405  Biso   1.000  Cu
  Cu7      1.0000 0.32408  0.26110  0.10595  Biso   1.000  Cu
  Cu8      1.0000 0.67592  0.26110  0.39405  Biso   1.000  Cu
  Cu9      1.0000 0.18710  0.20883  0.03778  Biso   1.000  Cu
  Cu10     1.0000 0.81290  0.20883  0.46222  Biso   1.000  Cu
  Cu11     1.0000 0.68710  0.70883  0.03778  Biso   1.000  Cu
  Cu12     1.0000 0.31290  0.70883  0.46222  Biso   1.000  Cu
  Cu13     1.0000 0.81290  0.79117  0.96222  Biso   1.000  Cu
  Cu14     1.0000 0.18710  0.79117  0.53778  Biso   1.000  Cu
  Cu15     1.0000 0.31290  0.29117  0.96222  Biso   1.000  Cu
  Cu16     1.0000 0.68710  0.29117  0.53778  Biso   1.000  Cu
  Cu17     1.0000 0.12326  0.97615  0.94948  Biso   1.000  Cu
  Cu18     1.0000 0.87674  0.97615  0.55052  Biso   1.000  Cu
  Cu19     1.0000 0.62326  0.47615  0.94948  Biso   1.000  Cu
  Cu20     1.0000 0.37674  0.47615  0.55052  Biso   1.000  Cu
  Cu21     1.0000 0.87674  0.02385  0.05052  Biso   1.000  Cu
  Cu22     1.0000 0.12326  0.02385  0.44948  Biso   1.000  Cu
  Cu23     1.0000 0.37674  0.52385  0.05052  Biso   1.000  Cu
  Cu24     1.0000 0.62326  0.52385  0.44948  Biso   1.000  Cu
  Cl1      1.0000 0.22052  0.29266  0.12523  Biso   1.000  Cl
  Cl2      1.0000 0.77948  0.29266  0.37477  Biso   1.000  Cl
  Cl3      1.0000 0.72052  0.79266  0.12523  Biso   1.000  Cl
  Cl4      1.0000 0.27948  0.79266  0.37477  Biso   1.000  Cl
  Cl5      1.0000 0.77948  0.70734  0.87477  Biso   1.000  Cl
  Cl6      1.0000 0.22052  0.70734  0.62523  Biso   1.000  Cl
  Cl7      1.0000 0.27948  0.20734  0.87477  Biso   1.000  Cl
  Cl8      1.0000 0.72052  0.20734  0.62523  Biso   1.000  Cl
  Cl9      1.0000 0.07896  0.22315  0.93606  Biso   1.000  Cl
  Cl10     1.0000 0.92104  0.22315  0.56394  Biso   1.000  Cl
  Cl11     1.0000 0.57896  0.72315  0.93606  Biso   1.000  Cl
  Cl12     1.0000 0.42104  0.72315  0.56394  Biso   1.000  Cl
  Cl13     1.0000 0.92104  0.77685  0.06394  Biso   1.000  Cl
  Cl14     1.0000 0.07896  0.77685  0.43606  Biso   1.000  Cl
  Cl15     1.0000 0.42104  0.27685  0.06394  Biso   1.000  Cl
  Cl16     1.0000 0.57896  0.27685  0.43606  Biso   1.000  Cl
  O1       1.0000 0.18520  0.10864  0.96315  Biso   1.000  O
  O2       1.0000 0.81480  0.10864  0.53685  Biso   1.000  O
  O3       1.0000 0.68520  0.60864  0.96315  Biso   1.000  O
  O4       1.0000 0.31480  0.60864  0.53685  Biso   1.000  O
  O5       1.0000 0.81480  0.89136  0.03685  Biso   1.000  O
  O6       1.0000 0.18520  0.89136  0.46315  Biso   1.000  O
  O7       1.0000 0.31480  0.39136  0.03685  Biso   1.000  O
  O8       1.0000 0.68520  0.39136  0.46315  Biso   1.000  O
  H1       1.0000 0.21670  0.04987  0.96254  Biso   1.000  H
  H2       1.0000 0.78330  0.04987  0.53746  Biso   1.000  H
  H3       1.0000 0.71670  0.54987  0.96254  Biso   1.000  H
  H4       1.0000 0.28330  0.54987  0.53746  Biso   1.000  H
  H5       1.0000 0.78330  0.95013  0.03746  Biso   1.000  H
  H6       1.0000 0.21670  0.95013  0.46254  Biso   1.000  H
  H7       1.0000 0.28330  0.45013  0.03746  Biso   1.000  H
  H8       1.0000 0.71670  0.45013  0.46254  Biso   1.000  H
  N1       1.0000 0.19402  0.40600  0.94357  Biso   1.000  N
  N2       1.0000 0.80598  0.40600  0.55643  Biso   1.000  N
  N3       1.0000 0.69402  0.90600  0.94357  Biso   1.000  N
  N4       1.0000 0.30598  0.90600  0.55643  Biso   1.000  N
  N5       1.0000 0.80598  0.59400  0.05643  Biso   1.000  N
  N6       1.0000 0.19402  0.59400  0.44357  Biso   1.000  N
  N7       1.0000 0.30598  0.09400  0.05643  Biso   1.000  N
  N8       1.0000 0.69402  0.09400  0.44357  Biso   1.000  N
  N9       1.0000 0.19448  0.39490  0.00129  Biso   1.000  N
  N10      1.0000 0.80552  0.39490  0.49871  Biso   1.000  N
  N11      1.0000 0.69448  0.89490  0.00129  Biso   1.000  N
  N12      1.0000 0.30552  0.89490  0.49871  Biso   1.000  N
  N13      1.0000 0.80552  0.60510  0.99871  Biso   1.000  N
  N14      1.0000 0.19448  0.60510  0.50129  Biso   1.000  N
  N15      1.0000 0.30552  0.10510  0.99871  Biso   1.000  N
  N16      1.0000 0.69448  0.10510  0.50129  Biso   1.000  N
  N17      1.0000 0.15718  0.04030  0.06866  Biso   1.000  N
  N18      1.0000 0.84282  0.04030  0.43134  Biso   1.000  N
  N19      1.0000 0.65718  0.54030  0.06866  Biso   1.000  N
  N20      1.0000 0.34282  0.54030  0.43134  Biso   1.000  N
  N21      1.0000 0.84282  0.95970  0.93134  Biso   1.000  N
  N22      1.0000 0.15718  0.95970  0.56866  Biso   1.000  N
  N23      1.0000 0.34282  0.45970  0.93134  Biso   1.000  N
  N24      1.0000 0.65718  0.45970  0.56866  Biso   1.000  N
  N25      1.0000 0.12768  0.95020  0.03287  Biso   1.000  N
  N26      1.0000 0.87232  0.95020  0.46713  Biso   1.000  N
  N27      1.0000 0.62768  0.45020  0.03287  Biso   1.000  N
  N28      1.0000 0.37232  0.45020  0.46713  Biso   1.000  N
  N29      1.0000 0.87232  0.04980  0.96713  Biso   1.000  N
  N30      1.0000 0.12768  0.04980  0.53287  Biso   1.000  N
  N31      1.0000 0.37232  0.54980  0.96713  Biso   1.000  N
  N32      1.0000 0.62768  0.54980  0.53287  Biso   1.000  N
  N33      1.0000 0.13931  0.95180  0.87084  Biso   1.000  N
  N34      1.0000 0.86069  0.95180  0.62916  Biso   1.000  N
  N35      1.0000 0.63931  0.45180  0.87084  Biso   1.000  N
  N36      1.0000 0.36069  0.45180  0.62916  Biso   1.000  N
  N37      1.0000 0.86069  0.04820  0.12916  Biso   1.000  N
  N38      1.0000 0.13931  0.04820  0.37084  Biso   1.000  N
  N39      1.0000 0.36069  0.54820  0.12916  Biso   1.000  N
  N40      1.0000 0.63931  0.54820  0.37084  Biso   1.000  N
  N41      1.0000 0.16219  0.06490  0.84779  Biso   1.000  N
  N42      1.0000 0.83781  0.06490  0.65221  Biso   1.000  N
  N43      1.0000 0.66219  0.56490  0.84779  Biso   1.000  N
  N44      1.0000 0.33781  0.56490  0.65221  Biso   1.000  N
  N45      1.0000 0.83781  0.93510  0.15221  Biso   1.000  N
  N46      1.0000 0.16219  0.93510  0.34779  Biso   1.000  N
  N47      1.0000 0.33781  0.43510  0.15221  Biso   1.000  N
  N48      1.0000 0.66219  0.43510  0.34779  Biso   1.000  N
  N49      1.0000 0.06290  0.84360  0.93694  Biso   1.000  N
  N50      1.0000 0.93710  0.84360  0.56306  Biso   1.000  N
  N51      1.0000 0.56290  0.34360  0.93694  Biso   1.000  N
  N52      1.0000 0.43710  0.34360  0.56306  Biso   1.000  N
  N53      1.0000 0.93710  0.15640  0.06306  Biso   1.000  N
  N54      1.0000 0.06290  0.15640  0.43694  Biso   1.000  N
  N55      1.0000 0.43710  0.65640  0.06306  Biso   1.000  N
  N56      1.0000 0.56290  0.65640  0.43694  Biso   1.000  N
  N57      1.0000 0.84537  0.36710  0.67430  Biso   1.000  N
  N58      1.0000 0.15463  0.36710  0.82570  Biso   1.000  N
  N59      1.0000 0.34537  0.86710  0.67430  Biso   1.000  N
  N60      1.0000 0.65463  0.86710  0.82570  Biso   1.000  N
  N61      1.0000 0.15463  0.63290  0.32570  Biso   1.000  N
  N62      1.0000 0.84537  0.63290  0.17430  Biso   1.000  N
  N63      1.0000 0.65463  0.13290  0.32570  Biso   1.000  N
  N64      1.0000 0.34537  0.13290  0.17430  Biso   1.000  N
  C1       1.0000 0.19872  0.54610  0.93094  Biso   1.000  C
  C2       1.0000 0.80128  0.54610  0.56906  Biso   1.000  C
  C3       1.0000 0.69872  0.04610  0.93094  Biso   1.000  C
  C4       1.0000 0.30128  0.04610  0.56906  Biso   1.000  C
  C5       1.0000 0.80128  0.45390  0.06906  Biso   1.000  C
  C6       1.0000 0.19872  0.45390  0.43094  Biso   1.000  C
  C7       1.0000 0.30128  0.95390  0.06906  Biso   1.000  C
  C8       1.0000 0.69872  0.95390  0.43094  Biso   1.000  C
  H9       1.0000 0.19976  0.58370  0.89353  Biso   1.000  H
  H10      1.0000 0.80024  0.58370  0.60647  Biso   1.000  H
  H11      1.0000 0.69976  0.08370  0.89353  Biso   1.000  H
  H12      1.0000 0.30024  0.08370  0.60647  Biso   1.000  H
  H13      1.0000 0.80024  0.41630  0.10647  Biso   1.000  H
  H14      1.0000 0.19976  0.41630  0.39353  Biso   1.000  H
  H15      1.0000 0.30024  0.91630  0.10647  Biso   1.000  H
  H16      1.0000 0.69976  0.91630  0.39353  Biso   1.000  H
  C9       1.0000 0.20183  0.62810  0.98015  Biso   1.000  C
  C10      1.0000 0.79817  0.62810  0.51985  Biso   1.000  C
  C11      1.0000 0.70183  0.12810  0.98015  Biso   1.000  C
  C12      1.0000 0.29817  0.12810  0.51985  Biso   1.000  C
  C13      1.0000 0.79817  0.37190  0.01985  Biso   1.000  C
  C14      1.0000 0.20183  0.37190  0.48015  Biso   1.000  C
  C15      1.0000 0.29817  0.87190  0.01985  Biso   1.000  C
  C16      1.0000 0.70183  0.87190  0.48015  Biso   1.000  C
  H17      1.0000 0.20526  0.73023  0.98351  Biso   1.000  H
  H18      1.0000 0.79474  0.73023  0.51649  Biso   1.000  H
  H19      1.0000 0.70526  0.23023  0.98351  Biso   1.000  H
  H20      1.0000 0.29474  0.23023  0.51649  Biso   1.000  H
  H21      1.0000 0.79474  0.26977  0.01649  Biso   1.000  H
  H22      1.0000 0.20526  0.26977  0.48351  Biso   1.000  H
  H23      1.0000 0.29474  0.76977  0.01649  Biso   1.000  H
  H24      1.0000 0.70526  0.76977  0.48351  Biso   1.000  H
  C17      1.0000 0.19889  0.52940  0.02327  Biso   1.000  C
  C18      1.0000 0.80111  0.52940  0.47673  Biso   1.000  C
  C19      1.0000 0.69889  0.02940  0.02327  Biso   1.000  C
  C20      1.0000 0.30111  0.02940  0.47673  Biso   1.000  C
  C21      1.0000 0.80111  0.47060  0.97673  Biso   1.000  C
  C22      1.0000 0.19889  0.47060  0.52327  Biso   1.000  C
  C23      1.0000 0.30111  0.97060  0.97673  Biso   1.000  C
  C24      1.0000 0.69889  0.97060  0.52327  Biso   1.000  C
  H25      1.0000 0.19982  0.55257  0.06269  Biso   1.000  H
  H26      1.0000 0.80018  0.55257  0.43731  Biso   1.000  H
  H27      1.0000 0.69982  0.05257  0.06269  Biso   1.000  H
  H28      1.0000 0.30018  0.05257  0.43731  Biso   1.000  H
  H29      1.0000 0.80018  0.44743  0.93731  Biso   1.000  H
  H30      1.0000 0.19982  0.44743  0.56269  Biso   1.000  H
  H31      1.0000 0.30018  0.94743  0.93731  Biso   1.000  H
  H32      1.0000 0.69982  0.94743  0.56269  Biso   1.000  H
  C25      1.0000 0.15446  0.99810  0.12245  Biso   1.000  C
  C26      1.0000 0.84554  0.99810  0.37755  Biso   1.000  C
  C27      1.0000 0.65446  0.49810  0.12245  Biso   1.000  C
  C28      1.0000 0.34554  0.49810  0.37755  Biso   1.000  C
  C29      1.0000 0.84554  0.00190  0.87755  Biso   1.000  C
  C30      1.0000 0.15446  0.00190  0.62245  Biso   1.000  C
  C31      1.0000 0.34554  0.50190  0.87755  Biso   1.000  C
  C32      1.0000 0.65446  0.50190  0.62245  Biso   1.000  C
  H33      1.0000 0.17172  0.04266  0.15558  Biso   1.000  H
  H34      1.0000 0.82828  0.04266  0.34442  Biso   1.000  H
  H35      1.0000 0.67172  0.54266  0.15558  Biso   1.000  H
  H36      1.0000 0.32828  0.54266  0.34442  Biso   1.000  H
  H37      1.0000 0.82828  0.95734  0.84442  Biso   1.000  H
  H38      1.0000 0.17172  0.95734  0.65558  Biso   1.000  H
  H39      1.0000 0.32828  0.45734  0.84442  Biso   1.000  H
  H40      1.0000 0.67172  0.45734  0.65558  Biso   1.000  H
  C33      1.0000 0.12291  0.88050  0.12257  Biso   1.000  C
  C34      1.0000 0.87709  0.88050  0.37743  Biso   1.000  C
  C35      1.0000 0.62291  0.38050  0.12257  Biso   1.000  C
  C36      1.0000 0.37709  0.38050  0.37743  Biso   1.000  C
  C37      1.0000 0.87709  0.11950  0.87743  Biso   1.000  C
  C38      1.0000 0.12291  0.11950  0.62257  Biso   1.000  C
  C39      1.0000 0.37709  0.61950  0.87743  Biso   1.000  C
  C40      1.0000 0.62291  0.61950  0.62257  Biso   1.000  C
  H41      1.0000 0.11402  0.82873  0.15477  Biso   1.000  H
  H42      1.0000 0.88598  0.82873  0.34523  Biso   1.000  H
  H43      1.0000 0.61402  0.32873  0.15477  Biso   1.000  H
  H44      1.0000 0.38598  0.32873  0.34523  Biso   1.000  H
  H45      1.0000 0.88598  0.17127  0.84523  Biso   1.000  H
  H46      1.0000 0.11402  0.17127  0.65477  Biso   1.000  H
  H47      1.0000 0.38598  0.67127  0.84523  Biso   1.000  H
  H48      1.0000 0.61402  0.67127  0.65477  Biso   1.000  H
  C41      1.0000 0.10703  0.85420  0.06568  Biso   1.000  C
  C42      1.0000 0.89297  0.85420  0.43432  Biso   1.000  C
  C43      1.0000 0.60703  0.35420  0.06568  Biso   1.000  C
  C44      1.0000 0.39297  0.35420  0.43432  Biso   1.000  C
  C45      1.0000 0.89297  0.14580  0.93432  Biso   1.000  C
  C46      1.0000 0.10703  0.14580  0.56568  Biso   1.000  C
  C47      1.0000 0.39297  0.64580  0.93432  Biso   1.000  C
  C48      1.0000 0.60703  0.64580  0.56568  Biso   1.000  C
  H49      1.0000 0.08460  0.77873  0.05175  Biso   1.000  H
  H50      1.0000 0.91540  0.77873  0.44825  Biso   1.000  H
  H51      1.0000 0.58460  0.27873  0.05175  Biso   1.000  H
  H52      1.0000 0.41540  0.27873  0.44825  Biso   1.000  H
  H53      1.0000 0.91540  0.22127  0.94825  Biso   1.000  H
  H54      1.0000 0.08460  0.22127  0.55175  Biso   1.000  H
  H55      1.0000 0.41540  0.72127  0.94825  Biso   1.000  H
  H56      1.0000 0.58460  0.72127  0.55175  Biso   1.000  H
  C49      1.0000 0.13346  0.84700  0.83176  Biso   1.000  C
  C50      1.0000 0.86654  0.84700  0.66824  Biso   1.000  C
  C51      1.0000 0.63346  0.34700  0.83176  Biso   1.000  C
  C52      1.0000 0.36654  0.34700  0.66824  Biso   1.000  C
  C53      1.0000 0.86654  0.15300  0.16824  Biso   1.000  C
  C54      1.0000 0.13346  0.15300  0.33176  Biso   1.000  C
  C55      1.0000 0.36654  0.65300  0.16824  Biso   1.000  C
  C56      1.0000 0.63346  0.65300  0.33176  Biso   1.000  C
  H57      1.0000 0.11821  0.75564  0.83690  Biso   1.000  H
  H58      1.0000 0.88179  0.75564  0.66310  Biso   1.000  H
  H59      1.0000 0.61821  0.25564  0.83690  Biso   1.000  H
  H60      1.0000 0.38179  0.25564  0.66310  Biso   1.000  H
  H61      1.0000 0.88179  0.24436  0.16310  Biso   1.000  H
  H62      1.0000 0.11821  0.24436  0.33690  Biso   1.000  H
  H63      1.0000 0.38179  0.74436  0.16310  Biso   1.000  H
  H64      1.0000 0.61821  0.74436  0.33690  Biso   1.000  H
  C57      1.0000 0.15280  0.89050  0.78280  Biso   1.000  C
  C58      1.0000 0.84720  0.89050  0.71720  Biso   1.000  C
  C59      1.0000 0.65280  0.39050  0.78280  Biso   1.000  C
  C60      1.0000 0.34720  0.39050  0.71720  Biso   1.000  C
  C61      1.0000 0.84720  0.10950  0.21720  Biso   1.000  C
  C62      1.0000 0.15280  0.10950  0.28280  Biso   1.000  C
  C63      1.0000 0.34720  0.60950  0.21720  Biso   1.000  C
  C64      1.0000 0.65280  0.60950  0.28280  Biso   1.000  C
  H65      1.0000 0.15383  0.83718  0.74845  Biso   1.000  H
  H66      1.0000 0.84617  0.83718  0.75155  Biso   1.000  H
  H67      1.0000 0.65383  0.33718  0.74845  Biso   1.000  H
  H68      1.0000 0.34617  0.33718  0.75155  Biso   1.000  H
  H69      1.0000 0.84617  0.16282  0.25155  Biso   1.000  H
  H70      1.0000 0.15383  0.16282  0.24845  Biso   1.000  H
  H71      1.0000 0.34617  0.66282  0.25155  Biso   1.000  H
  H72      1.0000 0.65383  0.66282  0.24845  Biso   1.000  H
  C65      1.0000 0.17012  0.02850  0.79492  Biso   1.000  C
  C66      1.0000 0.82988  0.02850  0.70508  Biso   1.000  C
  C67      1.0000 0.67012  0.52850  0.79492  Biso   1.000  C
  C68      1.0000 0.32988  0.52850  0.70508  Biso   1.000  C
  C69      1.0000 0.82988  0.97150  0.20508  Biso   1.000  C
  C70      1.0000 0.17012  0.97150  0.29492  Biso   1.000  C
  C71      1.0000 0.32988  0.47150  0.20508  Biso   1.000  C
  C72      1.0000 0.67012  0.47150  0.29492  Biso   1.000  C
  H73      1.0000 0.18553  0.08902  0.76933  Biso   1.000  H
  H74      1.0000 0.81447  0.08902  0.73067  Biso   1.000  H
  H75      1.0000 0.68553  0.58902  0.76933  Biso   1.000  H
  H76      1.0000 0.31447  0.58902  0.73067  Biso   1.000  H
  H77      1.0000 0.81447  0.91098  0.23067  Biso   1.000  H
  H78      1.0000 0.18553  0.91098  0.26933  Biso   1.000  H
  H79      1.0000 0.31447  0.41098  0.23067  Biso   1.000  H
  H80      1.0000 0.68553  0.41098  0.26933  Biso   1.000  H
  C73      1.0000 0.01638  0.89940  0.93530  Biso   1.000  C
  C74      1.0000 0.98362  0.89940  0.56470  Biso   1.000  C
  C75      1.0000 0.51638  0.39940  0.93530  Biso   1.000  C
  C76      1.0000 0.48362  0.39940  0.56470  Biso   1.000  C
  C77      1.0000 0.98362  0.10060  0.06470  Biso   1.000  C
  C78      1.0000 0.01638  0.10060  0.43530  Biso   1.000  C
  C79      1.0000 0.48362  0.60060  0.06470  Biso   1.000  C
  C80      1.0000 0.51638  0.60060  0.43530  Biso   1.000  C
  H81      1.0000 0.01278  0.00170  0.93596  Biso   1.000  H
  H82      1.0000 0.98722  0.00170  0.56404  Biso   1.000  H
  H83      1.0000 0.51278  0.50170  0.93596  Biso   1.000  H
  H84      1.0000 0.48722  0.50170  0.56404  Biso   1.000  H
  H85      1.0000 0.98722  0.99830  0.06404  Biso   1.000  H
  H86      1.0000 0.01278  0.99830  0.43596  Biso   1.000  H
  H87      1.0000 0.48722  0.49830  0.06404  Biso   1.000  H
  H88      1.0000 0.51278  0.49830  0.43596  Biso   1.000  H
  C81      1.0000 0.97361  0.81560  0.93270  Biso   1.000  C
  C82      1.0000 0.02639  0.81560  0.56730  Biso   1.000  C
  C83      1.0000 0.47361  0.31560  0.93270  Biso   1.000  C
  C84      1.0000 0.52639  0.31560  0.56730  Biso   1.000  C
  C85      1.0000 0.02639  0.18440  0.06730  Biso   1.000  C
  C86      1.0000 0.97361  0.18440  0.43270  Biso   1.000  C
  C87      1.0000 0.52639  0.68440  0.06730  Biso   1.000  C
  C88      1.0000 0.47361  0.68440  0.43270  Biso   1.000  C
  H89      1.0000 0.94133  0.86009  0.93183  Biso   1.000  H
  H90      1.0000 0.05867  0.86009  0.56817  Biso   1.000  H
  H91      1.0000 0.44133  0.36009  0.93183  Biso   1.000  H
  H92      1.0000 0.55867  0.36009  0.56817  Biso   1.000  H
  H93      1.0000 0.05867  0.13991  0.06817  Biso   1.000  H
  H94      1.0000 0.94133  0.13991  0.43183  Biso   1.000  H
  H95      1.0000 0.55867  0.63991  0.06817  Biso   1.000  H
  H96      1.0000 0.44133  0.63991  0.43183  Biso   1.000  H
  C89      1.0000 0.97748  0.66620  0.93136  Biso   1.000  C
  C90      1.0000 0.02252  0.66620  0.56864  Biso   1.000  C
  C91      1.0000 0.47748  0.16620  0.93136  Biso   1.000  C
  C92      1.0000 0.52252  0.16620  0.56864  Biso   1.000  C
  C93      1.0000 0.02252  0.33380  0.06864  Biso   1.000  C
  C94      1.0000 0.97748  0.33380  0.43136  Biso   1.000  C
  C95      1.0000 0.52252  0.83380  0.06864  Biso   1.000  C
  C96      1.0000 0.47748  0.83380  0.43136  Biso   1.000  C
  C97      1.0000 0.02530  0.60890  0.93158  Biso   1.000  C
  C98      1.0000 0.97470  0.60890  0.56842  Biso   1.000  C
  C99      1.0000 0.52530  0.10890  0.93158  Biso   1.000  C
  C100     1.0000 0.47470  0.10890  0.56842  Biso   1.000  C
  C101     1.0000 0.97470  0.39110  0.06842  Biso   1.000  C
  C102     1.0000 0.02530  0.39110  0.43158  Biso   1.000  C
  C103     1.0000 0.47470  0.89110  0.06842  Biso   1.000  C
  C104     1.0000 0.52530  0.89110  0.43158  Biso   1.000  C
  H97      1.0000 0.02969  0.50696  0.92958  Biso   1.000  H
  H98      1.0000 0.97031  0.50696  0.57042  Biso   1.000  H
  H99      1.0000 0.52969  0.00696  0.92958  Biso   1.000  H
  H100     1.0000 0.47031  0.00696  0.57042  Biso   1.000  H
  H101     1.0000 0.97031  0.49304  0.07042  Biso   1.000  H
  H102     1.0000 0.02969  0.49304  0.42958  Biso   1.000  H
  H103     1.0000 0.47031  0.99304  0.07042  Biso   1.000  H
  H104     1.0000 0.52969  0.99304  0.42958  Biso   1.000  H
  C105     1.0000 0.06656  0.69860  0.93467  Biso   1.000  C
  C106     1.0000 0.93344  0.69860  0.56533  Biso   1.000  C
  C107     1.0000 0.56656  0.19860  0.93467  Biso   1.000  C
  C108     1.0000 0.43344  0.19860  0.56533  Biso   1.000  C
  C109     1.0000 0.93344  0.30140  0.06533  Biso   1.000  C
  C110     1.0000 0.06656  0.30140  0.43467  Biso   1.000  C
  C111     1.0000 0.43344  0.80140  0.06533  Biso   1.000  C
  C112     1.0000 0.56656  0.80140  0.43467  Biso   1.000  C
  H105     1.0000 0.09918  0.65643  0.93524  Biso   1.000  H
  H106     1.0000 0.90082  0.65643  0.56476  Biso   1.000  H
  H107     1.0000 0.59918  0.15643  0.93524  Biso   1.000  H
  H108     1.0000 0.40082  0.15643  0.56476  Biso   1.000  H
  H109     1.0000 0.90082  0.34357  0.06476  Biso   1.000  H
  H110     1.0000 0.09918  0.34357  0.43524  Biso   1.000  H
  H111     1.0000 0.40082  0.84357  0.06476  Biso   1.000  H
  H112     1.0000 0.59918  0.84357  0.43524  Biso   1.000  H
  C113     1.0000 0.93150  0.57240  0.93062  Biso   1.000  C
  C114     1.0000 0.06850  0.57240  0.56938  Biso   1.000  C
  C115     1.0000 0.43150  0.07240  0.93062  Biso   1.000  C
  C116     1.0000 0.56850  0.07240  0.56938  Biso   1.000  C
  C117     1.0000 0.06850  0.42760  0.06938  Biso   1.000  C
  C118     1.0000 0.93150  0.42760  0.43062  Biso   1.000  C
  C119     1.0000 0.56850  0.92760  0.06938  Biso   1.000  C
  C120     1.0000 0.43150  0.92760  0.43062  Biso   1.000  C
  H113     1.0000 0.90294  0.63228  0.94055  Biso   1.000  H
  H114     1.0000 0.09706  0.63228  0.55945  Biso   1.000  H
  H115     1.0000 0.40294  0.13228  0.94055  Biso   1.000  H
  H116     1.0000 0.59706  0.13228  0.55945  Biso   1.000  H
  H117     1.0000 0.09706  0.36772  0.05945  Biso   1.000  H
  H118     1.0000 0.90294  0.36772  0.44055  Biso   1.000  H
  H119     1.0000 0.59706  0.86772  0.05945  Biso   1.000  H
  H120     1.0000 0.40294  0.86772  0.44055  Biso   1.000  H
  H121     1.0000 0.93815  0.49667  0.96034  Biso   1.000  H
  H122     1.0000 0.06185  0.49667  0.53966  Biso   1.000  H
  H123     1.0000 0.43815  0.99667  0.96034  Biso   1.000  H
  H124     1.0000 0.56185  0.99667  0.53966  Biso   1.000  H
  H125     1.0000 0.06185  0.50333  0.03966  Biso   1.000  H
  H126     1.0000 0.93815  0.50333  0.46034  Biso   1.000  H
  H127     1.0000 0.56185  0.00333  0.03966  Biso   1.000  H
  H128     1.0000 0.43815  0.00333  0.46034  Biso   1.000  H
  C121     1.0000 0.91603  0.49950  0.87282  Biso   1.000  C
  C122     1.0000 0.08397  0.49950  0.62718  Biso   1.000  C
  C123     1.0000 0.41603  0.99950  0.87282  Biso   1.000  C
  C124     1.0000 0.58397  0.99950  0.62718  Biso   1.000  C
  C125     1.0000 0.08397  0.50050  0.12718  Biso   1.000  C
  C126     1.0000 0.91603  0.50050  0.37282  Biso   1.000  C
  C127     1.0000 0.58397  0.00050  0.12718  Biso   1.000  C
  C128     1.0000 0.41603  0.00050  0.37282  Biso   1.000  C
  H129     1.0000 0.94435  0.43826  0.86316  Biso   1.000  H
  H130     1.0000 0.05565  0.43826  0.63684  Biso   1.000  H
  H131     1.0000 0.44435  0.93826  0.86316  Biso   1.000  H
  H132     1.0000 0.55565  0.93826  0.63684  Biso   1.000  H
  H133     1.0000 0.05565  0.56174  0.13684  Biso   1.000  H
  H134     1.0000 0.94435  0.56174  0.36316  Biso   1.000  H
  H135     1.0000 0.55565  0.06174  0.13684  Biso   1.000  H
  H136     1.0000 0.44435  0.06174  0.36316  Biso   1.000  H
  H137     1.0000 0.88671  0.43527  0.87609  Biso   1.000  H
  H138     1.0000 0.11329  0.43527  0.62391  Biso   1.000  H
  H139     1.0000 0.38671  0.93527  0.87609  Biso   1.000  H
  H140     1.0000 0.61329  0.93527  0.62391  Biso   1.000  H
  H141     1.0000 0.11329  0.56473  0.12391  Biso   1.000  H
  H142     1.0000 0.88671  0.56473  0.37609  Biso   1.000  H
  H143     1.0000 0.61329  0.06473  0.12391  Biso   1.000  H
  H144     1.0000 0.38671  0.06473  0.37609  Biso   1.000  H
  C129     1.0000 0.90208  0.60680  0.82453  Biso   1.000  C
  C130     1.0000 0.09792  0.60680  0.67547  Biso   1.000  C
  C131     1.0000 0.40208  0.10680  0.82453  Biso   1.000  C
  C132     1.0000 0.59792  0.10680  0.67547  Biso   1.000  C
  C133     1.0000 0.09792  0.39320  0.17547  Biso   1.000  C
  C134     1.0000 0.90208  0.39320  0.32453  Biso   1.000  C
  C135     1.0000 0.59792  0.89320  0.17547  Biso   1.000  C
  C136     1.0000 0.40208  0.89320  0.32453  Biso   1.000  C
  H145     1.0000 0.87621  0.67510  0.83546  Biso   1.000  H
  H146     1.0000 0.12379  0.67510  0.66454  Biso   1.000  H
  H147     1.0000 0.37621  0.17510  0.83546  Biso   1.000  H
  H148     1.0000 0.62379  0.17510  0.66454  Biso   1.000  H
  H149     1.0000 0.12379  0.32490  0.16454  Biso   1.000  H
  H150     1.0000 0.87621  0.32490  0.33546  Biso   1.000  H
  H151     1.0000 0.62379  0.82490  0.16454  Biso   1.000  H
  H152     1.0000 0.37621  0.82490  0.33546  Biso   1.000  H
  H153     1.0000 0.93237  0.66340  0.81767  Biso   1.000  H
  H154     1.0000 0.06763  0.66340  0.68233  Biso   1.000  H
  H155     1.0000 0.43237  0.16340  0.81767  Biso   1.000  H
  H156     1.0000 0.56763  0.16340  0.68233  Biso   1.000  H
  H157     1.0000 0.06763  0.33660  0.18233  Biso   1.000  H
  H158     1.0000 0.93237  0.33660  0.31767  Biso   1.000  H
  H159     1.0000 0.56763  0.83660  0.18233  Biso   1.000  H
  H160     1.0000 0.43237  0.83660  0.31767  Biso   1.000  H
  C137     1.0000 0.88184  0.52850  0.77102  Biso   1.000  C
  C138     1.0000 0.11816  0.52850  0.72898  Biso   1.000  C
  C139     1.0000 0.38184  0.02850  0.77102  Biso   1.000  C
  C140     1.0000 0.61816  0.02850  0.72898  Biso   1.000  C
  C141     1.0000 0.11816  0.47150  0.22898  Biso   1.000  C
  C142     1.0000 0.88184  0.47150  0.27102  Biso   1.000  C
  C143     1.0000 0.61816  0.97150  0.22898  Biso   1.000  C
  C144     1.0000 0.38184  0.97150  0.27102  Biso   1.000  C
  C145     1.0000 0.83171  0.48740  0.76082  Biso   1.000  C
  C146     1.0000 0.16829  0.48740  0.73918  Biso   1.000  C
  C147     1.0000 0.33171  0.98740  0.76082  Biso   1.000  C
  C148     1.0000 0.66829  0.98740  0.73918  Biso   1.000  C
  C149     1.0000 0.16829  0.51260  0.23918  Biso   1.000  C
  C150     1.0000 0.83171  0.51260  0.26082  Biso   1.000  C
  C151     1.0000 0.66829  0.01260  0.23918  Biso   1.000  C
  C152     1.0000 0.33171  0.01260  0.26082  Biso   1.000  C
  H161     1.0000 0.80873  0.51425  0.78690  Biso   1.000  H
  H162     1.0000 0.19127  0.51425  0.71310  Biso   1.000  H
  H163     1.0000 0.30873  0.01425  0.78690  Biso   1.000  H
  H164     1.0000 0.69127  0.01425  0.71310  Biso   1.000  H
  H165     1.0000 0.19127  0.48575  0.21310  Biso   1.000  H
  H166     1.0000 0.80873  0.48575  0.28690  Biso   1.000  H
  H167     1.0000 0.69127  0.98575  0.21310  Biso   1.000  H
  H168     1.0000 0.30873  0.98575  0.28690  Biso   1.000  H
  C153     1.0000 0.81490  0.40720  0.71268  Biso   1.000  C
  C154     1.0000 0.18510  0.40720  0.78732  Biso   1.000  C
  C155     1.0000 0.31490  0.90720  0.71268  Biso   1.000  C
  C156     1.0000 0.68510  0.90720  0.78732  Biso   1.000  C
  C157     1.0000 0.18510  0.59280  0.28732  Biso   1.000  C
  C158     1.0000 0.81490  0.59280  0.21268  Biso   1.000  C
  C159     1.0000 0.68510  0.09280  0.28732  Biso   1.000  C
  C160     1.0000 0.31490  0.09280  0.21268  Biso   1.000  C
  H169     1.0000 0.78029  0.37936  0.70664  Biso   1.000  H
  H170     1.0000 0.21971  0.37936  0.79336  Biso   1.000  H
  H171     1.0000 0.28029  0.87936  0.70664  Biso   1.000  H
  H172     1.0000 0.71971  0.87936  0.79336  Biso   1.000  H
  H173     1.0000 0.21971  0.62064  0.29336  Biso   1.000  H
  H174     1.0000 0.78029  0.62064  0.20664  Biso   1.000  H
  H175     1.0000 0.71971  0.12064  0.29336  Biso   1.000  H
  H176     1.0000 0.28029  0.12064  0.20664  Biso   1.000  H
  C161     1.0000 0.89373  0.40840  0.68375  Biso   1.000  C
  C162     1.0000 0.10627  0.40840  0.81625  Biso   1.000  C
  C163     1.0000 0.39373  0.90840  0.68375  Biso   1.000  C
  C164     1.0000 0.60627  0.90840  0.81625  Biso   1.000  C
  C165     1.0000 0.10627  0.59160  0.31625  Biso   1.000  C
  C166     1.0000 0.89373  0.59160  0.18375  Biso   1.000  C
  C167     1.0000 0.60627  0.09160  0.31625  Biso   1.000  C
  C168     1.0000 0.39373  0.09160  0.18375  Biso   1.000  C
  H177     1.0000 0.91597  0.38134  0.65689  Biso   1.000  H
  H178     1.0000 0.08403  0.38134  0.84311  Biso   1.000  H
  H179     1.0000 0.41597  0.88134  0.65689  Biso   1.000  H
  H180     1.0000 0.58403  0.88134  0.84311  Biso   1.000  H
  H181     1.0000 0.08403  0.61866  0.34311  Biso   1.000  H
  H182     1.0000 0.91597  0.61866  0.15689  Biso   1.000  H
  H183     1.0000 0.58403  0.11866  0.34311  Biso   1.000  H
  H184     1.0000 0.41597  0.11866  0.15689  Biso   1.000  H
  C169     1.0000 0.91268  0.48840  0.73075  Biso   1.000  C
  C170     1.0000 0.08732  0.48840  0.76925  Biso   1.000  C
  C171     1.0000 0.41268  0.98840  0.73075  Biso   1.000  C
  C172     1.0000 0.58732  0.98840  0.76925  Biso   1.000  C
  C173     1.0000 0.08732  0.51160  0.26925  Biso   1.000  C
  C174     1.0000 0.91268  0.51160  0.23075  Biso   1.000  C
  C175     1.0000 0.58732  0.01160  0.26925  Biso   1.000  C
  C176     1.0000 0.41268  0.01160  0.23075  Biso   1.000  C
  H185     1.0000 0.94731  0.51615  0.73549  Biso   1.000  H
  H186     1.0000 0.05269  0.51615  0.76451  Biso   1.000  H
  H187     1.0000 0.44731  0.01615  0.73549  Biso   1.000  H
  H188     1.0000 0.55269  0.01615  0.76451  Biso   1.000  H
  H189     1.0000 0.05269  0.48385  0.26451  Biso   1.000  H
  H190     1.0000 0.94731  0.48385  0.23549  Biso   1.000  H
  H191     1.0000 0.55269  0.98385  0.26451  Biso   1.000  H
  H192     1.0000 0.44731  0.98385  0.23549  Biso   1.000  H
  N65      1.0000 0.99560  0.77910  0.75700  Biso   1.000  N
  N66      1.0000 0.00440  0.77910  0.74300  Biso   1.000  N
  N67      1.0000 0.49560  0.27910  0.75700  Biso   1.000  N
  N68      1.0000 0.50440  0.27910  0.74300  Biso   1.000  N
  N69      1.0000 0.00440  0.22090  0.24300  Biso   1.000  N
  N70      1.0000 0.99560  0.22090  0.25700  Biso   1.000  N
  N71      1.0000 0.50440  0.72090  0.24300  Biso   1.000  N
  N72      1.0000 0.49560  0.72090  0.25700  Biso   1.000  N
  C177     1.0000 0.01020  0.89400  0.77080  Biso   1.000  C
  C178     1.0000 0.98980  0.89400  0.72920  Biso   1.000  C
  C179     1.0000 0.51020  0.39400  0.77080  Biso   1.000  C
  C180     1.0000 0.48980  0.39400  0.72920  Biso   1.000  C
  C181     1.0000 0.98980  0.10600  0.22920  Biso   1.000  C
  C182     1.0000 0.01020  0.10600  0.27080  Biso   1.000  C
  C183     1.0000 0.48980  0.60600  0.22920  Biso   1.000  C
  C184     1.0000 0.51020  0.60600  0.27080  Biso   1.000  C
  C185     1.0000 0.02090  0.05400  0.78430  Biso   1.000  C
  C186     1.0000 0.97910  0.05400  0.71570  Biso   1.000  C
  C187     1.0000 0.52090  0.55400  0.78430  Biso   1.000  C
  C188     1.0000 0.47910  0.55400  0.71570  Biso   1.000  C
  C189     1.0000 0.97910  0.94600  0.21570  Biso   1.000  C
  C190     1.0000 0.02090  0.94600  0.28430  Biso   1.000  C
  C191     1.0000 0.47910  0.44600  0.21570  Biso   1.000  C
  C192     1.0000 0.52090  0.44600  0.28430  Biso   1.000  C
  H193     1.0000 0.01332  0.11139  0.74929  Biso   1.000  H
  H194     1.0000 0.98668  0.11139  0.75071  Biso   1.000  H
  H195     1.0000 0.51332  0.61139  0.74929  Biso   1.000  H
  H196     1.0000 0.48668  0.61139  0.75071  Biso   1.000  H
  H197     1.0000 0.98668  0.88861  0.25071  Biso   1.000  H
  H198     1.0000 0.01332  0.88861  0.24929  Biso   1.000  H
  H199     1.0000 0.48668  0.38861  0.25071  Biso   1.000  H
  H200     1.0000 0.51332  0.38861  0.24929  Biso   1.000  H
  H201     1.0000 0.05658  0.06623  0.79934  Biso   1.000  H
  H202     1.0000 0.94342  0.06623  0.70066  Biso   1.000  H
  H203     1.0000 0.55658  0.56623  0.79934  Biso   1.000  H
  H204     1.0000 0.44342  0.56623  0.70066  Biso   1.000  H
  H205     1.0000 0.94342  0.93377  0.20066  Biso   1.000  H
  H206     1.0000 0.05658  0.93377  0.29934  Biso   1.000  H
  H207     1.0000 0.44342  0.43377  0.20066  Biso   1.000  H
  H208     1.0000 0.55658  0.43377  0.29934  Biso   1.000  H
  H209     1.0000 0.99951  0.08694  0.81290  Biso   1.000  H
  H210     1.0000 0.00049  0.08694  0.68710  Biso   1.000  H
  H211     1.0000 0.49951  0.58694  0.81290  Biso   1.000  H
  H212     1.0000 0.50049  0.58694  0.68710  Biso   1.000  H
  H213     1.0000 0.00049  0.91306  0.18710  Biso   1.000  H
  H214     1.0000 0.99951  0.91306  0.31290  Biso   1.000  H
  H215     1.0000 0.50049  0.41306  0.18710  Biso   1.000  H
  H216     1.0000 0.49951  0.41306  0.31290  Biso   1.000  H
