data_image0
_cell_length_a       10.8947
_cell_length_b       15.777
_cell_length_c       17.7853
_cell_angle_alpha    90
_cell_angle_beta     90
_cell_angle_gamma    90

_symmetry_space_group_name_H-M    "P 1"
_symmetry_int_tables_number       1

loop_
  _symmetry_equiv_pos_as_xyz
  'x, y, z'

loop_
  _atom_site_label
  _atom_site_occupancy
  _atom_site_fract_x
  _atom_site_fract_y
  _atom_site_fract_z
  _atom_site_thermal_displace_type
  _atom_site_B_iso_or_equiv
  _atom_site_type_symbol
  Cu1      1.0000 0.64203  0.34807  0.21647  Biso   1.000  Cu
  Cu2      1.0000 0.85797  0.65193  0.71647  Biso   1.000  Cu
  Cu3      1.0000 0.35797  0.84807  0.78353  Biso   1.000  Cu
  Cu4      1.0000 0.14203  0.15193  0.28353  Biso   1.000  Cu
  Cu5      1.0000 0.35797  0.65193  0.78353  Biso   1.000  Cu
  Cu6      1.0000 0.14203  0.34807  0.28353  Biso   1.000  Cu
  Cu7      1.0000 0.64203  0.15193  0.21647  Biso   1.000  Cu
  Cu8      1.0000 0.85797  0.84807  0.71647  Biso   1.000  Cu
  Cu9      1.0000 0.64140  0.25000  0.38587  Biso   1.000  Cu
  Cu10     1.0000 0.85860  0.75000  0.88587  Biso   1.000  Cu
  Cu11     1.0000 0.35860  0.75000  0.61413  Biso   1.000  Cu
  Cu12     1.0000 0.14140  0.25000  0.11413  Biso   1.000  Cu
  Cl1      1.0000 0.45266  0.25000  0.18623  Biso   1.000  Cl
  Cl2      1.0000 0.04734  0.75000  0.68623  Biso   1.000  Cl
  Cl3      1.0000 0.54734  0.75000  0.81377  Biso   1.000  Cl
  Cl4      1.0000 0.95266  0.25000  0.31377  Biso   1.000  Cl
  Cl5      1.0000 0.66450  0.25000  0.51241  Biso   1.000  Cl
  Cl6      1.0000 0.83550  0.75000  0.01241  Biso   1.000  Cl
  Cl7      1.0000 0.33550  0.75000  0.48759  Biso   1.000  Cl
  Cl8      1.0000 0.16450  0.25000  0.98759  Biso   1.000  Cl
  O1       1.0000 0.68880  0.25000  0.27930  Biso   1.000  O
  O2       1.0000 0.81120  0.75000  0.77930  Biso   1.000  O
  O3       1.0000 0.31120  0.75000  0.72070  Biso   1.000  O
  O4       1.0000 0.18880  0.25000  0.22070  Biso   1.000  O
  H1       1.0000 0.76600  0.25000  0.27900  Biso   1.000  H
  H2       1.0000 0.73400  0.75000  0.77900  Biso   1.000  H
  H3       1.0000 0.23400  0.75000  0.72100  Biso   1.000  H
  H4       1.0000 0.26600  0.25000  0.22100  Biso   1.000  H
  N1       1.0000 0.60850  0.41020  0.30990  Biso   1.000  N
  N2       1.0000 0.89150  0.58980  0.80990  Biso   1.000  N
  N3       1.0000 0.39150  0.91020  0.69010  Biso   1.000  N
  N4       1.0000 0.10850  0.08980  0.19010  Biso   1.000  N
  N5       1.0000 0.39150  0.58980  0.69010  Biso   1.000  N
  N6       1.0000 0.10850  0.41020  0.19010  Biso   1.000  N
  N7       1.0000 0.60850  0.08980  0.30990  Biso   1.000  N
  N8       1.0000 0.89150  0.91020  0.80990  Biso   1.000  N
  N9       1.0000 0.62010  0.37290  0.37810  Biso   1.000  N
  N10      1.0000 0.87990  0.62710  0.87810  Biso   1.000  N
  N11      1.0000 0.37990  0.87290  0.62190  Biso   1.000  N
  N12      1.0000 0.12010  0.12710  0.12190  Biso   1.000  N
  N13      1.0000 0.37990  0.62710  0.62190  Biso   1.000  N
  N14      1.0000 0.12010  0.37290  0.12190  Biso   1.000  N
  N15      1.0000 0.62010  0.12710  0.37810  Biso   1.000  N
  N16      1.0000 0.87990  0.87290  0.87810  Biso   1.000  N
  N17      1.0000 0.59120  0.44820  0.15360  Biso   1.000  N
  N18      1.0000 0.90880  0.55180  0.65360  Biso   1.000  N
  N19      1.0000 0.40880  0.94820  0.84640  Biso   1.000  N
  N20      1.0000 0.09120  0.05180  0.34640  Biso   1.000  N
  N21      1.0000 0.40880  0.55180  0.84640  Biso   1.000  N
  N22      1.0000 0.09120  0.44820  0.34640  Biso   1.000  N
  N23      1.0000 0.59120  0.05180  0.15360  Biso   1.000  N
  N24      1.0000 0.90880  0.94820  0.65360  Biso   1.000  N
  N25      1.0000 0.73590  0.29300  0.13480  Biso   1.000  N
  N26      1.0000 0.76410  0.70700  0.63480  Biso   1.000  N
  N27      1.0000 0.26410  0.79300  0.86520  Biso   1.000  N
  N28      1.0000 0.23590  0.20700  0.36520  Biso   1.000  N
  N29      1.0000 0.26410  0.70700  0.86520  Biso   1.000  N
  N30      1.0000 0.23590  0.29300  0.36520  Biso   1.000  N
  N31      1.0000 0.73590  0.20700  0.13480  Biso   1.000  N
  N32      1.0000 0.76410  0.79300  0.63480  Biso   1.000  N
  C1       1.0000 0.60020  0.43130  0.43080  Biso   1.000  C
  C2       1.0000 0.89980  0.56870  0.93080  Biso   1.000  C
  C3       1.0000 0.39980  0.93130  0.56920  Biso   1.000  C
  C4       1.0000 0.10020  0.06870  0.06920  Biso   1.000  C
  C5       1.0000 0.39980  0.56870  0.56920  Biso   1.000  C
  C6       1.0000 0.10020  0.43130  0.06920  Biso   1.000  C
  C7       1.0000 0.60020  0.06870  0.43080  Biso   1.000  C
  C8       1.0000 0.89980  0.93130  0.93080  Biso   1.000  C
  H5       1.0000 0.60186  0.42154  0.48235  Biso   1.000  H
  H6       1.0000 0.89814  0.57846  0.98235  Biso   1.000  H
  H7       1.0000 0.39814  0.92154  0.51765  Biso   1.000  H
  H8       1.0000 0.10186  0.07846  0.01765  Biso   1.000  H
  H9       1.0000 0.39814  0.57846  0.51765  Biso   1.000  H
  H10      1.0000 0.10186  0.42154  0.01765  Biso   1.000  H
  H11      1.0000 0.60186  0.07846  0.48235  Biso   1.000  H
  H12      1.0000 0.89814  0.92154  0.98235  Biso   1.000  H
  C9       1.0000 0.57730  0.50740  0.39780  Biso   1.000  C
  C10      1.0000 0.92270  0.49260  0.89780  Biso   1.000  C
  C11      1.0000 0.42270  0.00740  0.60220  Biso   1.000  C
  C12      1.0000 0.07730  0.99260  0.10220  Biso   1.000  C
  C13      1.0000 0.42270  0.49260  0.60220  Biso   1.000  C
  C14      1.0000 0.07730  0.50740  0.10220  Biso   1.000  C
  C15      1.0000 0.57730  0.99260  0.39780  Biso   1.000  C
  C16      1.0000 0.92270  0.00740  0.89780  Biso   1.000  C
  H13      1.0000 0.56031  0.55860  0.42150  Biso   1.000  H
  H14      1.0000 0.93969  0.44140  0.92150  Biso   1.000  H
  H15      1.0000 0.43969  0.05860  0.57850  Biso   1.000  H
  H16      1.0000 0.06031  0.94140  0.07850  Biso   1.000  H
  H17      1.0000 0.43969  0.44140  0.57850  Biso   1.000  H
  H18      1.0000 0.06031  0.55860  0.07850  Biso   1.000  H
  H19      1.0000 0.56031  0.94140  0.42150  Biso   1.000  H
  H20      1.0000 0.93969  0.05860  0.92150  Biso   1.000  H
  C17      1.0000 0.58450  0.49260  0.32300  Biso   1.000  C
  C18      1.0000 0.91550  0.50740  0.82300  Biso   1.000  C
  C19      1.0000 0.41550  0.99260  0.67700  Biso   1.000  C
  C20      1.0000 0.08450  0.00740  0.17700  Biso   1.000  C
  C21      1.0000 0.41550  0.50740  0.67700  Biso   1.000  C
  C22      1.0000 0.08450  0.49260  0.17700  Biso   1.000  C
  C23      1.0000 0.58450  0.00740  0.32300  Biso   1.000  C
  C24      1.0000 0.91550  0.99260  0.82300  Biso   1.000  C
  H21      1.0000 0.57423  0.53351  0.28595  Biso   1.000  H
  H22      1.0000 0.92577  0.46649  0.78595  Biso   1.000  H
  H23      1.0000 0.42577  0.03351  0.71405  Biso   1.000  H
  H24      1.0000 0.07423  0.96649  0.21405  Biso   1.000  H
  H25      1.0000 0.42577  0.46649  0.71405  Biso   1.000  H
  H26      1.0000 0.07423  0.53351  0.21405  Biso   1.000  H
  H27      1.0000 0.57423  0.96649  0.28595  Biso   1.000  H
  H28      1.0000 0.92577  0.03351  0.78595  Biso   1.000  H
  C25      1.0000 0.47570  0.46220  0.13450  Biso   1.000  C
  C26      1.0000 0.02430  0.53780  0.63450  Biso   1.000  C
  C27      1.0000 0.52430  0.96220  0.86550  Biso   1.000  C
  C28      1.0000 0.97570  0.03780  0.36550  Biso   1.000  C
  C29      1.0000 0.52430  0.53780  0.86550  Biso   1.000  C
  C30      1.0000 0.97570  0.46220  0.36550  Biso   1.000  C
  C31      1.0000 0.47570  0.03780  0.13450  Biso   1.000  C
  C32      1.0000 0.02430  0.96220  0.63450  Biso   1.000  C
  H29      1.0000 0.41608  0.42311  0.14857  Biso   1.000  H
  H30      1.0000 0.08392  0.57689  0.64857  Biso   1.000  H
  H31      1.0000 0.58392  0.92311  0.85143  Biso   1.000  H
  H32      1.0000 0.91608  0.07689  0.35143  Biso   1.000  H
  H33      1.0000 0.58392  0.57689  0.85143  Biso   1.000  H
  H34      1.0000 0.91608  0.42311  0.35143  Biso   1.000  H
  H35      1.0000 0.41608  0.07689  0.14857  Biso   1.000  H
  H36      1.0000 0.08392  0.92311  0.64857  Biso   1.000  H
  C33      1.0000 0.44070  0.53330  0.09430  Biso   1.000  C
  C34      1.0000 0.05930  0.46670  0.59430  Biso   1.000  C
  C35      1.0000 0.55930  0.03330  0.90570  Biso   1.000  C
  C36      1.0000 0.94070  0.96670  0.40570  Biso   1.000  C
  C37      1.0000 0.55930  0.46670  0.90570  Biso   1.000  C
  C38      1.0000 0.94070  0.53330  0.40570  Biso   1.000  C
  C39      1.0000 0.44070  0.96670  0.09430  Biso   1.000  C
  C40      1.0000 0.05930  0.03330  0.59430  Biso   1.000  C
  H37      1.0000 0.35854  0.54125  0.08189  Biso   1.000  H
  H38      1.0000 0.14146  0.45875  0.58189  Biso   1.000  H
  H39      1.0000 0.64146  0.04125  0.91811  Biso   1.000  H
  H40      1.0000 0.85854  0.95875  0.41811  Biso   1.000  H
  H41      1.0000 0.64146  0.45875  0.91811  Biso   1.000  H
  H42      1.0000 0.85854  0.54125  0.41811  Biso   1.000  H
  H43      1.0000 0.35854  0.95875  0.08189  Biso   1.000  H
  H44      1.0000 0.14146  0.04125  0.58189  Biso   1.000  H
  C41      1.0000 0.52460  0.59090  0.07290  Biso   1.000  C
  C42      1.0000 0.97540  0.40910  0.57290  Biso   1.000  C
  C43      1.0000 0.47540  0.09090  0.92710  Biso   1.000  C
  C44      1.0000 0.02460  0.90910  0.42710  Biso   1.000  C
  C45      1.0000 0.47540  0.40910  0.92710  Biso   1.000  C
  C46      1.0000 0.02460  0.59090  0.42710  Biso   1.000  C
  C47      1.0000 0.52460  0.90910  0.07290  Biso   1.000  C
  C48      1.0000 0.97540  0.09090  0.57290  Biso   1.000  C
  C49      1.0000 0.64380  0.57650  0.09300  Biso   1.000  C
  C50      1.0000 0.85620  0.42350  0.59300  Biso   1.000  C
  C51      1.0000 0.35620  0.07650  0.90700  Biso   1.000  C
  C52      1.0000 0.14380  0.92350  0.40700  Biso   1.000  C
  C53      1.0000 0.35620  0.42350  0.90700  Biso   1.000  C
  C54      1.0000 0.14380  0.57650  0.40700  Biso   1.000  C
  C55      1.0000 0.64380  0.92350  0.09300  Biso   1.000  C
  C56      1.0000 0.85620  0.07650  0.59300  Biso   1.000  C
  H45      1.0000 0.70468  0.61478  0.07915  Biso   1.000  H
  H46      1.0000 0.79532  0.38522  0.57915  Biso   1.000  H
  H47      1.0000 0.29532  0.11478  0.92085  Biso   1.000  H
  H48      1.0000 0.20468  0.88522  0.42085  Biso   1.000  H
  H49      1.0000 0.29532  0.38522  0.92085  Biso   1.000  H
  H50      1.0000 0.20468  0.61478  0.42085  Biso   1.000  H
  H51      1.0000 0.70468  0.88522  0.07915  Biso   1.000  H
  H52      1.0000 0.79532  0.11478  0.57915  Biso   1.000  H
  C57      1.0000 0.67320  0.50610  0.13320  Biso   1.000  C
  C58      1.0000 0.82680  0.49390  0.63320  Biso   1.000  C
  C59      1.0000 0.32680  0.00610  0.86680  Biso   1.000  C
  C60      1.0000 0.17320  0.99390  0.36680  Biso   1.000  C
  C61      1.0000 0.32680  0.49390  0.86680  Biso   1.000  C
  C62      1.0000 0.17320  0.50610  0.36680  Biso   1.000  C
  C63      1.0000 0.67320  0.99390  0.13320  Biso   1.000  C
  C64      1.0000 0.82680  0.00610  0.63320  Biso   1.000  C
  H53      1.0000 0.75469  0.49798  0.14697  Biso   1.000  H
  H54      1.0000 0.74531  0.50202  0.64697  Biso   1.000  H
  H55      1.0000 0.24531  0.99798  0.85303  Biso   1.000  H
  H56      1.0000 0.25469  0.00202  0.35303  Biso   1.000  H
  H57      1.0000 0.24531  0.50202  0.85303  Biso   1.000  H
  H58      1.0000 0.25469  0.49798  0.35303  Biso   1.000  H
  H59      1.0000 0.75469  0.00202  0.14697  Biso   1.000  H
  H60      1.0000 0.74531  0.99798  0.64697  Biso   1.000  H
  C65      1.0000 0.49140  0.67010  0.02980  Biso   1.000  C
  C66      1.0000 0.00860  0.32990  0.52980  Biso   1.000  C
  C67      1.0000 0.50860  0.17010  0.97020  Biso   1.000  C
  C68      1.0000 0.99140  0.82990  0.47020  Biso   1.000  C
  C69      1.0000 0.50860  0.32990  0.97020  Biso   1.000  C
  C70      1.0000 0.99140  0.67010  0.47020  Biso   1.000  C
  C71      1.0000 0.49140  0.82990  0.02980  Biso   1.000  C
  C72      1.0000 0.00860  0.17010  0.52980  Biso   1.000  C
  H61      1.0000 0.40674  0.66595  0.01320  Biso   1.000  H
  H62      1.0000 0.09326  0.33405  0.51320  Biso   1.000  H
  H63      1.0000 0.59326  0.16595  0.98680  Biso   1.000  H
  H64      1.0000 0.90674  0.83405  0.48680  Biso   1.000  H
  H65      1.0000 0.59326  0.33405  0.98680  Biso   1.000  H
  H66      1.0000 0.90674  0.66595  0.48680  Biso   1.000  H
  H67      1.0000 0.40674  0.83405  0.01320  Biso   1.000  H
  H68      1.0000 0.09326  0.16595  0.51320  Biso   1.000  H
  H69      1.0000 0.54278  0.67391  0.98536  Biso   1.000  H
  H70      1.0000 0.95722  0.32609  0.48536  Biso   1.000  H
  H71      1.0000 0.45722  0.17391  0.01464  Biso   1.000  H
  H72      1.0000 0.04278  0.82609  0.51464  Biso   1.000  H
  H73      1.0000 0.45722  0.32609  0.01464  Biso   1.000  H
  H74      1.0000 0.04278  0.67391  0.51464  Biso   1.000  H
  H75      1.0000 0.54278  0.82609  0.98536  Biso   1.000  H
  H76      1.0000 0.95722  0.17391  0.48536  Biso   1.000  H
  C73      1.0000 0.50680  0.75000  0.07610  Biso   1.000  C
  C74      1.0000 0.99320  0.25000  0.57610  Biso   1.000  C
  C75      1.0000 0.49320  0.25000  0.92390  Biso   1.000  C
  C76      1.0000 0.00680  0.75000  0.42390  Biso   1.000  C
  H77      1.0000 0.58779  0.75000  0.09872  Biso   1.000  H
  H78      1.0000 0.91221  0.25000  0.59872  Biso   1.000  H
  H79      1.0000 0.41221  0.25000  0.90128  Biso   1.000  H
  H80      1.0000 0.08779  0.75000  0.40128  Biso   1.000  H
  H81      1.0000 0.44680  0.75000  0.11636  Biso   1.000  H
  H82      1.0000 0.05320  0.25000  0.61636  Biso   1.000  H
  H83      1.0000 0.55320  0.25000  0.88364  Biso   1.000  H
  H84      1.0000 0.94680  0.75000  0.38364  Biso   1.000  H
  C77      1.0000 0.80440  0.31840  0.07790  Biso   1.000  C
  C78      1.0000 0.69560  0.68160  0.57790  Biso   1.000  C
  C79      1.0000 0.19560  0.81840  0.92210  Biso   1.000  C
  C80      1.0000 0.30440  0.18160  0.42210  Biso   1.000  C
  C81      1.0000 0.19560  0.68160  0.92210  Biso   1.000  C
  C82      1.0000 0.30440  0.31840  0.42210  Biso   1.000  C
  C83      1.0000 0.80440  0.18160  0.07790  Biso   1.000  C
  C84      1.0000 0.69560  0.81840  0.57790  Biso   1.000  C
  H85      1.0000 0.81977  0.37464  0.06549  Biso   1.000  H
  H86      1.0000 0.68023  0.62536  0.56549  Biso   1.000  H
  H87      1.0000 0.18023  0.87464  0.93451  Biso   1.000  H
  H88      1.0000 0.31977  0.12536  0.43451  Biso   1.000  H
  H89      1.0000 0.18023  0.62536  0.93451  Biso   1.000  H
  H90      1.0000 0.31977  0.37464  0.43451  Biso   1.000  H
  H91      1.0000 0.81977  0.12536  0.06549  Biso   1.000  H
  H92      1.0000 0.68023  0.87464  0.56549  Biso   1.000  H
  C85      1.0000 0.84930  0.25000  0.03990  Biso   1.000  C
  C86      1.0000 0.65070  0.75000  0.53990  Biso   1.000  C
  C87      1.0000 0.15070  0.75000  0.96010  Biso   1.000  C
  C88      1.0000 0.34930  0.25000  0.46010  Biso   1.000  C
  H93      1.0000 0.89948  0.25000  0.99763  Biso   1.000  H
  H94      1.0000 0.60052  0.75000  0.49763  Biso   1.000  H
  H95      1.0000 0.10052  0.75000  0.00237  Biso   1.000  H
  H96      1.0000 0.39948  0.25000  0.50237  Biso   1.000  H
