data_image0
_cell_length_a       13.478
_cell_length_b       11.259
_cell_length_c       15.046
_cell_angle_alpha    90
_cell_angle_beta     93.77
_cell_angle_gamma    90

_symmetry_space_group_name_H-M    "P 1"
_symmetry_int_tables_number       1

loop_
  _symmetry_equiv_pos_as_xyz
  'x, y, z'

loop_
  _atom_site_label
  _atom_site_occupancy
  _atom_site_fract_x
  _atom_site_fract_y
  _atom_site_fract_z
  _atom_site_thermal_displace_type
  _atom_site_B_iso_or_equiv
  _atom_site_type_symbol
  Cl1      1.0000 0.58054  0.95284  0.33554  Biso   1.000  Cl
  Cl2      1.0000 0.41946  0.95284  0.16446  Biso   1.000  Cl
  Cl3      1.0000 0.08054  0.45284  0.33554  Biso   1.000  Cl
  Cl4      1.0000 0.91946  0.45284  0.16446  Biso   1.000  Cl
  Cl5      1.0000 0.41946  0.04716  0.66446  Biso   1.000  Cl
  Cl6      1.0000 0.58054  0.04716  0.83554  Biso   1.000  Cl
  Cl7      1.0000 0.91946  0.54716  0.66446  Biso   1.000  Cl
  Cl8      1.0000 0.08054  0.54716  0.83554  Biso   1.000  Cl
  Cu1      1.0000 0.50000  0.81770  0.25000  Biso   1.000  Cu
  Cu2      1.0000 0.00000  0.31770  0.25000  Biso   1.000  Cu
  Cu3      1.0000 0.50000  0.18230  0.75000  Biso   1.000  Cu
  Cu4      1.0000 0.00000  0.68230  0.75000  Biso   1.000  Cu
  Cu5      1.0000 0.50000  0.00000  0.50000  Biso   1.000  Cu
  Cu6      1.0000 0.50000  0.00000  0.00000  Biso   1.000  Cu
  Cu7      1.0000 0.00000  0.50000  0.50000  Biso   1.000  Cu
  Cu8      1.0000 0.00000  0.50000  0.00000  Biso   1.000  Cu
  Cl9      1.0000 0.52002  0.68204  0.14193  Biso   1.000  Cl
  Cl10     1.0000 0.47998  0.68204  0.35807  Biso   1.000  Cl
  Cl11     1.0000 0.02002  0.18204  0.14193  Biso   1.000  Cl
  Cl12     1.0000 0.97998  0.18204  0.35807  Biso   1.000  Cl
  Cl13     1.0000 0.47998  0.31796  0.85807  Biso   1.000  Cl
  Cl14     1.0000 0.52002  0.31796  0.64193  Biso   1.000  Cl
  Cl15     1.0000 0.97998  0.81796  0.85807  Biso   1.000  Cl
  Cl16     1.0000 0.02002  0.81796  0.64193  Biso   1.000  Cl
  O1       1.0000 0.47696  0.17278  0.47466  Biso   1.000  O
  O2       1.0000 0.52304  0.17278  0.02534  Biso   1.000  O
  O3       1.0000 0.97696  0.67278  0.47466  Biso   1.000  O
  O4       1.0000 0.02304  0.67278  0.02534  Biso   1.000  O
  O5       1.0000 0.52304  0.82722  0.52534  Biso   1.000  O
  O6       1.0000 0.47696  0.82722  0.97466  Biso   1.000  O
  O7       1.0000 0.02304  0.32722  0.52534  Biso   1.000  O
  O8       1.0000 0.97696  0.32722  0.97466  Biso   1.000  O
  N1       1.0000 0.36155  0.96470  0.46416  Biso   1.000  N
  N2       1.0000 0.63845  0.96470  0.03584  Biso   1.000  N
  N3       1.0000 0.86155  0.46470  0.46416  Biso   1.000  N
  N4       1.0000 0.13845  0.46470  0.03584  Biso   1.000  N
  N5       1.0000 0.63845  0.03530  0.53584  Biso   1.000  N
  N6       1.0000 0.36155  0.03530  0.96416  Biso   1.000  N
  N7       1.0000 0.13845  0.53530  0.53584  Biso   1.000  N
  N8       1.0000 0.86155  0.53530  0.96416  Biso   1.000  N
  N9       1.0000 0.30124  0.04040  0.41547  Biso   1.000  N
  N10      1.0000 0.69876  0.04040  0.08453  Biso   1.000  N
  N11      1.0000 0.80124  0.54040  0.41547  Biso   1.000  N
  N12      1.0000 0.19876  0.54040  0.08453  Biso   1.000  N
  N13      1.0000 0.69876  0.95960  0.58453  Biso   1.000  N
  N14      1.0000 0.30124  0.95960  0.91547  Biso   1.000  N
  N15      1.0000 0.19876  0.45960  0.58453  Biso   1.000  N
  N16      1.0000 0.80124  0.45960  0.91547  Biso   1.000  N
  C1       1.0000 0.43450  0.32870  0.36960  Biso   1.000  C
  C2       1.0000 0.56550  0.32870  0.13040  Biso   1.000  C
  C3       1.0000 0.93450  0.82870  0.36960  Biso   1.000  C
  C4       1.0000 0.06550  0.82870  0.13040  Biso   1.000  C
  C5       1.0000 0.56550  0.67130  0.63040  Biso   1.000  C
  C6       1.0000 0.43450  0.67130  0.86960  Biso   1.000  C
  C7       1.0000 0.06550  0.17130  0.63040  Biso   1.000  C
  C8       1.0000 0.93450  0.17130  0.86960  Biso   1.000  C
  H1       1.0000 0.48890  0.30010  0.33620  Biso   1.000  H
  H2       1.0000 0.51110  0.30010  0.16380  Biso   1.000  H
  H3       1.0000 0.98890  0.80010  0.33620  Biso   1.000  H
  H4       1.0000 0.01110  0.80010  0.16380  Biso   1.000  H
  H5       1.0000 0.51110  0.69990  0.66380  Biso   1.000  H
  H6       1.0000 0.48890  0.69990  0.83620  Biso   1.000  H
  H7       1.0000 0.01110  0.19990  0.66380  Biso   1.000  H
  H8       1.0000 0.98890  0.19990  0.83620  Biso   1.000  H
  H9       1.0000 0.46060  0.38960  0.41020  Biso   1.000  H
  H10      1.0000 0.53940  0.38960  0.08980  Biso   1.000  H
  H11      1.0000 0.96060  0.88960  0.41020  Biso   1.000  H
  H12      1.0000 0.03940  0.88960  0.08980  Biso   1.000  H
  H13      1.0000 0.53940  0.61040  0.58980  Biso   1.000  H
  H14      1.0000 0.46060  0.61040  0.91020  Biso   1.000  H
  H15      1.0000 0.03940  0.11040  0.58980  Biso   1.000  H
  H16      1.0000 0.96060  0.11040  0.91020  Biso   1.000  H
  C9       1.0000 0.30610  0.28940  0.24620  Biso   1.000  C
  C10      1.0000 0.69390  0.28940  0.25380  Biso   1.000  C
  C11      1.0000 0.80610  0.78940  0.24620  Biso   1.000  C
  C12      1.0000 0.19390  0.78940  0.25380  Biso   1.000  C
  C13      1.0000 0.69390  0.71060  0.75380  Biso   1.000  C
  C14      1.0000 0.30610  0.71060  0.74620  Biso   1.000  C
  C15      1.0000 0.19390  0.21060  0.75380  Biso   1.000  C
  C16      1.0000 0.80610  0.21060  0.74620  Biso   1.000  C
  H17      1.0000 0.35440  0.25640  0.20800  Biso   1.000  H
  H18      1.0000 0.64560  0.25640  0.29200  Biso   1.000  H
  H19      1.0000 0.85440  0.75640  0.20800  Biso   1.000  H
  H20      1.0000 0.14560  0.75640  0.29200  Biso   1.000  H
  H21      1.0000 0.64560  0.74360  0.79200  Biso   1.000  H
  H22      1.0000 0.35440  0.74360  0.70800  Biso   1.000  H
  H23      1.0000 0.14560  0.24360  0.79200  Biso   1.000  H
  H24      1.0000 0.85440  0.24360  0.70800  Biso   1.000  H
  H25      1.0000 0.25310  0.32520  0.20850  Biso   1.000  H
  H26      1.0000 0.74690  0.32520  0.29150  Biso   1.000  H
  H27      1.0000 0.75310  0.82520  0.20850  Biso   1.000  H
  H28      1.0000 0.24690  0.82520  0.29150  Biso   1.000  H
  H29      1.0000 0.74690  0.67480  0.79150  Biso   1.000  H
  H30      1.0000 0.25310  0.67480  0.70850  Biso   1.000  H
  H31      1.0000 0.24690  0.17480  0.79150  Biso   1.000  H
  H32      1.0000 0.75310  0.17480  0.70850  Biso   1.000  H
  C17      1.0000 0.20300  0.92280  0.48499  Biso   1.000  C
  C18      1.0000 0.79700  0.92280  0.01501  Biso   1.000  C
  C19      1.0000 0.70300  0.42280  0.48499  Biso   1.000  C
  C20      1.0000 0.29700  0.42280  0.01501  Biso   1.000  C
  C21      1.0000 0.79700  0.07720  0.51501  Biso   1.000  C
  C22      1.0000 0.20300  0.07720  0.98499  Biso   1.000  C
  C23      1.0000 0.29700  0.57720  0.51501  Biso   1.000  C
  C24      1.0000 0.70300  0.57720  0.98499  Biso   1.000  C
  H33      1.0000 0.14680  0.88680  0.50550  Biso   1.000  H
  H34      1.0000 0.85320  0.88680  0.99450  Biso   1.000  H
  H35      1.0000 0.64680  0.38680  0.50550  Biso   1.000  H
  H36      1.0000 0.35320  0.38680  0.99450  Biso   1.000  H
  H37      1.0000 0.85320  0.11320  0.49450  Biso   1.000  H
  H38      1.0000 0.14680  0.11320  0.00550  Biso   1.000  H
  H39      1.0000 0.35320  0.61320  0.49450  Biso   1.000  H
  H40      1.0000 0.64680  0.61320  0.00550  Biso   1.000  H
  C25      1.0000 0.34463  0.13400  0.36273  Biso   1.000  C
  C26      1.0000 0.65537  0.13400  0.13727  Biso   1.000  C
  C27      1.0000 0.84463  0.63400  0.36273  Biso   1.000  C
  C28      1.0000 0.15537  0.63400  0.13727  Biso   1.000  C
  C29      1.0000 0.65537  0.86600  0.63727  Biso   1.000  C
  C30      1.0000 0.34463  0.86600  0.86273  Biso   1.000  C
  C31      1.0000 0.15537  0.36600  0.63727  Biso   1.000  C
  C32      1.0000 0.84463  0.36600  0.86273  Biso   1.000  C
  H41      1.0000 0.39450  0.09830  0.32640  Biso   1.000  H
  H42      1.0000 0.60550  0.09830  0.17360  Biso   1.000  H
  H43      1.0000 0.89450  0.59830  0.32640  Biso   1.000  H
  H44      1.0000 0.10550  0.59830  0.17360  Biso   1.000  H
  H45      1.0000 0.60550  0.90170  0.67360  Biso   1.000  H
  H46      1.0000 0.39450  0.90170  0.82640  Biso   1.000  H
  H47      1.0000 0.10550  0.40170  0.67360  Biso   1.000  H
  H48      1.0000 0.89450  0.40170  0.82640  Biso   1.000  H
  C33      1.0000 0.26370  0.19080  0.30068  Biso   1.000  C
  C34      1.0000 0.73630  0.19080  0.19932  Biso   1.000  C
  C35      1.0000 0.76370  0.69080  0.30068  Biso   1.000  C
  C36      1.0000 0.23630  0.69080  0.19932  Biso   1.000  C
  C37      1.0000 0.73630  0.80920  0.69932  Biso   1.000  C
  C38      1.0000 0.26370  0.80920  0.80068  Biso   1.000  C
  C39      1.0000 0.23630  0.30920  0.69932  Biso   1.000  C
  C40      1.0000 0.76370  0.30920  0.80068  Biso   1.000  C
  H49      1.0000 0.23400  0.13080  0.26100  Biso   1.000  H
  H50      1.0000 0.76600  0.13080  0.23900  Biso   1.000  H
  H51      1.0000 0.73400  0.63080  0.26100  Biso   1.000  H
  H52      1.0000 0.26600  0.63080  0.23900  Biso   1.000  H
  H53      1.0000 0.76600  0.86920  0.73900  Biso   1.000  H
  H54      1.0000 0.23400  0.86920  0.76100  Biso   1.000  H
  H55      1.0000 0.26600  0.36920  0.73900  Biso   1.000  H
  H56      1.0000 0.73400  0.36920  0.76100  Biso   1.000  H
  H57      1.0000 0.21200  0.22270  0.33570  Biso   1.000  H
  H58      1.0000 0.78800  0.22270  0.16430  Biso   1.000  H
  H59      1.0000 0.71200  0.72270  0.33570  Biso   1.000  H
  H60      1.0000 0.28800  0.72270  0.16430  Biso   1.000  H
  H61      1.0000 0.78800  0.77730  0.66430  Biso   1.000  H
  H62      1.0000 0.21200  0.77730  0.83570  Biso   1.000  H
  H63      1.0000 0.28800  0.27730  0.66430  Biso   1.000  H
  H64      1.0000 0.71200  0.27730  0.83570  Biso   1.000  H
  C41      1.0000 0.39489  0.22730  0.42261  Biso   1.000  C
  C42      1.0000 0.60511  0.22730  0.07739  Biso   1.000  C
  C43      1.0000 0.89489  0.72730  0.42261  Biso   1.000  C
  C44      1.0000 0.10511  0.72730  0.07739  Biso   1.000  C
  C45      1.0000 0.60511  0.77270  0.57739  Biso   1.000  C
  C46      1.0000 0.39489  0.77270  0.92261  Biso   1.000  C
  C47      1.0000 0.10511  0.27270  0.57739  Biso   1.000  C
  C48      1.0000 0.89489  0.27270  0.92261  Biso   1.000  C
  H65      1.0000 0.34690  0.25830  0.46290  Biso   1.000  H
  H66      1.0000 0.65310  0.25830  0.03710  Biso   1.000  H
  H67      1.0000 0.84690  0.75830  0.46290  Biso   1.000  H
  H68      1.0000 0.15310  0.75830  0.03710  Biso   1.000  H
  H69      1.0000 0.65310  0.74170  0.53710  Biso   1.000  H
  H70      1.0000 0.34690  0.74170  0.96290  Biso   1.000  H
  H71      1.0000 0.15310  0.24170  0.53710  Biso   1.000  H
  H72      1.0000 0.84690  0.24170  0.96290  Biso   1.000  H
  C49      1.0000 0.20630  0.01580  0.42740  Biso   1.000  C
  C50      1.0000 0.79370  0.01580  0.07260  Biso   1.000  C
  C51      1.0000 0.70630  0.51580  0.42740  Biso   1.000  C
  C52      1.0000 0.29370  0.51580  0.07260  Biso   1.000  C
  C53      1.0000 0.79370  0.98420  0.57260  Biso   1.000  C
  C54      1.0000 0.20630  0.98420  0.92740  Biso   1.000  C
  C55      1.0000 0.29370  0.48420  0.57260  Biso   1.000  C
  C56      1.0000 0.70630  0.48420  0.92740  Biso   1.000  C
  H73      1.0000 0.15150  0.05550  0.40090  Biso   1.000  H
  H74      1.0000 0.84850  0.05550  0.09910  Biso   1.000  H
  H75      1.0000 0.65150  0.55550  0.40090  Biso   1.000  H
  H76      1.0000 0.34850  0.55550  0.09910  Biso   1.000  H
  H77      1.0000 0.84850  0.94450  0.59910  Biso   1.000  H
  H78      1.0000 0.15150  0.94450  0.90090  Biso   1.000  H
  H79      1.0000 0.34850  0.44450  0.59910  Biso   1.000  H
  H80      1.0000 0.65150  0.44450  0.90090  Biso   1.000  H
  C57      1.0000 0.35500  0.38290  0.30520  Biso   1.000  C
  C58      1.0000 0.64500  0.38290  0.19480  Biso   1.000  C
  C59      1.0000 0.85500  0.88290  0.30520  Biso   1.000  C
  C60      1.0000 0.14500  0.88290  0.19480  Biso   1.000  C
  C61      1.0000 0.64500  0.61710  0.69480  Biso   1.000  C
  C62      1.0000 0.35500  0.61710  0.80520  Biso   1.000  C
  C63      1.0000 0.14500  0.11710  0.69480  Biso   1.000  C
  C64      1.0000 0.85500  0.11710  0.80520  Biso   1.000  C
  H81      1.0000 0.30530  0.42200  0.33870  Biso   1.000  H
  H82      1.0000 0.69470  0.42200  0.16130  Biso   1.000  H
  H83      1.0000 0.80530  0.92200  0.33870  Biso   1.000  H
  H84      1.0000 0.19470  0.92200  0.16130  Biso   1.000  H
  H85      1.0000 0.69470  0.57800  0.66130  Biso   1.000  H
  H86      1.0000 0.30530  0.57800  0.83870  Biso   1.000  H
  H87      1.0000 0.19470  0.07800  0.66130  Biso   1.000  H
  H88      1.0000 0.80530  0.07800  0.83870  Biso   1.000  H
  H89      1.0000 0.38510  0.44230  0.26880  Biso   1.000  H
  H90      1.0000 0.61490  0.44230  0.23120  Biso   1.000  H
  H91      1.0000 0.88510  0.94230  0.26880  Biso   1.000  H
  H92      1.0000 0.11490  0.94230  0.23120  Biso   1.000  H
  H93      1.0000 0.61490  0.55770  0.73120  Biso   1.000  H
  H94      1.0000 0.38510  0.55770  0.76880  Biso   1.000  H
  H95      1.0000 0.11490  0.05770  0.73120  Biso   1.000  H
  H96      1.0000 0.88510  0.05770  0.76880  Biso   1.000  H
  C65      1.0000 0.30110  0.89340  0.50629  Biso   1.000  C
  C66      1.0000 0.69890  0.89340  0.99371  Biso   1.000  C
  C67      1.0000 0.80110  0.39340  0.50629  Biso   1.000  C
  C68      1.0000 0.19890  0.39340  0.99371  Biso   1.000  C
  C69      1.0000 0.69890  0.10660  0.49371  Biso   1.000  C
  C70      1.0000 0.30110  0.10660  0.00629  Biso   1.000  C
  C71      1.0000 0.19890  0.60660  0.49371  Biso   1.000  C
  C72      1.0000 0.80110  0.60660  0.00629  Biso   1.000  C
  H97      1.0000 0.32210  0.83240  0.54470  Biso   1.000  H
  H98      1.0000 0.67790  0.83240  0.95530  Biso   1.000  H
  H99      1.0000 0.82210  0.33240  0.54470  Biso   1.000  H
  H100     1.0000 0.17790  0.33240  0.95530  Biso   1.000  H
  H101     1.0000 0.67790  0.16760  0.45530  Biso   1.000  H
  H102     1.0000 0.32210  0.16760  0.04470  Biso   1.000  H
  H103     1.0000 0.17790  0.66760  0.45530  Biso   1.000  H
  H104     1.0000 0.82210  0.66760  0.04470  Biso   1.000  H
