data_image0
_cell_length_a       13.522
_cell_length_b       11.289
_cell_length_c       15.069
_cell_angle_alpha    90
_cell_angle_beta     93.8
_cell_angle_gamma    90

_symmetry_space_group_name_H-M    "P 1"
_symmetry_int_tables_number       1

loop_
  _symmetry_equiv_pos_as_xyz
  'x, y, z'

loop_
  _atom_site_label
  _atom_site_occupancy
  _atom_site_fract_x
  _atom_site_fract_y
  _atom_site_fract_z
  _atom_site_thermal_displace_type
  _atom_site_B_iso_or_equiv
  _atom_site_type_symbol
  Cu1      1.0000 0.50000  0.50000  0.50000  Biso   1.000  Cu
  Cu2      1.0000 0.00000  0.00000  0.50000  Biso   1.000  Cu
  Cu3      1.0000 0.50000  0.50000  0.00000  Biso   1.000  Cu
  Cu4      1.0000 0.00000  0.00000  0.00000  Biso   1.000  Cu
  Cu5      1.0000 0.50000  0.68227  0.25000  Biso   1.000  Cu
  Cu6      1.0000 0.00000  0.18227  0.25000  Biso   1.000  Cu
  Cu7      1.0000 0.50000  0.31773  0.75000  Biso   1.000  Cu
  Cu8      1.0000 0.00000  0.81773  0.75000  Biso   1.000  Cu
  Cl1      1.0000 0.58042  0.54715  0.33558  Biso   1.000  Cl
  Cl2      1.0000 0.08042  0.04715  0.33558  Biso   1.000  Cl
  Cl3      1.0000 0.41958  0.54715  0.16442  Biso   1.000  Cl
  Cl4      1.0000 0.91958  0.04715  0.16442  Biso   1.000  Cl
  Cl5      1.0000 0.41958  0.45285  0.66442  Biso   1.000  Cl
  Cl6      1.0000 0.91958  0.95285  0.66442  Biso   1.000  Cl
  Cl7      1.0000 0.58042  0.45285  0.83558  Biso   1.000  Cl
  Cl8      1.0000 0.08042  0.95285  0.83558  Biso   1.000  Cl
  Cl9      1.0000 0.48012  0.81808  0.35820  Biso   1.000  Cl
  Cl10     1.0000 0.98012  0.31808  0.35820  Biso   1.000  Cl
  Cl11     1.0000 0.51988  0.81808  0.14180  Biso   1.000  Cl
  Cl12     1.0000 0.01988  0.31808  0.14180  Biso   1.000  Cl
  Cl13     1.0000 0.51988  0.18192  0.64180  Biso   1.000  Cl
  Cl14     1.0000 0.01988  0.68192  0.64180  Biso   1.000  Cl
  Cl15     1.0000 0.48012  0.18192  0.85820  Biso   1.000  Cl
  Cl16     1.0000 0.98012  0.68192  0.85820  Biso   1.000  Cl
  O1       1.0000 0.47717  0.32728  0.47422  Biso   1.000  O
  O2       1.0000 0.97717  0.82728  0.47422  Biso   1.000  O
  O3       1.0000 0.52283  0.32728  0.02578  Biso   1.000  O
  O4       1.0000 0.02283  0.82728  0.02578  Biso   1.000  O
  O5       1.0000 0.52283  0.67272  0.52578  Biso   1.000  O
  O6       1.0000 0.02283  0.17272  0.52578  Biso   1.000  O
  O7       1.0000 0.47717  0.67272  0.97422  Biso   1.000  O
  O8       1.0000 0.97717  0.17272  0.97422  Biso   1.000  O
  N1       1.0000 0.30152  0.45953  0.41560  Biso   1.000  N
  N2       1.0000 0.80152  0.95953  0.41560  Biso   1.000  N
  N3       1.0000 0.69848  0.45953  0.08440  Biso   1.000  N
  N4       1.0000 0.19848  0.95953  0.08440  Biso   1.000  N
  N5       1.0000 0.69848  0.54047  0.58440  Biso   1.000  N
  N6       1.0000 0.19848  0.04047  0.58440  Biso   1.000  N
  N7       1.0000 0.30152  0.54047  0.91560  Biso   1.000  N
  N8       1.0000 0.80152  0.04047  0.91560  Biso   1.000  N
  N9       1.0000 0.36130  0.53486  0.46405  Biso   1.000  N
  N10      1.0000 0.86130  0.03486  0.46405  Biso   1.000  N
  N11      1.0000 0.63870  0.53486  0.03595  Biso   1.000  N
  N12      1.0000 0.13870  0.03486  0.03595  Biso   1.000  N
  N13      1.0000 0.63870  0.46514  0.53595  Biso   1.000  N
  N14      1.0000 0.13870  0.96514  0.53595  Biso   1.000  N
  N15      1.0000 0.36130  0.46514  0.96405  Biso   1.000  N
  N16      1.0000 0.86130  0.96514  0.96405  Biso   1.000  N
  C1       1.0000 0.30124  0.60618  0.50648  Biso   1.000  C
  C2       1.0000 0.80124  0.10618  0.50648  Biso   1.000  C
  C3       1.0000 0.69876  0.60618  0.99352  Biso   1.000  C
  C4       1.0000 0.19876  0.10618  0.99352  Biso   1.000  C
  C5       1.0000 0.69876  0.39382  0.49352  Biso   1.000  C
  C6       1.0000 0.19876  0.89382  0.49352  Biso   1.000  C
  C7       1.0000 0.30124  0.39382  0.00648  Biso   1.000  C
  C8       1.0000 0.80124  0.89382  0.00648  Biso   1.000  C
  C9       1.0000 0.20341  0.57750  0.48523  Biso   1.000  C
  C10      1.0000 0.70341  0.07750  0.48523  Biso   1.000  C
  C11      1.0000 0.79659  0.57750  0.01477  Biso   1.000  C
  C12      1.0000 0.29659  0.07750  0.01477  Biso   1.000  C
  C13      1.0000 0.79659  0.42250  0.51477  Biso   1.000  C
  C14      1.0000 0.29659  0.92250  0.51477  Biso   1.000  C
  C15      1.0000 0.20341  0.42250  0.98523  Biso   1.000  C
  C16      1.0000 0.70341  0.92250  0.98523  Biso   1.000  C
  C17      1.0000 0.20556  0.48397  0.42704  Biso   1.000  C
  C18      1.0000 0.70556  0.98397  0.42704  Biso   1.000  C
  C19      1.0000 0.79444  0.48397  0.07296  Biso   1.000  C
  C20      1.0000 0.29444  0.98397  0.07296  Biso   1.000  C
  C21      1.0000 0.79444  0.51603  0.57296  Biso   1.000  C
  C22      1.0000 0.29444  0.01603  0.57296  Biso   1.000  C
  C23      1.0000 0.20556  0.51603  0.92704  Biso   1.000  C
  C24      1.0000 0.70556  0.01603  0.92704  Biso   1.000  C
  C25      1.0000 0.34444  0.36584  0.36242  Biso   1.000  C
  C26      1.0000 0.84444  0.86584  0.36242  Biso   1.000  C
  C27      1.0000 0.65556  0.36584  0.13758  Biso   1.000  C
  C28      1.0000 0.15556  0.86584  0.13758  Biso   1.000  C
  C29      1.0000 0.65556  0.63416  0.63758  Biso   1.000  C
  C30      1.0000 0.15556  0.13416  0.63758  Biso   1.000  C
  C31      1.0000 0.34444  0.63416  0.86242  Biso   1.000  C
  C32      1.0000 0.84444  0.13416  0.86242  Biso   1.000  C
  C33      1.0000 0.26363  0.30970  0.30047  Biso   1.000  C
  C34      1.0000 0.76363  0.80970  0.30047  Biso   1.000  C
  C35      1.0000 0.73637  0.30970  0.19953  Biso   1.000  C
  C36      1.0000 0.23637  0.80970  0.19953  Biso   1.000  C
  C37      1.0000 0.73637  0.69030  0.69953  Biso   1.000  C
  C38      1.0000 0.23637  0.19030  0.69953  Biso   1.000  C
  C39      1.0000 0.26363  0.69030  0.80047  Biso   1.000  C
  C40      1.0000 0.76363  0.19030  0.80047  Biso   1.000  C
  C41      1.0000 0.30571  0.21090  0.24573  Biso   1.000  C
  C42      1.0000 0.80571  0.71090  0.24573  Biso   1.000  C
  C43      1.0000 0.69429  0.21090  0.25427  Biso   1.000  C
  C44      1.0000 0.19429  0.71090  0.25427  Biso   1.000  C
  C45      1.0000 0.69429  0.78910  0.75427  Biso   1.000  C
  C46      1.0000 0.19429  0.28910  0.75427  Biso   1.000  C
  C47      1.0000 0.30571  0.78910  0.74573  Biso   1.000  C
  C48      1.0000 0.80571  0.28910  0.74573  Biso   1.000  C
  C49      1.0000 0.35540  0.11730  0.30489  Biso   1.000  C
  C50      1.0000 0.85540  0.61730  0.30489  Biso   1.000  C
  C51      1.0000 0.64460  0.11730  0.19511  Biso   1.000  C
  C52      1.0000 0.14460  0.61730  0.19511  Biso   1.000  C
  C53      1.0000 0.64460  0.88270  0.69511  Biso   1.000  C
  C54      1.0000 0.14460  0.38270  0.69511  Biso   1.000  C
  C55      1.0000 0.35540  0.88270  0.80489  Biso   1.000  C
  C56      1.0000 0.85540  0.38270  0.80489  Biso   1.000  C
  C57      1.0000 0.43446  0.17130  0.36947  Biso   1.000  C
  C58      1.0000 0.93446  0.67130  0.36947  Biso   1.000  C
  C59      1.0000 0.56554  0.17130  0.13053  Biso   1.000  C
  C60      1.0000 0.06554  0.67130  0.13053  Biso   1.000  C
  C61      1.0000 0.56554  0.82870  0.63053  Biso   1.000  C
  C62      1.0000 0.06554  0.32870  0.63053  Biso   1.000  C
  C63      1.0000 0.43446  0.82870  0.86947  Biso   1.000  C
  C64      1.0000 0.93446  0.32870  0.86947  Biso   1.000  C
  C65      1.0000 0.39485  0.27290  0.42289  Biso   1.000  C
  C66      1.0000 0.89485  0.77290  0.42289  Biso   1.000  C
  C67      1.0000 0.60515  0.27290  0.07711  Biso   1.000  C
  C68      1.0000 0.10515  0.77290  0.07711  Biso   1.000  C
  C69      1.0000 0.60515  0.72710  0.57711  Biso   1.000  C
  C70      1.0000 0.10515  0.22710  0.57711  Biso   1.000  C
  C71      1.0000 0.39485  0.72710  0.92289  Biso   1.000  C
  C72      1.0000 0.89485  0.22710  0.92289  Biso   1.000  C
  H1       1.0000 0.32830  0.66200  0.54290  Biso   1.000  H
  H2       1.0000 0.82830  0.16200  0.54290  Biso   1.000  H
  H3       1.0000 0.67170  0.66200  0.95710  Biso   1.000  H
  H4       1.0000 0.17170  0.16200  0.95710  Biso   1.000  H
  H5       1.0000 0.67170  0.33800  0.45710  Biso   1.000  H
  H6       1.0000 0.17170  0.83800  0.45710  Biso   1.000  H
  H7       1.0000 0.32830  0.33800  0.04290  Biso   1.000  H
  H8       1.0000 0.82830  0.83800  0.04290  Biso   1.000  H
  H9       1.0000 0.15180  0.60970  0.50970  Biso   1.000  H
  H10      1.0000 0.65180  0.10970  0.50970  Biso   1.000  H
  H11      1.0000 0.84820  0.60970  0.99030  Biso   1.000  H
  H12      1.0000 0.34820  0.10970  0.99030  Biso   1.000  H
  H13      1.0000 0.84820  0.39030  0.49030  Biso   1.000  H
  H14      1.0000 0.34820  0.89030  0.49030  Biso   1.000  H
  H15      1.0000 0.15180  0.39030  0.00970  Biso   1.000  H
  H16      1.0000 0.65180  0.89030  0.00970  Biso   1.000  H
  H17      1.0000 0.15510  0.44320  0.39790  Biso   1.000  H
  H18      1.0000 0.65510  0.94320  0.39790  Biso   1.000  H
  H19      1.0000 0.84490  0.44320  0.10210  Biso   1.000  H
  H20      1.0000 0.34490  0.94320  0.10210  Biso   1.000  H
  H21      1.0000 0.84490  0.55680  0.60210  Biso   1.000  H
  H22      1.0000 0.34490  0.05680  0.60210  Biso   1.000  H
  H23      1.0000 0.15510  0.55680  0.89790  Biso   1.000  H
  H24      1.0000 0.65510  0.05680  0.89790  Biso   1.000  H
  H25      1.0000 0.39330  0.40040  0.32820  Biso   1.000  H
  H26      1.0000 0.89330  0.90040  0.32820  Biso   1.000  H
  H27      1.0000 0.60670  0.40040  0.17180  Biso   1.000  H
  H28      1.0000 0.10670  0.90040  0.17180  Biso   1.000  H
  H29      1.0000 0.60670  0.59960  0.67180  Biso   1.000  H
  H30      1.0000 0.10670  0.09960  0.67180  Biso   1.000  H
  H31      1.0000 0.39330  0.59960  0.82820  Biso   1.000  H
  H32      1.0000 0.89330  0.09960  0.82820  Biso   1.000  H
  H33      1.0000 0.23420  0.36860  0.26470  Biso   1.000  H
  H34      1.0000 0.73420  0.86860  0.26470  Biso   1.000  H
  H35      1.0000 0.76580  0.36860  0.23530  Biso   1.000  H
  H36      1.0000 0.26580  0.86860  0.23530  Biso   1.000  H
  H37      1.0000 0.76580  0.63140  0.73530  Biso   1.000  H
  H38      1.0000 0.26580  0.13140  0.73530  Biso   1.000  H
  H39      1.0000 0.23420  0.63140  0.76470  Biso   1.000  H
  H40      1.0000 0.73420  0.13140  0.76470  Biso   1.000  H
  H41      1.0000 0.21340  0.27530  0.33440  Biso   1.000  H
  H42      1.0000 0.71340  0.77530  0.33440  Biso   1.000  H
  H43      1.0000 0.78660  0.27530  0.16560  Biso   1.000  H
  H44      1.0000 0.28660  0.77530  0.16560  Biso   1.000  H
  H45      1.0000 0.78660  0.72470  0.66560  Biso   1.000  H
  H46      1.0000 0.28660  0.22470  0.66560  Biso   1.000  H
  H47      1.0000 0.21340  0.72470  0.83440  Biso   1.000  H
  H48      1.0000 0.71340  0.22470  0.83440  Biso   1.000  H
  H49      1.0000 0.25690  0.17480  0.21260  Biso   1.000  H
  H50      1.0000 0.75690  0.67480  0.21260  Biso   1.000  H
  H51      1.0000 0.74310  0.17480  0.28740  Biso   1.000  H
  H52      1.0000 0.24310  0.67480  0.28740  Biso   1.000  H
  H53      1.0000 0.74310  0.82520  0.78740  Biso   1.000  H
  H54      1.0000 0.24310  0.32520  0.78740  Biso   1.000  H
  H55      1.0000 0.25690  0.82520  0.71260  Biso   1.000  H
  H56      1.0000 0.75690  0.32520  0.71260  Biso   1.000  H
  H57      1.0000 0.35290  0.24060  0.20980  Biso   1.000  H
  H58      1.0000 0.85290  0.74060  0.20980  Biso   1.000  H
  H59      1.0000 0.64710  0.24060  0.29020  Biso   1.000  H
  H60      1.0000 0.14710  0.74060  0.29020  Biso   1.000  H
  H61      1.0000 0.64710  0.75940  0.79020  Biso   1.000  H
  H62      1.0000 0.14710  0.25940  0.79020  Biso   1.000  H
  H63      1.0000 0.35290  0.75940  0.70980  Biso   1.000  H
  H64      1.0000 0.85290  0.25940  0.70980  Biso   1.000  H
  H65      1.0000 0.30940  0.08440  0.33780  Biso   1.000  H
  H66      1.0000 0.80940  0.58440  0.33780  Biso   1.000  H
  H67      1.0000 0.69060  0.08440  0.16220  Biso   1.000  H
  H68      1.0000 0.19060  0.58440  0.16220  Biso   1.000  H
  H69      1.0000 0.69060  0.91560  0.66220  Biso   1.000  H
  H70      1.0000 0.19060  0.41560  0.66220  Biso   1.000  H
  H71      1.0000 0.30940  0.91560  0.83780  Biso   1.000  H
  H72      1.0000 0.80940  0.41560  0.83780  Biso   1.000  H
  H73      1.0000 0.38540  0.05380  0.27110  Biso   1.000  H
  H74      1.0000 0.88540  0.55380  0.27110  Biso   1.000  H
  H75      1.0000 0.61460  0.05380  0.22890  Biso   1.000  H
  H76      1.0000 0.11460  0.55380  0.22890  Biso   1.000  H
  H77      1.0000 0.61460  0.94620  0.72890  Biso   1.000  H
  H78      1.0000 0.11460  0.44620  0.72890  Biso   1.000  H
  H79      1.0000 0.38540  0.94620  0.77110  Biso   1.000  H
  H80      1.0000 0.88540  0.44620  0.77110  Biso   1.000  H
  H81      1.0000 0.48780  0.20490  0.33850  Biso   1.000  H
  H82      1.0000 0.98780  0.70490  0.33850  Biso   1.000  H
  H83      1.0000 0.51220  0.20490  0.16150  Biso   1.000  H
  H84      1.0000 0.01220  0.70490  0.16150  Biso   1.000  H
  H85      1.0000 0.51220  0.79510  0.66150  Biso   1.000  H
  H86      1.0000 0.01220  0.29510  0.66150  Biso   1.000  H
  H87      1.0000 0.48780  0.79510  0.83850  Biso   1.000  H
  H88      1.0000 0.98780  0.29510  0.83850  Biso   1.000  H
  H89      1.0000 0.45970  0.11400  0.41170  Biso   1.000  H
  H90      1.0000 0.95970  0.61400  0.41170  Biso   1.000  H
  H91      1.0000 0.54030  0.11400  0.08830  Biso   1.000  H
  H92      1.0000 0.04030  0.61400  0.08830  Biso   1.000  H
  H93      1.0000 0.54030  0.88600  0.58830  Biso   1.000  H
  H94      1.0000 0.04030  0.38600  0.58830  Biso   1.000  H
  H95      1.0000 0.45970  0.88600  0.91170  Biso   1.000  H
  H96      1.0000 0.95970  0.38600  0.91170  Biso   1.000  H
  H97      1.0000 0.34640  0.24380  0.46140  Biso   1.000  H
  H98      1.0000 0.84640  0.74380  0.46140  Biso   1.000  H
  H99      1.0000 0.65360  0.24380  0.03860  Biso   1.000  H
  H100     1.0000 0.15360  0.74380  0.03860  Biso   1.000  H
  H101     1.0000 0.65360  0.75620  0.53860  Biso   1.000  H
  H102     1.0000 0.15360  0.25620  0.53860  Biso   1.000  H
  H103     1.0000 0.34640  0.75620  0.96140  Biso   1.000  H
  H104     1.0000 0.84640  0.25620  0.96140  Biso   1.000  H
  H105     1.0000 0.48840  0.29390  0.51630  Biso   1.000  H
  H106     1.0000 0.98840  0.79390  0.51630  Biso   1.000  H
  H107     1.0000 0.51160  0.29390  0.98370  Biso   1.000  H
  H108     1.0000 0.01160  0.79390  0.98370  Biso   1.000  H
  H109     1.0000 0.51160  0.70610  0.48370  Biso   1.000  H
  H110     1.0000 0.01160  0.20610  0.48370  Biso   1.000  H
  H111     1.0000 0.48840  0.70610  0.01630  Biso   1.000  H
  H112     1.0000 0.98840  0.20610  0.01630  Biso   1.000  H
