data_image0
_cell_length_a       5.801
_cell_length_b       8.744
_cell_length_c       10.714
_cell_angle_alpha    87.02
_cell_angle_beta     79.45
_cell_angle_gamma    85.27

_symmetry_space_group_name_H-M    "P 1"
_symmetry_int_tables_number       1

loop_
  _symmetry_equiv_pos_as_xyz
  'x, y, z'

loop_
  _atom_site_label
  _atom_site_occupancy
  _atom_site_fract_x
  _atom_site_fract_y
  _atom_site_fract_z
  _atom_site_thermal_displace_type
  _atom_site_B_iso_or_equiv
  _atom_site_type_symbol
  H1       1.0000 0.71500  0.75000  0.14400  Biso   1.000  H
  H2       1.0000 0.28500  0.25000  0.85600  Biso   1.000  H
  Cu1      1.0000 0.00000  0.00000  0.00000  Biso   1.000  Cu
  O1       1.0000 0.86820  0.13940  0.13770  Biso   1.000  O
  O2       1.0000 0.13180  0.86060  0.86230  Biso   1.000  O
  O3       1.0000 0.70420  0.81020  0.07470  Biso   1.000  O
  O4       1.0000 0.29580  0.18980  0.92530  Biso   1.000  O
  O5       1.0000 0.49400  0.43350  0.36140  Biso   1.000  O
  O6       1.0000 0.50600  0.56650  0.63860  Biso   1.000  O
  O7       1.0000 0.70410  0.45000  0.17250  Biso   1.000  O
  O8       1.0000 0.29590  0.55000  0.82750  Biso   1.000  O
  O9       1.0000 0.07550  0.34470  0.65340  Biso   1.000  O
  O10      1.0000 0.92450  0.65530  0.34660  Biso   1.000  O
  O11      1.0000 0.34530  0.16290  0.61200  Biso   1.000  O
  O12      1.0000 0.65470  0.83710  0.38800  Biso   1.000  O
  N1       1.0000 0.19360  0.88060  0.11410  Biso   1.000  N
  N2       1.0000 0.80640  0.11940  0.88590  Biso   1.000  N
  N3       1.0000 0.66500  0.39590  0.28070  Biso   1.000  N
  N4       1.0000 0.33500  0.60410  0.71930  Biso   1.000  N
  N5       1.0000 0.17710  0.24330  0.58480  Biso   1.000  N
  N6       1.0000 0.82290  0.75670  0.41520  Biso   1.000  N
  C1       1.0000 0.22600  0.92640  0.22080  Biso   1.000  C
  C2       1.0000 0.77400  0.07360  0.77920  Biso   1.000  C
  H3       1.0000 0.32750  0.86330  0.26220  Biso   1.000  H
  H4       1.0000 0.67250  0.13670  0.73780  Biso   1.000  H
  C3       1.0000 0.12440  0.06410  0.28450  Biso   1.000  C
  C4       1.0000 0.87560  0.93590  0.71550  Biso   1.000  C
  C5       1.0000 0.94300  0.16070  0.23930  Biso   1.000  C
  C6       1.0000 0.05700  0.83930  0.76070  Biso   1.000  C
  C7       1.0000 0.84600  0.28470  0.32100  Biso   1.000  C
  C8       1.0000 0.15400  0.71530  0.67900  Biso   1.000  C
  C9       1.0000 0.91360  0.30760  0.43370  Biso   1.000  C
  C10      1.0000 0.08640  0.69240  0.56630  Biso   1.000  C
  H5       1.0000 0.83690  0.38500  0.48570  Biso   1.000  H
  H6       1.0000 0.16310  0.61500  0.51430  Biso   1.000  H
  C11      1.0000 0.09660  0.21540  0.47010  Biso   1.000  C
  C12      1.0000 0.90340  0.78460  0.52990  Biso   1.000  C
  C13      1.0000 0.19800  0.09330  0.39640  Biso   1.000  C
  C14      1.0000 0.80200  0.90670  0.60360  Biso   1.000  C
  H7       1.0000 0.31790  0.02960  0.42270  Biso   1.000  H
  H8       1.0000 0.68210  0.97040  0.57730  Biso   1.000  H
  C15      1.0000 0.31290  0.73010  0.07690  Biso   1.000  C
  C16      1.0000 0.68710  0.26990  0.92310  Biso   1.000  C
  H9       1.0000 0.22080  0.67970  0.02650  Biso   1.000  H
  H10      1.0000 0.77920  0.32030  0.97350  Biso   1.000  H
  H11      1.0000 0.32400  0.66590  0.15250  Biso   1.000  H
  H12      1.0000 0.67600  0.33410  0.84750  Biso   1.000  H
  C17      1.0000 0.55590  0.74740  0.00130  Biso   1.000  C
  C18      1.0000 0.44410  0.25260  0.99870  Biso   1.000  C
  H13      1.0000 0.62500  0.64780  0.97230  Biso   1.000  H
  H14      1.0000 0.37500  0.35220  0.02770  Biso   1.000  H
  H15      1.0000 0.54480  0.81400  0.92700  Biso   1.000  H
  H16      1.0000 0.45520  0.18600  0.07300  Biso   1.000  H
