data_image0
_cell_length_a       8.8581
_cell_length_b       13.7369
_cell_length_c       13.1149
_cell_angle_alpha    90
_cell_angle_beta     105.246
_cell_angle_gamma    90

_symmetry_space_group_name_H-M    "P 1"
_symmetry_int_tables_number       1

loop_
  _symmetry_equiv_pos_as_xyz
  'x, y, z'

loop_
  _atom_site_label
  _atom_site_occupancy
  _atom_site_fract_x
  _atom_site_fract_y
  _atom_site_fract_z
  _atom_site_thermal_displace_type
  _atom_site_B_iso_or_equiv
  _atom_site_type_symbol
  Fe1      1.0000 0.76573  0.53421  0.24205  Biso   1.000  Fe
  Fe2      1.0000 0.23427  0.03421  0.75795  Biso   1.000  Fe
  Cu1      1.0000 0.50467  0.65266  0.47576  Biso   1.000  Cu
  Cu2      1.0000 0.49533  0.15266  0.52424  Biso   1.000  Cu
  Cu3      1.0000 0.00354  0.39305  0.98578  Biso   1.000  Cu
  Cu4      1.0000 0.99646  0.89305  0.01422  Biso   1.000  Cu
  C1       1.0000 0.61280  0.43390  0.23390  Biso   1.000  C
  C2       1.0000 0.38720  0.93390  0.76610  Biso   1.000  C
  C3       1.0000 0.68120  0.56350  0.09720  Biso   1.000  C
  C4       1.0000 0.31880  0.06350  0.90280  Biso   1.000  C
  C5       1.0000 0.90780  0.44370  0.20530  Biso   1.000  C
  C6       1.0000 0.09220  0.94370  0.79470  Biso   1.000  C
  C7       1.0000 0.90710  0.64170  0.25440  Biso   1.000  C
  C8       1.0000 0.09290  0.14170  0.74560  Biso   1.000  C
  C9       1.0000 0.85700  0.51020  0.38990  Biso   1.000  C
  C10      1.0000 0.14300  0.01020  0.61010  Biso   1.000  C
  C11      1.0000 0.62010  0.62270  0.27460  Biso   1.000  C
  C12      1.0000 0.37990  0.12270  0.72540  Biso   1.000  C
  N1       1.0000 0.51150  0.37670  0.22630  Biso   1.000  N
  N2       1.0000 0.48850  0.87670  0.77370  Biso   1.000  N
  N3       1.0000 0.63420  0.58270  0.00750  Biso   1.000  N
  N4       1.0000 0.36580  0.08270  0.99250  Biso   1.000  N
  N5       1.0000 0.99140  0.38530  0.18260  Biso   1.000  N
  N6       1.0000 0.00860  0.88530  0.81740  Biso   1.000  N
  N7       1.0000 0.98840  0.70880  0.26530  Biso   1.000  N
  N8       1.0000 0.01160  0.20880  0.73470  Biso   1.000  N
  N9       1.0000 0.91120  0.49910  0.47760  Biso   1.000  N
  N10      1.0000 0.08880  0.99910  0.52240  Biso   1.000  N
  N11      1.0000 0.53180  0.67510  0.29740  Biso   1.000  N
  N12      1.0000 0.46820  0.17510  0.70260  Biso   1.000  N
  C13      1.0000 0.74670  0.79620  0.52530  Biso   1.000  C
  C14      1.0000 0.25330  0.29620  0.47470  Biso   1.000  C
  H1       1.0000 0.75560  0.80870  0.45430  Biso   1.000  H
  H2       1.0000 0.24440  0.30870  0.54570  Biso   1.000  H
  H3       1.0000 0.84050  0.82020  0.57520  Biso   1.000  H
  H4       1.0000 0.15950  0.32020  0.42480  Biso   1.000  H
  C15      1.0000 0.60250  0.84760  0.54270  Biso   1.000  C
  C16      1.0000 0.39750  0.34760  0.45730  Biso   1.000  C
  H5       1.0000 0.60320  0.84000  0.61710  Biso   1.000  H
  H6       1.0000 0.39680  0.34000  0.38290  Biso   1.000  H
  C17      1.0000 0.73240  0.00980  0.60050  Biso   1.000  C
  C18      1.0000 0.26760  0.50980  0.39950  Biso   1.000  C
  H7       1.0000 0.71640  0.00180  0.67040  Biso   1.000  H
  H8       1.0000 0.28360  0.50180  0.32960  Biso   1.000  H
  H9       1.0000 0.83450  0.98380  0.60120  Biso   1.000  H
  H10      1.0000 0.16550  0.48380  0.39880  Biso   1.000  H
  C19      1.0000 0.60470  0.95630  0.51850  Biso   1.000  C
  C20      1.0000 0.39530  0.45630  0.48150  Biso   1.000  C
  H11      1.0000 0.62420  0.96450  0.44890  Biso   1.000  H
  H12      1.0000 0.37580  0.46450  0.55110  Biso   1.000  H
  C21      1.0000 0.24650  0.53770  0.02080  Biso   1.000  C
  C22      1.0000 0.75350  0.03770  0.97920  Biso   1.000  C
  H13      1.0000 0.25660  0.55270  0.95060  Biso   1.000  H
  H14      1.0000 0.74340  0.05270  0.04940  Biso   1.000  H
  H15      1.0000 0.34000  0.56050  0.07190  Biso   1.000  H
  H16      1.0000 0.66000  0.06050  0.92810  Biso   1.000  H
  C23      1.0000 0.10300  0.58870  0.03890  Biso   1.000  C
  C24      1.0000 0.89700  0.08870  0.96110  Biso   1.000  C
  H17      1.0000 0.10380  0.58050  0.11330  Biso   1.000  H
  H18      1.0000 0.89620  0.08050  0.88670  Biso   1.000  H
  C25      1.0000 0.23410  0.75080  0.09270  Biso   1.000  C
  C26      1.0000 0.76590  0.25080  0.90730  Biso   1.000  C
  H19      1.0000 0.22240  0.74480  0.16390  Biso   1.000  H
  H20      1.0000 0.77760  0.24480  0.83610  Biso   1.000  H
  H21      1.0000 0.33480  0.72390  0.09120  Biso   1.000  H
  H22      1.0000 0.66520  0.22390  0.90880  Biso   1.000  H
  C27      1.0000 0.10320  0.69760  0.01520  Biso   1.000  C
  C28      1.0000 0.89680  0.19760  0.98480  Biso   1.000  C
  H23      1.0000 0.12000  0.70510  0.94460  Biso   1.000  H
  H24      1.0000 0.88000  0.20510  0.05540  Biso   1.000  H
  N13      1.0000 0.72920  0.68990  0.54080  Biso   1.000  N
  N14      1.0000 0.27080  0.18990  0.45920  Biso   1.000  N
  H25      1.0000 0.75600  0.67570  0.61020  Biso   1.000  H
  H26      1.0000 0.24400  0.17570  0.38980  Biso   1.000  H
  H27      1.0000 0.79240  0.65640  0.50990  Biso   1.000  H
  H28      1.0000 0.20760  0.15640  0.49010  Biso   1.000  H
  N15      1.0000 0.46270  0.79660  0.47690  Biso   1.000  N
  N16      1.0000 0.53730  0.29660  0.52310  Biso   1.000  N
  H29      1.0000 0.43970  0.81980  0.41050  Biso   1.000  H
  H30      1.0000 0.56030  0.31980  0.58950  Biso   1.000  H
  H31      1.0000 0.38010  0.80750  0.50330  Biso   1.000  H
  H32      1.0000 0.61990  0.30750  0.49670  Biso   1.000  H
  N17      1.0000 0.72360  0.11350  0.57130  Biso   1.000  N
  N18      1.0000 0.27640  0.61350  0.42870  Biso   1.000  N
  H33      1.0000 0.76950  0.12340  0.51850  Biso   1.000  H
  H34      1.0000 0.23050  0.62340  0.48150  Biso   1.000  H
  H35      1.0000 0.77390  0.14970  0.62710  Biso   1.000  H
  H36      1.0000 0.22610  0.64970  0.37290  Biso   1.000  H
  N19      1.0000 0.45670  0.00740  0.51900  Biso   1.000  N
  N20      1.0000 0.54330  0.50740  0.48100  Biso   1.000  N
  H37      1.0000 0.42440  0.98880  0.57560  Biso   1.000  H
  H38      1.0000 0.57560  0.48880  0.42440  Biso   1.000  H
  H39      1.0000 0.38160  0.99210  0.46030  Biso   1.000  H
  H40      1.0000 0.61840  0.49210  0.53970  Biso   1.000  H
  N21      1.0000 0.22970  0.43170  0.03190  Biso   1.000  N
  N22      1.0000 0.77030  0.93170  0.96810  Biso   1.000  N
  H41      1.0000 0.27010  0.41440  0.09980  Biso   1.000  H
  H42      1.0000 0.72990  0.91440  0.90020  Biso   1.000  H
  H43      1.0000 0.28310  0.40020  0.99230  Biso   1.000  H
  H44      1.0000 0.71690  0.90020  0.00770  Biso   1.000  H
  N23      1.0000 0.96420  0.53780  0.97310  Biso   1.000  N
  N24      1.0000 0.03580  0.03780  0.02690  Biso   1.000  N
  H45      1.0000 0.94700  0.55640  0.90520  Biso   1.000  H
  H46      1.0000 0.05300  0.05640  0.09480  Biso   1.000  H
  H47      1.0000 0.87910  0.55290  0.99520  Biso   1.000  H
  H48      1.0000 0.12090  0.05290  0.00480  Biso   1.000  H
  N25      1.0000 0.22350  0.85500  0.05950  Biso   1.000  N
  N26      1.0000 0.77650  0.35500  0.94050  Biso   1.000  N
  H49      1.0000 0.26750  0.86310  0.00560  Biso   1.000  H
  H50      1.0000 0.73250  0.36310  0.99440  Biso   1.000  H
  H51      1.0000 0.27480  0.89270  0.11370  Biso   1.000  H
  H52      1.0000 0.72520  0.39270  0.88630  Biso   1.000  H
  N27      1.0000 0.95600  0.74820  0.01530  Biso   1.000  N
  N28      1.0000 0.04400  0.24820  0.98470  Biso   1.000  N
  H53      1.0000 0.92540  0.73190  0.07320  Biso   1.000  H
  H54      1.0000 0.07460  0.23190  0.92680  Biso   1.000  H
  H55      1.0000 0.87980  0.73120  0.95780  Biso   1.000  H
  H56      1.0000 0.12020  0.23120  0.04220  Biso   1.000  H
  N29      1.0000 0.47290  0.66710  0.67350  Biso   1.000  N
  N30      1.0000 0.52710  0.16710  0.32650  Biso   1.000  N
  H57      1.0000 0.51760  0.61590  0.71120  Biso   1.000  H
  H58      1.0000 0.48240  0.11590  0.28880  Biso   1.000  H
  H59      1.0000 0.37170  0.66870  0.67150  Biso   1.000  H
  H60      1.0000 0.62830  0.16870  0.32850  Biso   1.000  H
  H61      1.0000 0.51890  0.72140  0.70330  Biso   1.000  H
  H62      1.0000 0.48110  0.22140  0.29670  Biso   1.000  H
  O1       1.0000 0.85490  0.22890  0.31760  Biso   1.000  O
  O2       1.0000 0.14510  0.72890  0.68240  Biso   1.000  O
  O3       1.0000 0.62280  0.83510  0.14470  Biso   1.000  O
  O4       1.0000 0.37720  0.33510  0.85530  Biso   1.000  O
  O5       1.0000 0.51360  0.50930  0.80910  Biso   1.000  O
  O6       1.0000 0.48640  0.00930  0.19090  Biso   1.000  O
  O7       1.0000 0.88680  0.29800  0.52400  Biso   1.000  O
  O8       1.0000 0.11320  0.79800  0.47600  Biso   1.000  O
  O9       1.0000 0.85610  0.02670  0.33240  Biso   1.000  O
  O10      1.0000 0.14390  0.52670  0.66760  Biso   1.000  O
  O11      1.0000 0.70630  0.44450  0.69100  Biso   1.000  O
  O12      1.0000 0.29370  0.94450  0.30900  Biso   1.000  O
  N31      1.0000 0.01500  0.40770  0.79310  Biso   1.000  N
  N32      1.0000 0.98500  0.90770  0.20690  Biso   1.000  N
  H63      1.0000 0.11240  0.39700  0.78930  Biso   1.000  H
  H64      1.0000 0.88760  0.89700  0.21070  Biso   1.000  H
  H65      1.0000 0.98530  0.46720  0.76930  Biso   1.000  H
  H66      1.0000 0.01470  0.96720  0.23070  Biso   1.000  H
  H67      1.0000 0.95120  0.36390  0.75390  Biso   1.000  H
  H68      1.0000 0.04880  0.86390  0.24610  Biso   1.000  H
  O13      1.0000 0.46770  0.76340  0.95070  Biso   1.000  O
  O14      1.0000 0.53230  0.26340  0.04930  Biso   1.000  O
  O15      1.0000 0.20490  0.21850  0.20870  Biso   1.000  O
  O16      1.0000 0.79510  0.71850  0.79130  Biso   1.000  O
