data_image0
_cell_length_a       18.3532
_cell_length_b       18.3532
_cell_length_c       40.667
_cell_angle_alpha    90
_cell_angle_beta     90
_cell_angle_gamma    120

_symmetry_space_group_name_H-M    "P 1"
_symmetry_int_tables_number       1

loop_
  _symmetry_equiv_pos_as_xyz
  'x, y, z'

loop_
  _atom_site_label
  _atom_site_occupancy
  _atom_site_fract_x
  _atom_site_fract_y
  _atom_site_fract_z
  _atom_site_thermal_displace_type
  _atom_site_B_iso_or_equiv
  _atom_site_type_symbol
  Cu1      1.0000 0.47568  0.95136  0.02559  Biso   1.000  Cu
  Cu2      1.0000 0.52432  0.47568  0.52559  Biso   1.000  Cu
  Cu3      1.0000 0.04864  0.52432  0.02559  Biso   1.000  Cu
  Cu4      1.0000 0.47568  0.52432  0.02559  Biso   1.000  Cu
  Cu5      1.0000 0.95136  0.47568  0.52559  Biso   1.000  Cu
  Cu6      1.0000 0.95136  0.47568  0.97441  Biso   1.000  Cu
  Cu7      1.0000 0.52432  0.04864  0.97441  Biso   1.000  Cu
  Cu8      1.0000 0.04864  0.52432  0.47441  Biso   1.000  Cu
  Cu9      1.0000 0.52432  0.47568  0.97441  Biso   1.000  Cu
  Cu10     1.0000 0.47568  0.95136  0.47441  Biso   1.000  Cu
  Cu11     1.0000 0.47568  0.52432  0.47441  Biso   1.000  Cu
  Cu12     1.0000 0.52432  0.04864  0.52559  Biso   1.000  Cu
  Cu13     1.0000 0.88530  0.94265  0.25000  Biso   1.000  Cu
  Cu14     1.0000 0.94265  0.88530  0.75000  Biso   1.000  Cu
  Cu15     1.0000 0.05735  0.94265  0.25000  Biso   1.000  Cu
  Cu16     1.0000 0.05735  0.11470  0.25000  Biso   1.000  Cu
  Cu17     1.0000 0.94265  0.05735  0.75000  Biso   1.000  Cu
  Cu18     1.0000 0.11470  0.05735  0.75000  Biso   1.000  Cu
  O1       1.0000 0.58730  0.02510  0.04367  Biso   1.000  O
  O2       1.0000 0.56220  0.58730  0.54367  Biso   1.000  O
  O3       1.0000 0.97490  0.56220  0.04367  Biso   1.000  O
  O4       1.0000 0.43780  0.41270  0.04367  Biso   1.000  O
  O5       1.0000 0.02510  0.43780  0.54367  Biso   1.000  O
  O6       1.0000 0.02510  0.58730  0.95633  Biso   1.000  O
  O7       1.0000 0.56220  0.97490  0.95633  Biso   1.000  O
  O8       1.0000 0.97490  0.41270  0.45633  Biso   1.000  O
  O9       1.0000 0.41270  0.43780  0.95633  Biso   1.000  O
  O10      1.0000 0.43780  0.02510  0.45633  Biso   1.000  O
  O11      1.0000 0.58730  0.56220  0.45633  Biso   1.000  O
  O12      1.0000 0.41270  0.97490  0.54367  Biso   1.000  O
  O13      1.0000 0.41270  0.97490  0.95633  Biso   1.000  O
  O14      1.0000 0.43780  0.41270  0.45633  Biso   1.000  O
  O15      1.0000 0.02510  0.43780  0.95633  Biso   1.000  O
  O16      1.0000 0.56220  0.58730  0.95633  Biso   1.000  O
  O17      1.0000 0.97490  0.56220  0.45633  Biso   1.000  O
  O18      1.0000 0.97490  0.41270  0.04367  Biso   1.000  O
  O19      1.0000 0.43780  0.02510  0.04367  Biso   1.000  O
  O20      1.0000 0.02510  0.58730  0.54367  Biso   1.000  O
  O21      1.0000 0.58730  0.56220  0.04367  Biso   1.000  O
  O22      1.0000 0.56220  0.97490  0.54367  Biso   1.000  O
  O23      1.0000 0.41270  0.43780  0.54367  Biso   1.000  O
  O24      1.0000 0.58730  0.02510  0.45633  Biso   1.000  O
  O25      1.0000 0.57530  0.42470  0.56540  Biso   1.000  O
  O26      1.0000 0.15060  0.57530  0.06540  Biso   1.000  O
  O27      1.0000 0.57530  0.15060  0.56540  Biso   1.000  O
  O28      1.0000 0.84940  0.42470  0.56540  Biso   1.000  O
  O29      1.0000 0.42470  0.84940  0.06540  Biso   1.000  O
  O30      1.0000 0.42470  0.57530  0.43460  Biso   1.000  O
  O31      1.0000 0.15060  0.57530  0.43460  Biso   1.000  O
  O32      1.0000 0.57530  0.42470  0.93460  Biso   1.000  O
  O33      1.0000 0.42470  0.84940  0.43460  Biso   1.000  O
  O34      1.0000 0.84940  0.42470  0.93460  Biso   1.000  O
  O35      1.0000 0.57530  0.15060  0.93460  Biso   1.000  O
  O36      1.0000 0.42470  0.57530  0.06540  Biso   1.000  O
  O37      1.0000 0.62914  0.10936  0.99942  Biso   1.000  O
  O38      1.0000 0.51978  0.62914  0.49942  Biso   1.000  O
  O39      1.0000 0.89064  0.51978  0.99942  Biso   1.000  O
  O40      1.0000 0.48022  0.37086  0.99942  Biso   1.000  O
  O41      1.0000 0.10936  0.48022  0.49942  Biso   1.000  O
  O42      1.0000 0.10936  0.62914  0.00058  Biso   1.000  O
  O43      1.0000 0.51978  0.89064  0.00058  Biso   1.000  O
  O44      1.0000 0.89064  0.37086  0.50058  Biso   1.000  O
  O45      1.0000 0.37086  0.48022  0.00058  Biso   1.000  O
  O46      1.0000 0.48022  0.10936  0.50058  Biso   1.000  O
  O47      1.0000 0.62914  0.51978  0.50058  Biso   1.000  O
  O48      1.0000 0.37086  0.89064  0.49942  Biso   1.000  O
  O49      1.0000 0.37086  0.89064  0.00058  Biso   1.000  O
  O50      1.0000 0.48022  0.37086  0.50058  Biso   1.000  O
  O51      1.0000 0.10936  0.48022  0.00058  Biso   1.000  O
  O52      1.0000 0.51978  0.62914  0.00058  Biso   1.000  O
  O53      1.0000 0.89064  0.51978  0.50058  Biso   1.000  O
  O54      1.0000 0.89064  0.37086  0.99942  Biso   1.000  O
  O55      1.0000 0.48022  0.10936  0.99942  Biso   1.000  O
  O56      1.0000 0.10936  0.62914  0.49942  Biso   1.000  O
  O57      1.0000 0.62914  0.51978  0.99942  Biso   1.000  O
  O58      1.0000 0.51978  0.89064  0.49942  Biso   1.000  O
  O59      1.0000 0.37086  0.48022  0.49942  Biso   1.000  O
  O60      1.0000 0.62914  0.10936  0.50058  Biso   1.000  O
  O61      1.0000 0.89130  0.00000  0.21120  Biso   1.000  O
  O62      1.0000 0.89130  0.89130  0.71120  Biso   1.000  O
  O63      1.0000 0.00000  0.89130  0.21120  Biso   1.000  O
  O64      1.0000 0.10870  0.10870  0.21120  Biso   1.000  O
  O65      1.0000 0.00000  0.10870  0.71120  Biso   1.000  O
  O66      1.0000 0.00000  0.89130  0.78880  Biso   1.000  O
  O67      1.0000 0.89130  0.00000  0.78880  Biso   1.000  O
  O68      1.0000 0.00000  0.10870  0.28880  Biso   1.000  O
  O69      1.0000 0.10870  0.10870  0.78880  Biso   1.000  O
  O70      1.0000 0.10870  0.00000  0.28880  Biso   1.000  O
  O71      1.0000 0.89130  0.89130  0.28880  Biso   1.000  O
  O72      1.0000 0.10870  0.00000  0.71120  Biso   1.000  O
  O73      1.0000 0.10870  0.00000  0.78880  Biso   1.000  O
  O74      1.0000 0.10870  0.10870  0.28880  Biso   1.000  O
  O75      1.0000 0.00000  0.10870  0.78880  Biso   1.000  O
  O76      1.0000 0.89130  0.89130  0.78880  Biso   1.000  O
  O77      1.0000 0.00000  0.89130  0.28880  Biso   1.000  O
  O78      1.0000 0.00000  0.10870  0.21120  Biso   1.000  O
  O79      1.0000 0.10870  0.00000  0.21120  Biso   1.000  O
  O80      1.0000 0.00000  0.89130  0.71120  Biso   1.000  O
  O81      1.0000 0.89130  0.89130  0.21120  Biso   1.000  O
  O82      1.0000 0.89130  0.00000  0.71120  Biso   1.000  O
  O83      1.0000 0.10870  0.10870  0.71120  Biso   1.000  O
  O84      1.0000 0.89130  0.00000  0.28880  Biso   1.000  O
  O85      1.0000 0.86490  0.84630  0.27850  Biso   1.000  O
  O86      1.0000 0.01860  0.86490  0.77850  Biso   1.000  O
  O87      1.0000 0.15370  0.01860  0.27850  Biso   1.000  O
  O88      1.0000 0.98140  0.13510  0.27850  Biso   1.000  O
  O89      1.0000 0.84630  0.98140  0.77850  Biso   1.000  O
  O90      1.0000 0.84630  0.86490  0.72150  Biso   1.000  O
  O91      1.0000 0.01860  0.15370  0.72150  Biso   1.000  O
  O92      1.0000 0.15370  0.13510  0.22150  Biso   1.000  O
  O93      1.0000 0.13510  0.98140  0.72150  Biso   1.000  O
  O94      1.0000 0.98140  0.84630  0.22150  Biso   1.000  O
  O95      1.0000 0.86490  0.01860  0.22150  Biso   1.000  O
  O96      1.0000 0.13510  0.15370  0.77850  Biso   1.000  O
  O97      1.0000 0.13510  0.15370  0.72150  Biso   1.000  O
  O98      1.0000 0.98140  0.13510  0.22150  Biso   1.000  O
  O99      1.0000 0.84630  0.98140  0.72150  Biso   1.000  O
  O100     1.0000 0.01860  0.86490  0.72150  Biso   1.000  O
  O101     1.0000 0.15370  0.01860  0.22150  Biso   1.000  O
  O102     1.0000 0.15370  0.13510  0.27850  Biso   1.000  O
  O103     1.0000 0.98140  0.84630  0.27850  Biso   1.000  O
  O104     1.0000 0.84630  0.86490  0.77850  Biso   1.000  O
  O105     1.0000 0.86490  0.01860  0.27850  Biso   1.000  O
  O106     1.0000 0.01860  0.15370  0.77850  Biso   1.000  O
  O107     1.0000 0.13510  0.98140  0.77850  Biso   1.000  O
  O108     1.0000 0.86490  0.84630  0.22150  Biso   1.000  O
  C1       1.0000 0.63980  0.08840  0.02845  Biso   1.000  C
  C2       1.0000 0.55140  0.63980  0.52845  Biso   1.000  C
  C3       1.0000 0.91160  0.55140  0.02845  Biso   1.000  C
  C4       1.0000 0.44860  0.36020  0.02845  Biso   1.000  C
  C5       1.0000 0.08840  0.44860  0.52845  Biso   1.000  C
  C6       1.0000 0.08840  0.63980  0.97155  Biso   1.000  C
  C7       1.0000 0.55140  0.91160  0.97155  Biso   1.000  C
  C8       1.0000 0.91160  0.36020  0.47155  Biso   1.000  C
  C9       1.0000 0.36020  0.44860  0.97155  Biso   1.000  C
  C10      1.0000 0.44860  0.08840  0.47155  Biso   1.000  C
  C11      1.0000 0.63980  0.55140  0.47155  Biso   1.000  C
  C12      1.0000 0.36020  0.91160  0.52845  Biso   1.000  C
  C13      1.0000 0.36020  0.91160  0.97155  Biso   1.000  C
  C14      1.0000 0.44860  0.36020  0.47155  Biso   1.000  C
  C15      1.0000 0.08840  0.44860  0.97155  Biso   1.000  C
  C16      1.0000 0.55140  0.63980  0.97155  Biso   1.000  C
  C17      1.0000 0.91160  0.55140  0.47155  Biso   1.000  C
  C18      1.0000 0.91160  0.36020  0.02845  Biso   1.000  C
  C19      1.0000 0.44860  0.08840  0.02845  Biso   1.000  C
  C20      1.0000 0.08840  0.63980  0.52845  Biso   1.000  C
  C21      1.0000 0.63980  0.55140  0.02845  Biso   1.000  C
  C22      1.0000 0.55140  0.91160  0.52845  Biso   1.000  C
  C23      1.0000 0.36020  0.44860  0.52845  Biso   1.000  C
  C24      1.0000 0.63980  0.08840  0.47155  Biso   1.000  C
  C25      1.0000 0.72230  0.14470  0.04314  Biso   1.000  C
  C26      1.0000 0.57760  0.72230  0.54314  Biso   1.000  C
  C27      1.0000 0.85530  0.57760  0.04314  Biso   1.000  C
  C28      1.0000 0.42240  0.27770  0.04314  Biso   1.000  C
  C29      1.0000 0.14470  0.42240  0.54314  Biso   1.000  C
  C30      1.0000 0.14470  0.72230  0.95686  Biso   1.000  C
  C31      1.0000 0.57760  0.85530  0.95686  Biso   1.000  C
  C32      1.0000 0.85530  0.27770  0.45686  Biso   1.000  C
  C33      1.0000 0.27770  0.42240  0.95686  Biso   1.000  C
  C34      1.0000 0.42240  0.14470  0.45686  Biso   1.000  C
  C35      1.0000 0.72230  0.57760  0.45686  Biso   1.000  C
  C36      1.0000 0.27770  0.85530  0.54314  Biso   1.000  C
  C37      1.0000 0.27770  0.85530  0.95686  Biso   1.000  C
  C38      1.0000 0.42240  0.27770  0.45686  Biso   1.000  C
  C39      1.0000 0.14470  0.42240  0.95686  Biso   1.000  C
  C40      1.0000 0.57760  0.72230  0.95686  Biso   1.000  C
  C41      1.0000 0.85530  0.57760  0.45686  Biso   1.000  C
  C42      1.0000 0.85530  0.27770  0.04314  Biso   1.000  C
  C43      1.0000 0.42240  0.14470  0.04314  Biso   1.000  C
  C44      1.0000 0.14470  0.72230  0.54314  Biso   1.000  C
  C45      1.0000 0.72230  0.57760  0.04314  Biso   1.000  C
  C46      1.0000 0.57760  0.85530  0.54314  Biso   1.000  C
  C47      1.0000 0.27770  0.42240  0.54314  Biso   1.000  C
  C48      1.0000 0.72230  0.14470  0.45686  Biso   1.000  C
  C49      1.0000 0.77850  0.22150  0.02923  Biso   1.000  C
  C50      1.0000 0.55700  0.77850  0.52923  Biso   1.000  C
  C51      1.0000 0.77850  0.55700  0.02923  Biso   1.000  C
  C52      1.0000 0.44300  0.22150  0.02923  Biso   1.000  C
  C53      1.0000 0.22150  0.44300  0.52923  Biso   1.000  C
  C54      1.0000 0.22150  0.77850  0.97077  Biso   1.000  C
  C55      1.0000 0.55700  0.77850  0.97077  Biso   1.000  C
  C56      1.0000 0.77850  0.22150  0.47077  Biso   1.000  C
  C57      1.0000 0.22150  0.44300  0.97077  Biso   1.000  C
  C58      1.0000 0.44300  0.22150  0.47077  Biso   1.000  C
  C59      1.0000 0.77850  0.55700  0.47077  Biso   1.000  C
  C60      1.0000 0.22150  0.77850  0.52923  Biso   1.000  C
  H1       1.0000 0.76390  0.23610  0.00940  Biso   1.000  H
  H2       1.0000 0.52780  0.76390  0.50940  Biso   1.000  H
  H3       1.0000 0.76390  0.52780  0.00940  Biso   1.000  H
  H4       1.0000 0.47220  0.23610  0.00940  Biso   1.000  H
  H5       1.0000 0.23610  0.47220  0.50940  Biso   1.000  H
  H6       1.0000 0.23610  0.76390  0.99060  Biso   1.000  H
  H7       1.0000 0.52780  0.76390  0.99060  Biso   1.000  H
  H8       1.0000 0.76390  0.23610  0.49060  Biso   1.000  H
  H9       1.0000 0.23610  0.47220  0.99060  Biso   1.000  H
  H10      1.0000 0.47220  0.23610  0.49060  Biso   1.000  H
  H11      1.0000 0.76390  0.52780  0.49060  Biso   1.000  H
  H12      1.0000 0.23610  0.76390  0.50940  Biso   1.000  H
  C61      1.0000 0.74540  0.12430  0.07198  Biso   1.000  C
  C62      1.0000 0.62110  0.74540  0.57198  Biso   1.000  C
  C63      1.0000 0.87570  0.62110  0.07198  Biso   1.000  C
  C64      1.0000 0.37890  0.25460  0.07198  Biso   1.000  C
  C65      1.0000 0.12430  0.37890  0.57198  Biso   1.000  C
  C66      1.0000 0.12430  0.74540  0.92802  Biso   1.000  C
  C67      1.0000 0.62110  0.87570  0.92802  Biso   1.000  C
  C68      1.0000 0.87570  0.25460  0.42802  Biso   1.000  C
  C69      1.0000 0.25460  0.37890  0.92802  Biso   1.000  C
  C70      1.0000 0.37890  0.12430  0.42802  Biso   1.000  C
  C71      1.0000 0.74540  0.62110  0.42802  Biso   1.000  C
  C72      1.0000 0.25460  0.87570  0.57198  Biso   1.000  C
  C73      1.0000 0.25460  0.87570  0.92802  Biso   1.000  C
  C74      1.0000 0.37890  0.25460  0.42802  Biso   1.000  C
  C75      1.0000 0.12430  0.37890  0.92802  Biso   1.000  C
  C76      1.0000 0.62110  0.74540  0.92802  Biso   1.000  C
  C77      1.0000 0.87570  0.62110  0.42802  Biso   1.000  C
  C78      1.0000 0.87570  0.25460  0.07198  Biso   1.000  C
  C79      1.0000 0.37890  0.12430  0.07198  Biso   1.000  C
  C80      1.0000 0.12430  0.74540  0.57198  Biso   1.000  C
  C81      1.0000 0.74540  0.62110  0.07198  Biso   1.000  C
  C82      1.0000 0.62110  0.87570  0.57198  Biso   1.000  C
  C83      1.0000 0.25460  0.37890  0.57198  Biso   1.000  C
  C84      1.0000 0.74540  0.12430  0.42802  Biso   1.000  C
  H13      1.0000 0.70910  0.07290  0.08180  Biso   1.000  H
  H14      1.0000 0.63620  0.70910  0.58180  Biso   1.000  H
  H15      1.0000 0.92710  0.63620  0.08180  Biso   1.000  H
  H16      1.0000 0.36380  0.29090  0.08180  Biso   1.000  H
  H17      1.0000 0.07290  0.36380  0.58180  Biso   1.000  H
  H18      1.0000 0.07290  0.70910  0.91820  Biso   1.000  H
  H19      1.0000 0.63620  0.92710  0.91820  Biso   1.000  H
  H20      1.0000 0.92710  0.29090  0.41820  Biso   1.000  H
  H21      1.0000 0.29090  0.36380  0.91820  Biso   1.000  H
  H22      1.0000 0.36380  0.07290  0.41820  Biso   1.000  H
  H23      1.0000 0.70910  0.63620  0.41820  Biso   1.000  H
  H24      1.0000 0.29090  0.92710  0.58180  Biso   1.000  H
  H25      1.0000 0.29090  0.92710  0.91820  Biso   1.000  H
  H26      1.0000 0.36380  0.29090  0.41820  Biso   1.000  H
  H27      1.0000 0.07290  0.36380  0.91820  Biso   1.000  H
  H28      1.0000 0.63620  0.70910  0.91820  Biso   1.000  H
  H29      1.0000 0.92710  0.63620  0.41820  Biso   1.000  H
  H30      1.0000 0.92710  0.29090  0.08180  Biso   1.000  H
  H31      1.0000 0.36380  0.07290  0.08180  Biso   1.000  H
  H32      1.0000 0.07290  0.70910  0.58180  Biso   1.000  H
  H33      1.0000 0.70910  0.63620  0.08180  Biso   1.000  H
  H34      1.0000 0.63620  0.92710  0.58180  Biso   1.000  H
  H35      1.0000 0.29090  0.36380  0.58180  Biso   1.000  H
  H36      1.0000 0.70910  0.07290  0.41820  Biso   1.000  H
  C85      1.0000 0.82190  0.17800  0.08720  Biso   1.000  C
  C86      1.0000 0.64390  0.82190  0.58720  Biso   1.000  C
  C87      1.0000 0.82200  0.64390  0.08720  Biso   1.000  C
  C88      1.0000 0.35610  0.17810  0.08720  Biso   1.000  C
  C89      1.0000 0.17800  0.35610  0.58720  Biso   1.000  C
  C90      1.0000 0.17800  0.82190  0.91280  Biso   1.000  C
  C91      1.0000 0.64390  0.82200  0.91280  Biso   1.000  C
  C92      1.0000 0.82200  0.17810  0.41280  Biso   1.000  C
  C93      1.0000 0.17810  0.35610  0.91280  Biso   1.000  C
  C94      1.0000 0.35610  0.17800  0.41280  Biso   1.000  C
  C95      1.0000 0.82190  0.64390  0.41280  Biso   1.000  C
  C96      1.0000 0.17810  0.82200  0.58720  Biso   1.000  C
  C97      1.0000 0.84790  0.15220  0.11840  Biso   1.000  C
  C98      1.0000 0.69570  0.84790  0.61840  Biso   1.000  C
  C99      1.0000 0.84780  0.69570  0.11840  Biso   1.000  C
  C100     1.0000 0.30430  0.15210  0.11840  Biso   1.000  C
  C101     1.0000 0.15220  0.30430  0.61840  Biso   1.000  C
  C102     1.0000 0.15220  0.84790  0.88160  Biso   1.000  C
  C103     1.0000 0.69570  0.84780  0.88160  Biso   1.000  C
  C104     1.0000 0.84780  0.15210  0.38160  Biso   1.000  C
  C105     1.0000 0.15210  0.30430  0.88160  Biso   1.000  C
  C106     1.0000 0.30430  0.15220  0.38160  Biso   1.000  C
  C107     1.0000 0.84790  0.69570  0.38160  Biso   1.000  C
  C108     1.0000 0.15210  0.84780  0.61840  Biso   1.000  C
  C109     1.0000 0.89740  0.10270  0.17540  Biso   1.000  C
  C110     1.0000 0.79470  0.89740  0.67540  Biso   1.000  C
  C111     1.0000 0.89730  0.79470  0.17540  Biso   1.000  C
  C112     1.0000 0.20530  0.10260  0.17540  Biso   1.000  C
  C113     1.0000 0.10270  0.20530  0.67540  Biso   1.000  C
  C114     1.0000 0.10270  0.89740  0.82460  Biso   1.000  C
  C115     1.0000 0.79470  0.89730  0.82460  Biso   1.000  C
  C116     1.0000 0.89730  0.10260  0.32460  Biso   1.000  C
  C117     1.0000 0.10260  0.20530  0.82460  Biso   1.000  C
  C118     1.0000 0.20530  0.10270  0.32460  Biso   1.000  C
  C119     1.0000 0.89740  0.79470  0.32460  Biso   1.000  C
  C120     1.0000 0.10260  0.89730  0.67540  Biso   1.000  C
  C121     1.0000 0.92440  0.07570  0.20480  Biso   1.000  C
  C122     1.0000 0.84870  0.92440  0.70480  Biso   1.000  C
  C123     1.0000 0.92430  0.84870  0.20480  Biso   1.000  C
  C124     1.0000 0.15130  0.07560  0.20480  Biso   1.000  C
  C125     1.0000 0.07570  0.15130  0.70480  Biso   1.000  C
  C126     1.0000 0.07570  0.92440  0.79520  Biso   1.000  C
  C127     1.0000 0.84870  0.92430  0.79520  Biso   1.000  C
  C128     1.0000 0.92430  0.07560  0.29520  Biso   1.000  C
  C129     1.0000 0.07560  0.15130  0.79520  Biso   1.000  C
  C130     1.0000 0.15130  0.07570  0.29520  Biso   1.000  C
  C131     1.0000 0.92440  0.84870  0.29520  Biso   1.000  C
  C132     1.0000 0.07560  0.92430  0.70480  Biso   1.000  C
  C133     1.0000 0.90080  0.68770  0.35830  Biso   1.000  C
  C134     1.0000 0.21310  0.90080  0.85830  Biso   1.000  C
  C135     1.0000 0.31230  0.21310  0.35830  Biso   1.000  C
  C136     1.0000 0.78690  0.09920  0.35830  Biso   1.000  C
  C137     1.0000 0.68770  0.78690  0.85830  Biso   1.000  C
  C138     1.0000 0.68770  0.90080  0.64170  Biso   1.000  C
  C139     1.0000 0.21310  0.31230  0.64170  Biso   1.000  C
  C140     1.0000 0.31230  0.09920  0.14170  Biso   1.000  C
  C141     1.0000 0.09920  0.78690  0.64170  Biso   1.000  C
  C142     1.0000 0.78690  0.68770  0.14170  Biso   1.000  C
  C143     1.0000 0.90080  0.21310  0.14170  Biso   1.000  C
  C144     1.0000 0.09920  0.31230  0.85830  Biso   1.000  C
  C145     1.0000 0.09920  0.31230  0.64170  Biso   1.000  C
  C146     1.0000 0.78690  0.09920  0.14170  Biso   1.000  C
  C147     1.0000 0.68770  0.78690  0.64170  Biso   1.000  C
  C148     1.0000 0.21310  0.90080  0.64170  Biso   1.000  C
  C149     1.0000 0.31230  0.21310  0.14170  Biso   1.000  C
  C150     1.0000 0.31230  0.09920  0.35830  Biso   1.000  C
  C151     1.0000 0.78690  0.68770  0.35830  Biso   1.000  C
  C152     1.0000 0.68770  0.90080  0.85830  Biso   1.000  C
  C153     1.0000 0.90080  0.21310  0.35830  Biso   1.000  C
  C154     1.0000 0.21310  0.31230  0.85830  Biso   1.000  C
  C155     1.0000 0.09920  0.78690  0.85830  Biso   1.000  C
  C156     1.0000 0.90080  0.68770  0.14170  Biso   1.000  C
  H37      1.0000 0.91880  0.64910  0.36170  Biso   1.000  H
  H38      1.0000 0.26970  0.91880  0.86170  Biso   1.000  H
  H39      1.0000 0.35090  0.26970  0.36170  Biso   1.000  H
  H40      1.0000 0.73030  0.08120  0.36170  Biso   1.000  H
  H41      1.0000 0.64910  0.73030  0.86170  Biso   1.000  H
  H42      1.0000 0.64910  0.91880  0.63830  Biso   1.000  H
  H43      1.0000 0.26970  0.35090  0.63830  Biso   1.000  H
  H44      1.0000 0.35090  0.08120  0.13830  Biso   1.000  H
  H45      1.0000 0.08120  0.73030  0.63830  Biso   1.000  H
  H46      1.0000 0.73030  0.64910  0.13830  Biso   1.000  H
  H47      1.0000 0.91880  0.26970  0.13830  Biso   1.000  H
  H48      1.0000 0.08120  0.35090  0.86170  Biso   1.000  H
  H49      1.0000 0.08120  0.35090  0.63830  Biso   1.000  H
  H50      1.0000 0.73030  0.08120  0.13830  Biso   1.000  H
  H51      1.0000 0.64910  0.73030  0.63830  Biso   1.000  H
  H52      1.0000 0.26970  0.91880  0.63830  Biso   1.000  H
  H53      1.0000 0.35090  0.26970  0.13830  Biso   1.000  H
  H54      1.0000 0.35090  0.08120  0.36170  Biso   1.000  H
  H55      1.0000 0.73030  0.64910  0.36170  Biso   1.000  H
  H56      1.0000 0.64910  0.91880  0.86170  Biso   1.000  H
  H57      1.0000 0.91880  0.26970  0.36170  Biso   1.000  H
  H58      1.0000 0.26970  0.35090  0.86170  Biso   1.000  H
  H59      1.0000 0.08120  0.73030  0.86170  Biso   1.000  H
  H60      1.0000 0.91880  0.64910  0.13830  Biso   1.000  H
  C157     1.0000 0.92640  0.74030  0.32940  Biso   1.000  C
  C158     1.0000 0.18610  0.92640  0.82940  Biso   1.000  C
  C159     1.0000 0.25970  0.18610  0.32940  Biso   1.000  C
  C160     1.0000 0.81390  0.07360  0.32940  Biso   1.000  C
  C161     1.0000 0.74030  0.81390  0.82940  Biso   1.000  C
  C162     1.0000 0.74030  0.92640  0.67060  Biso   1.000  C
  C163     1.0000 0.18610  0.25970  0.67060  Biso   1.000  C
  C164     1.0000 0.25970  0.07360  0.17060  Biso   1.000  C
  C165     1.0000 0.07360  0.81390  0.67060  Biso   1.000  C
  C166     1.0000 0.81390  0.74030  0.17060  Biso   1.000  C
  C167     1.0000 0.92640  0.18610  0.17060  Biso   1.000  C
  C168     1.0000 0.07360  0.25970  0.82940  Biso   1.000  C
  C169     1.0000 0.07360  0.25970  0.67060  Biso   1.000  C
  C170     1.0000 0.81390  0.07360  0.17060  Biso   1.000  C
  C171     1.0000 0.74030  0.81390  0.67060  Biso   1.000  C
  C172     1.0000 0.18610  0.92640  0.67060  Biso   1.000  C
  C173     1.0000 0.25970  0.18610  0.17060  Biso   1.000  C
  C174     1.0000 0.25970  0.07360  0.32940  Biso   1.000  C
  C175     1.0000 0.81390  0.74030  0.32940  Biso   1.000  C
  C176     1.0000 0.74030  0.92640  0.82940  Biso   1.000  C
  C177     1.0000 0.92640  0.18610  0.32940  Biso   1.000  C
  C178     1.0000 0.18610  0.25970  0.82940  Biso   1.000  C
  C179     1.0000 0.07360  0.81390  0.82940  Biso   1.000  C
  C180     1.0000 0.92640  0.74030  0.17060  Biso   1.000  C
  H61      1.0000 0.96250  0.73710  0.31420  Biso   1.000  H
  H62      1.0000 0.22540  0.96250  0.81420  Biso   1.000  H
  H63      1.0000 0.26290  0.22540  0.31420  Biso   1.000  H
  H64      1.0000 0.77460  0.03750  0.31420  Biso   1.000  H
  H65      1.0000 0.73710  0.77460  0.81420  Biso   1.000  H
  H66      1.0000 0.73710  0.96250  0.68580  Biso   1.000  H
  H67      1.0000 0.22540  0.26290  0.68580  Biso   1.000  H
  H68      1.0000 0.26290  0.03750  0.18580  Biso   1.000  H
  H69      1.0000 0.03750  0.77460  0.68580  Biso   1.000  H
  H70      1.0000 0.77460  0.73710  0.18580  Biso   1.000  H
  H71      1.0000 0.96250  0.22540  0.18580  Biso   1.000  H
  H72      1.0000 0.03750  0.26290  0.81420  Biso   1.000  H
  H73      1.0000 0.03750  0.26290  0.68580  Biso   1.000  H
  H74      1.0000 0.77460  0.03750  0.18580  Biso   1.000  H
  H75      1.0000 0.73710  0.77460  0.68580  Biso   1.000  H
  H76      1.0000 0.22540  0.96250  0.68580  Biso   1.000  H
  H77      1.0000 0.26290  0.22540  0.18580  Biso   1.000  H
  H78      1.0000 0.26290  0.03750  0.31420  Biso   1.000  H
  H79      1.0000 0.77460  0.73710  0.31420  Biso   1.000  H
  H80      1.0000 0.73710  0.96250  0.81420  Biso   1.000  H
  H81      1.0000 0.96250  0.22540  0.31420  Biso   1.000  H
  H82      1.0000 0.22540  0.26290  0.81420  Biso   1.000  H
  H83      1.0000 0.03750  0.77460  0.81420  Biso   1.000  H
  H84      1.0000 0.96250  0.73710  0.18580  Biso   1.000  H
  C181     1.0000 0.81980  0.07230  0.12550  Biso   1.000  C
  C182     1.0000 0.74750  0.81980  0.62550  Biso   1.000  C
  C183     1.0000 0.92770  0.74750  0.12550  Biso   1.000  C
  C184     1.0000 0.25250  0.18020  0.12550  Biso   1.000  C
  C185     1.0000 0.07230  0.25250  0.62550  Biso   1.000  C
  C186     1.0000 0.07230  0.81980  0.87450  Biso   1.000  C
  C187     1.0000 0.74750  0.92770  0.87450  Biso   1.000  C
  C188     1.0000 0.92770  0.18020  0.37450  Biso   1.000  C
  C189     1.0000 0.18020  0.25250  0.87450  Biso   1.000  C
  C190     1.0000 0.25250  0.07230  0.37450  Biso   1.000  C
  C191     1.0000 0.81980  0.74750  0.37450  Biso   1.000  C
  C192     1.0000 0.18020  0.92770  0.62550  Biso   1.000  C
  C193     1.0000 0.18020  0.92770  0.87450  Biso   1.000  C
  C194     1.0000 0.25250  0.18020  0.37450  Biso   1.000  C
  C195     1.0000 0.07230  0.25250  0.87450  Biso   1.000  C
  C196     1.0000 0.74750  0.81980  0.87450  Biso   1.000  C
  C197     1.0000 0.92770  0.74750  0.37450  Biso   1.000  C
  C198     1.0000 0.92770  0.18020  0.12550  Biso   1.000  C
  C199     1.0000 0.25250  0.07230  0.12550  Biso   1.000  C
  C200     1.0000 0.07230  0.81980  0.62550  Biso   1.000  C
  C201     1.0000 0.81980  0.74750  0.12550  Biso   1.000  C
  C202     1.0000 0.74750  0.92770  0.62550  Biso   1.000  C
  C203     1.0000 0.18020  0.25250  0.62550  Biso   1.000  C
  C204     1.0000 0.81980  0.07230  0.37450  Biso   1.000  C
  H85      1.0000 0.78310  0.03130  0.11090  Biso   1.000  H
  H86      1.0000 0.75180  0.78310  0.61090  Biso   1.000  H
  H87      1.0000 0.96870  0.75180  0.11090  Biso   1.000  H
  H88      1.0000 0.24820  0.21690  0.11090  Biso   1.000  H
  H89      1.0000 0.03130  0.24820  0.61090  Biso   1.000  H
  H90      1.0000 0.03130  0.78310  0.88910  Biso   1.000  H
  H91      1.0000 0.75180  0.96870  0.88910  Biso   1.000  H
  H92      1.0000 0.96870  0.21690  0.38910  Biso   1.000  H
  H93      1.0000 0.21690  0.24820  0.88910  Biso   1.000  H
  H94      1.0000 0.24820  0.03130  0.38910  Biso   1.000  H
  H95      1.0000 0.78310  0.75180  0.38910  Biso   1.000  H
  H96      1.0000 0.21690  0.96870  0.61090  Biso   1.000  H
  H97      1.0000 0.21690  0.96870  0.88910  Biso   1.000  H
  H98      1.0000 0.24820  0.21690  0.38910  Biso   1.000  H
  H99      1.0000 0.03130  0.24820  0.88910  Biso   1.000  H
  H100     1.0000 0.75180  0.78310  0.88910  Biso   1.000  H
  H101     1.0000 0.96870  0.75180  0.38910  Biso   1.000  H
  H102     1.0000 0.96870  0.21690  0.11090  Biso   1.000  H
  H103     1.0000 0.24820  0.03130  0.11090  Biso   1.000  H
  H104     1.0000 0.03130  0.78310  0.61090  Biso   1.000  H
  H105     1.0000 0.78310  0.75180  0.11090  Biso   1.000  H
  H106     1.0000 0.75180  0.96870  0.61090  Biso   1.000  H
  H107     1.0000 0.21690  0.24820  0.61090  Biso   1.000  H
  H108     1.0000 0.78310  0.03130  0.38910  Biso   1.000  H
  C205     1.0000 0.84240  0.04760  0.15330  Biso   1.000  C
  C206     1.0000 0.79480  0.84240  0.65330  Biso   1.000  C
  C207     1.0000 0.95240  0.79480  0.15330  Biso   1.000  C
  C208     1.0000 0.20520  0.15760  0.15330  Biso   1.000  C
  C209     1.0000 0.04760  0.20520  0.65330  Biso   1.000  C
  C210     1.0000 0.04760  0.84240  0.84670  Biso   1.000  C
  C211     1.0000 0.79480  0.95240  0.84670  Biso   1.000  C
  C212     1.0000 0.95240  0.15760  0.34670  Biso   1.000  C
  C213     1.0000 0.15760  0.20520  0.84670  Biso   1.000  C
  C214     1.0000 0.20520  0.04760  0.34670  Biso   1.000  C
  C215     1.0000 0.84240  0.79480  0.34670  Biso   1.000  C
  C216     1.0000 0.15760  0.95240  0.65330  Biso   1.000  C
  C217     1.0000 0.15760  0.95240  0.84670  Biso   1.000  C
  C218     1.0000 0.20520  0.15760  0.34670  Biso   1.000  C
  C219     1.0000 0.04760  0.20520  0.84670  Biso   1.000  C
  C220     1.0000 0.79480  0.84240  0.84670  Biso   1.000  C
  C221     1.0000 0.95240  0.79480  0.34670  Biso   1.000  C
  C222     1.0000 0.95240  0.15760  0.15330  Biso   1.000  C
  C223     1.0000 0.20520  0.04760  0.15330  Biso   1.000  C
  C224     1.0000 0.04760  0.84240  0.65330  Biso   1.000  C
  C225     1.0000 0.84240  0.79480  0.15330  Biso   1.000  C
  C226     1.0000 0.79480  0.95240  0.65330  Biso   1.000  C
  C227     1.0000 0.15760  0.20520  0.65330  Biso   1.000  C
  C228     1.0000 0.84240  0.04760  0.34670  Biso   1.000  C
  H109     1.0000 0.81900  0.99030  0.15730  Biso   1.000  H
  H110     1.0000 0.82870  0.81900  0.65730  Biso   1.000  H
  H111     1.0000 0.00970  0.82870  0.15730  Biso   1.000  H
  H112     1.0000 0.17130  0.18100  0.15730  Biso   1.000  H
  H113     1.0000 0.99030  0.17130  0.65730  Biso   1.000  H
  H114     1.0000 0.99030  0.81900  0.84270  Biso   1.000  H
  H115     1.0000 0.82870  0.00970  0.84270  Biso   1.000  H
  H116     1.0000 0.00970  0.18100  0.34270  Biso   1.000  H
  H117     1.0000 0.18100  0.17130  0.84270  Biso   1.000  H
  H118     1.0000 0.17130  0.99030  0.34270  Biso   1.000  H
  H119     1.0000 0.81900  0.82870  0.34270  Biso   1.000  H
  H120     1.0000 0.18100  0.00970  0.65730  Biso   1.000  H
  H121     1.0000 0.18100  0.00970  0.84270  Biso   1.000  H
  H122     1.0000 0.17130  0.18100  0.34270  Biso   1.000  H
  H123     1.0000 0.99030  0.17130  0.84270  Biso   1.000  H
  H124     1.0000 0.82870  0.81900  0.84270  Biso   1.000  H
  H125     1.0000 0.00970  0.82870  0.34270  Biso   1.000  H
  H126     1.0000 0.00970  0.18100  0.15730  Biso   1.000  H
  H127     1.0000 0.17130  0.99030  0.15730  Biso   1.000  H
  H128     1.0000 0.99030  0.81900  0.65730  Biso   1.000  H
  H129     1.0000 0.81900  0.82870  0.15730  Biso   1.000  H
  H130     1.0000 0.82870  0.00970  0.65730  Biso   1.000  H
  H131     1.0000 0.18100  0.17130  0.65730  Biso   1.000  H
  H132     1.0000 0.81900  0.99030  0.34270  Biso   1.000  H
