data_image0
_cell_length_a       7.4904
_cell_length_b       14.419
_cell_length_c       14.0422
_cell_angle_alpha    90
_cell_angle_beta     93.072
_cell_angle_gamma    90

_symmetry_space_group_name_H-M    "P 1"
_symmetry_int_tables_number       1

loop_
  _symmetry_equiv_pos_as_xyz
  'x, y, z'

loop_
  _atom_site_label
  _atom_site_occupancy
  _atom_site_fract_x
  _atom_site_fract_y
  _atom_site_fract_z
  _atom_site_thermal_displace_type
  _atom_site_B_iso_or_equiv
  _atom_site_type_symbol
  Cu1      1.0000 0.15464  0.03194  0.64569  Biso   1.000  Cu
  Cu2      1.0000 0.34536  0.53194  0.85431  Biso   1.000  Cu
  Cu3      1.0000 0.84536  0.96806  0.35431  Biso   1.000  Cu
  Cu4      1.0000 0.65464  0.46806  0.14569  Biso   1.000  Cu
  O1       1.0000 0.17780  0.89910  0.62000  Biso   1.000  O
  O2       1.0000 0.32220  0.39910  0.88000  Biso   1.000  O
  O3       1.0000 0.82220  0.10090  0.38000  Biso   1.000  O
  O4       1.0000 0.67780  0.60090  0.12000  Biso   1.000  O
  N1       1.0000 0.39720  0.05090  0.74200  Biso   1.000  N
  N2       1.0000 0.10280  0.55090  0.75800  Biso   1.000  N
  N3       1.0000 0.60280  0.94910  0.25800  Biso   1.000  N
  N4       1.0000 0.89720  0.44910  0.24200  Biso   1.000  N
  C1       1.0000 0.24070  0.88540  0.53650  Biso   1.000  C
  C2       1.0000 0.25930  0.38540  0.96350  Biso   1.000  C
  C3       1.0000 0.75930  0.11460  0.46350  Biso   1.000  C
  C4       1.0000 0.74070  0.61460  0.03650  Biso   1.000  C
  N5       1.0000 0.97810  0.02600  0.74430  Biso   1.000  N
  N6       1.0000 0.52190  0.52600  0.75570  Biso   1.000  N
  N7       1.0000 0.02190  0.97400  0.25570  Biso   1.000  N
  N8       1.0000 0.47810  0.47400  0.24430  Biso   1.000  N
  C5       1.0000 0.28320  0.78940  0.50720  Biso   1.000  C
  C6       1.0000 0.21680  0.28940  0.99280  Biso   1.000  C
  C7       1.0000 0.71680  0.21060  0.49280  Biso   1.000  C
  C8       1.0000 0.78320  0.71060  0.00720  Biso   1.000  C
  N9       1.0000 0.69970  0.08220  0.80980  Biso   1.000  N
  N10      1.0000 0.80030  0.58220  0.69020  Biso   1.000  N
  N11      1.0000 0.30030  0.91780  0.19020  Biso   1.000  N
  N12      1.0000 0.19970  0.41780  0.30980  Biso   1.000  N
  C9       1.0000 0.25530  0.71580  0.56870  Biso   1.000  C
  C10      1.0000 0.24470  0.21580  0.93130  Biso   1.000  C
  C11      1.0000 0.74470  0.28420  0.43130  Biso   1.000  C
  C12      1.0000 0.75530  0.78420  0.06870  Biso   1.000  C
  H1       1.0000 0.20340  0.72700  0.62780  Biso   1.000  H
  H2       1.0000 0.29660  0.22700  0.87220  Biso   1.000  H
  H3       1.0000 0.79660  0.27300  0.37220  Biso   1.000  H
  H4       1.0000 0.70340  0.77300  0.12780  Biso   1.000  H
  C13      1.0000 0.30250  0.62620  0.54460  Biso   1.000  C
  C14      1.0000 0.19750  0.12620  0.95540  Biso   1.000  C
  C15      1.0000 0.69750  0.37380  0.45540  Biso   1.000  C
  C16      1.0000 0.80250  0.87380  0.04460  Biso   1.000  C
  H5       1.0000 0.28640  0.57680  0.58810  Biso   1.000  H
  H6       1.0000 0.21360  0.07680  0.91190  Biso   1.000  H
  H7       1.0000 0.71360  0.42320  0.41190  Biso   1.000  H
  H8       1.0000 0.78640  0.92320  0.08810  Biso   1.000  H
  C17      1.0000 0.37250  0.60870  0.45790  Biso   1.000  C
  C18      1.0000 0.12750  0.10870  0.04210  Biso   1.000  C
  C19      1.0000 0.62750  0.39130  0.54210  Biso   1.000  C
  C20      1.0000 0.87250  0.89130  0.95790  Biso   1.000  C
  H9       1.0000 0.40400  0.54720  0.44140  Biso   1.000  H
  H10      1.0000 0.09600  0.04720  0.05860  Biso   1.000  H
  H11      1.0000 0.59600  0.45280  0.55860  Biso   1.000  H
  H12      1.0000 0.90400  0.95280  0.94140  Biso   1.000  H
  C21      1.0000 0.39730  0.68090  0.39420  Biso   1.000  C
  C22      1.0000 0.10270  0.18090  0.10580  Biso   1.000  C
  C23      1.0000 0.60270  0.31910  0.60580  Biso   1.000  C
  C24      1.0000 0.89730  0.81910  0.89420  Biso   1.000  C
  H13      1.0000 0.44430  0.66850  0.33400  Biso   1.000  H
  H14      1.0000 0.05570  0.16850  0.16600  Biso   1.000  H
  H15      1.0000 0.55570  0.33150  0.66600  Biso   1.000  H
  H16      1.0000 0.94430  0.83150  0.83400  Biso   1.000  H
  C25      1.0000 0.35290  0.77200  0.41890  Biso   1.000  C
  C26      1.0000 0.14710  0.27200  0.08110  Biso   1.000  C
  C27      1.0000 0.64710  0.22800  0.58110  Biso   1.000  C
  C28      1.0000 0.85290  0.72800  0.91890  Biso   1.000  C
  H17      1.0000 0.37030  0.82160  0.37570  Biso   1.000  H
  H18      1.0000 0.12970  0.32160  0.12430  Biso   1.000  H
  H19      1.0000 0.62970  0.17840  0.62430  Biso   1.000  H
  H20      1.0000 0.87030  0.67840  0.87570  Biso   1.000  H
  N13      1.0000 0.27400  0.95230  0.47520  Biso   1.000  N
  N14      1.0000 0.22600  0.45230  0.02480  Biso   1.000  N
  N15      1.0000 0.72600  0.04770  0.52480  Biso   1.000  N
  N16      1.0000 0.77400  0.54770  0.97520  Biso   1.000  N
  N17      1.0000 0.23170  0.03550  0.51720  Biso   1.000  N
  N18      1.0000 0.26830  0.53550  0.98280  Biso   1.000  N
  N19      1.0000 0.76830  0.96450  0.48280  Biso   1.000  N
  N20      1.0000 0.73170  0.46450  0.01720  Biso   1.000  N
  C29      1.0000 0.30830  0.12810  0.37690  Biso   1.000  C
  C30      1.0000 0.19170  0.62810  0.12310  Biso   1.000  C
  C31      1.0000 0.69170  0.87190  0.62310  Biso   1.000  C
  C32      1.0000 0.80830  0.37190  0.87690  Biso   1.000  C
  H21      1.0000 0.37390  0.07290  0.35800  Biso   1.000  H
  H22      1.0000 0.12610  0.57290  0.14200  Biso   1.000  H
  H23      1.0000 0.62610  0.92710  0.64200  Biso   1.000  H
  H24      1.0000 0.87390  0.42710  0.85800  Biso   1.000  H
  H25      1.0000 0.38730  0.18230  0.37640  Biso   1.000  H
  H26      1.0000 0.11270  0.68230  0.12360  Biso   1.000  H
  H27      1.0000 0.61270  0.81770  0.62360  Biso   1.000  H
  H28      1.0000 0.88730  0.31770  0.87640  Biso   1.000  H
  H29      1.0000 0.20540  0.13810  0.33200  Biso   1.000  H
  H30      1.0000 0.29460  0.63810  0.16800  Biso   1.000  H
  H31      1.0000 0.79460  0.86190  0.66800  Biso   1.000  H
  H32      1.0000 0.70540  0.36190  0.83200  Biso   1.000  H
  C33      1.0000 0.24480  0.11460  0.47470  Biso   1.000  C
  C34      1.0000 0.25520  0.61460  0.02530  Biso   1.000  C
  C35      1.0000 0.75520  0.88540  0.52530  Biso   1.000  C
  C36      1.0000 0.74480  0.38540  0.97470  Biso   1.000  C
  C37      1.0000 0.18990  0.19360  0.53190  Biso   1.000  C
  C38      1.0000 0.31010  0.69360  0.96810  Biso   1.000  C
  C39      1.0000 0.81010  0.80640  0.46810  Biso   1.000  C
  C40      1.0000 0.68990  0.30640  0.03190  Biso   1.000  C
  C41      1.0000 0.18980  0.28500  0.50220  Biso   1.000  C
  C42      1.0000 0.31020  0.78500  0.99780  Biso   1.000  C
  C43      1.0000 0.81020  0.71500  0.49780  Biso   1.000  C
  C44      1.0000 0.68980  0.21500  0.00220  Biso   1.000  C
  H33      1.0000 0.22560  0.30070  0.44040  Biso   1.000  H
  H34      1.0000 0.27440  0.80070  0.05960  Biso   1.000  H
  H35      1.0000 0.77440  0.69930  0.55960  Biso   1.000  H
  H36      1.0000 0.72560  0.19930  0.94040  Biso   1.000  H
  C45      1.0000 0.13630  0.35370  0.56440  Biso   1.000  C
  C46      1.0000 0.36370  0.85370  0.93560  Biso   1.000  C
  C47      1.0000 0.86370  0.64630  0.43560  Biso   1.000  C
  C48      1.0000 0.63630  0.14630  0.06440  Biso   1.000  C
  H37      1.0000 0.13410  0.41670  0.54470  Biso   1.000  H
  H38      1.0000 0.36590  0.91670  0.95530  Biso   1.000  H
  H39      1.0000 0.86590  0.58330  0.45530  Biso   1.000  H
  H40      1.0000 0.63410  0.08330  0.04470  Biso   1.000  H
  C49      1.0000 0.08700  0.33050  0.65380  Biso   1.000  C
  C50      1.0000 0.41300  0.83050  0.84620  Biso   1.000  C
  C51      1.0000 0.91300  0.66950  0.34620  Biso   1.000  C
  C52      1.0000 0.58700  0.16950  0.15380  Biso   1.000  C
  H41      1.0000 0.05360  0.37700  0.69740  Biso   1.000  H
  H42      1.0000 0.44640  0.87700  0.80260  Biso   1.000  H
  H43      1.0000 0.94640  0.62300  0.30260  Biso   1.000  H
  H44      1.0000 0.55360  0.12300  0.19740  Biso   1.000  H
  C53      1.0000 0.08700  0.23730  0.67930  Biso   1.000  C
  C54      1.0000 0.41300  0.73730  0.82070  Biso   1.000  C
  C55      1.0000 0.91300  0.76270  0.32070  Biso   1.000  C
  C56      1.0000 0.58700  0.26270  0.17930  Biso   1.000  C
  H45      1.0000 0.05110  0.22060  0.74080  Biso   1.000  H
  H46      1.0000 0.44890  0.72060  0.75920  Biso   1.000  H
  H47      1.0000 0.94890  0.77940  0.25920  Biso   1.000  H
  H48      1.0000 0.55110  0.27940  0.24080  Biso   1.000  H
  N21      1.0000 0.13620  0.16940  0.61940  Biso   1.000  N
  N22      1.0000 0.36380  0.66940  0.88060  Biso   1.000  N
  N23      1.0000 0.86380  0.83060  0.38060  Biso   1.000  N
  N24      1.0000 0.63620  0.33060  0.11940  Biso   1.000  N
  C57      1.0000 0.84180  0.05150  0.77130  Biso   1.000  C
  C58      1.0000 0.65820  0.55150  0.72870  Biso   1.000  C
  C59      1.0000 0.15820  0.94850  0.22870  Biso   1.000  C
  C60      1.0000 0.34180  0.44850  0.27130  Biso   1.000  C
  C61      1.0000 0.54120  0.06340  0.77010  Biso   1.000  C
  C62      1.0000 0.95880  0.56340  0.72990  Biso   1.000  C
  C63      1.0000 0.45880  0.93660  0.22990  Biso   1.000  C
  C64      1.0000 0.04120  0.43660  0.27010  Biso   1.000  C
