data_image0
_cell_length_a       9.4995
_cell_length_b       11.604
_cell_length_c       15.228
_cell_angle_alpha    90
_cell_angle_beta     106.25
_cell_angle_gamma    90

_symmetry_space_group_name_H-M    "P 1"
_symmetry_int_tables_number       1

loop_
  _symmetry_equiv_pos_as_xyz
  'x, y, z'

loop_
  _atom_site_label
  _atom_site_occupancy
  _atom_site_fract_x
  _atom_site_fract_y
  _atom_site_fract_z
  _atom_site_thermal_displace_type
  _atom_site_B_iso_or_equiv
  _atom_site_type_symbol
  Cu1      1.0000 0.43688  0.85525  0.21328  Biso   1.000  Cu
  Cu2      1.0000 0.06312  0.35525  0.28672  Biso   1.000  Cu
  Cu3      1.0000 0.56312  0.14475  0.78672  Biso   1.000  Cu
  Cu4      1.0000 0.93688  0.64475  0.71328  Biso   1.000  Cu
  O1       1.0000 0.51465  0.71613  0.17868  Biso   1.000  O
  O2       1.0000 0.98535  0.21613  0.32132  Biso   1.000  O
  O3       1.0000 0.48535  0.28387  0.82132  Biso   1.000  O
  O4       1.0000 0.01465  0.78387  0.67868  Biso   1.000  O
  C1       1.0000 0.60392  0.70794  0.12944  Biso   1.000  C
  C2       1.0000 0.89608  0.20794  0.37056  Biso   1.000  C
  C3       1.0000 0.39608  0.29206  0.87056  Biso   1.000  C
  C4       1.0000 0.10392  0.79206  0.62944  Biso   1.000  C
  C5       1.0000 0.63939  0.58664  0.10979  Biso   1.000  C
  C6       1.0000 0.86061  0.08664  0.39021  Biso   1.000  C
  C7       1.0000 0.36061  0.41336  0.89021  Biso   1.000  C
  C8       1.0000 0.13939  0.91336  0.60979  Biso   1.000  C
  C9       1.0000 0.67759  0.55637  0.03074  Biso   1.000  C
  C10      1.0000 0.82241  0.05637  0.46926  Biso   1.000  C
  C11      1.0000 0.32241  0.44363  0.96926  Biso   1.000  C
  C12      1.0000 0.17759  0.94363  0.53074  Biso   1.000  C
  H1       1.0000 0.68620  0.61310  0.98940  Biso   1.000  H
  H2       1.0000 0.81380  0.11310  0.51060  Biso   1.000  H
  H3       1.0000 0.31380  0.38690  0.01060  Biso   1.000  H
  H4       1.0000 0.18620  0.88690  0.48940  Biso   1.000  H
  C13      1.0000 0.70280  0.44196  0.01379  Biso   1.000  C
  C14      1.0000 0.79720  0.94196  0.48621  Biso   1.000  C
  C15      1.0000 0.29720  0.55804  0.98621  Biso   1.000  C
  C16      1.0000 0.20280  0.05804  0.51379  Biso   1.000  C
  H5       1.0000 0.72580  0.42210  0.96030  Biso   1.000  H
  H6       1.0000 0.77420  0.92210  0.53970  Biso   1.000  H
  H7       1.0000 0.27420  0.57790  0.03970  Biso   1.000  H
  H8       1.0000 0.22580  0.07790  0.46030  Biso   1.000  H
  C17      1.0000 0.69400  0.35728  0.07559  Biso   1.000  C
  C18      1.0000 0.80600  0.85728  0.42441  Biso   1.000  C
  C19      1.0000 0.30600  0.64272  0.92441  Biso   1.000  C
  C20      1.0000 0.19400  0.14272  0.57559  Biso   1.000  C
  H9       1.0000 0.71250  0.28080  0.06420  Biso   1.000  H
  H10      1.0000 0.78750  0.78080  0.43580  Biso   1.000  H
  H11      1.0000 0.28750  0.71920  0.93580  Biso   1.000  H
  H12      1.0000 0.21250  0.21920  0.56420  Biso   1.000  H
  C21      1.0000 0.65760  0.38631  0.15449  Biso   1.000  C
  C22      1.0000 0.84240  0.88631  0.34551  Biso   1.000  C
  C23      1.0000 0.34240  0.61369  0.84551  Biso   1.000  C
  C24      1.0000 0.15760  0.11369  0.65449  Biso   1.000  C
  H13      1.0000 0.65250  0.32960  0.19660  Biso   1.000  H
  H14      1.0000 0.84750  0.82960  0.30340  Biso   1.000  H
  H15      1.0000 0.34750  0.67040  0.80340  Biso   1.000  H
  H16      1.0000 0.15250  0.17040  0.69660  Biso   1.000  H
  C25      1.0000 0.62853  0.50061  0.17067  Biso   1.000  C
  C26      1.0000 0.87147  0.00061  0.32933  Biso   1.000  C
  C27      1.0000 0.37147  0.49939  0.82933  Biso   1.000  C
  C28      1.0000 0.12853  0.99939  0.67067  Biso   1.000  C
  H17      1.0000 0.60150  0.51950  0.22300  Biso   1.000  H
  H18      1.0000 0.89850  0.01950  0.27700  Biso   1.000  H
  H19      1.0000 0.39850  0.48050  0.77700  Biso   1.000  H
  H20      1.0000 0.10150  0.98050  0.72300  Biso   1.000  H
  C29      1.0000 0.66840  0.79919  0.09759  Biso   1.000  C
  C30      1.0000 0.83160  0.29919  0.40241  Biso   1.000  C
  C31      1.0000 0.33160  0.20081  0.90241  Biso   1.000  C
  C32      1.0000 0.16840  0.70081  0.59759  Biso   1.000  C
  H21      1.0000 0.73660  0.78170  0.06610  Biso   1.000  H
  H22      1.0000 0.76340  0.28170  0.43390  Biso   1.000  H
  H23      1.0000 0.26340  0.21830  0.93390  Biso   1.000  H
  H24      1.0000 0.23660  0.71830  0.56610  Biso   1.000  H
  C33      1.0000 0.63976  0.91774  0.10870  Biso   1.000  C
  C34      1.0000 0.86024  0.41774  0.39130  Biso   1.000  C
  C35      1.0000 0.36024  0.08226  0.89130  Biso   1.000  C
  C36      1.0000 0.13976  0.58226  0.60870  Biso   1.000  C
  C37      1.0000 0.72980  0.00396  0.07355  Biso   1.000  C
  C38      1.0000 0.77020  0.50396  0.42645  Biso   1.000  C
  C39      1.0000 0.27020  0.99604  0.92645  Biso   1.000  C
  C40      1.0000 0.22980  0.49604  0.57355  Biso   1.000  C
  H25      1.0000 0.66730  0.04560  0.02300  Biso   1.000  H
  H26      1.0000 0.83270  0.54560  0.47700  Biso   1.000  H
  H27      1.0000 0.33270  0.95440  0.97700  Biso   1.000  H
  H28      1.0000 0.16730  0.45440  0.52300  Biso   1.000  H
  H29      1.0000 0.80410  0.96430  0.05370  Biso   1.000  H
  H30      1.0000 0.69590  0.46430  0.44630  Biso   1.000  H
  H31      1.0000 0.19590  0.03570  0.94630  Biso   1.000  H
  H32      1.0000 0.30410  0.53570  0.55370  Biso   1.000  H
  H33      1.0000 0.77520  0.05690  0.12150  Biso   1.000  H
  H34      1.0000 0.72480  0.55690  0.37850  Biso   1.000  H
  H35      1.0000 0.22480  0.94310  0.87850  Biso   1.000  H
  H36      1.0000 0.27520  0.44310  0.62150  Biso   1.000  H
  N1       1.0000 0.53949  0.95239  0.14642  Biso   1.000  N
  N2       1.0000 0.96051  0.45239  0.35358  Biso   1.000  N
  N3       1.0000 0.46051  0.04761  0.85358  Biso   1.000  N
  N4       1.0000 0.03949  0.54761  0.64642  Biso   1.000  N
  C41      1.0000 0.51250  0.07574  0.15456  Biso   1.000  C
  C42      1.0000 0.98750  0.57574  0.34544  Biso   1.000  C
  C43      1.0000 0.48750  0.92426  0.84544  Biso   1.000  C
  C44      1.0000 0.01250  0.42426  0.65456  Biso   1.000  C
  H37      1.0000 0.50810  0.11480  0.09750  Biso   1.000  H
  H38      1.0000 0.99190  0.61480  0.40250  Biso   1.000  H
  H39      1.0000 0.49190  0.88520  0.90250  Biso   1.000  H
  H40      1.0000 0.00810  0.38520  0.59750  Biso   1.000  H
  H41      1.0000 0.59090  0.10970  0.20260  Biso   1.000  H
  H42      1.0000 0.90910  0.60970  0.29740  Biso   1.000  H
  H43      1.0000 0.40910  0.89030  0.79740  Biso   1.000  H
  H44      1.0000 0.09090  0.39030  0.70260  Biso   1.000  H
  C45      1.0000 0.36770  0.08800  0.17707  Biso   1.000  C
  C46      1.0000 0.13230  0.58800  0.32293  Biso   1.000  C
  C47      1.0000 0.63230  0.91200  0.82293  Biso   1.000  C
  C48      1.0000 0.86770  0.41200  0.67707  Biso   1.000  C
  H45      1.0000 0.35650  0.16660  0.19580  Biso   1.000  H
  H46      1.0000 0.14350  0.66660  0.30420  Biso   1.000  H
  H47      1.0000 0.64350  0.83340  0.80420  Biso   1.000  H
  H48      1.0000 0.85650  0.33340  0.69580  Biso   1.000  H
  H49      1.0000 0.28760  0.07140  0.12310  Biso   1.000  H
  H50      1.0000 0.21240  0.57140  0.37690  Biso   1.000  H
  H51      1.0000 0.71240  0.92860  0.87690  Biso   1.000  H
  H52      1.0000 0.78760  0.42860  0.62310  Biso   1.000  H
  N5       1.0000 0.36194  0.00772  0.25150  Biso   1.000  N
  N6       1.0000 0.13806  0.50772  0.24850  Biso   1.000  N
  N7       1.0000 0.63806  0.99228  0.74850  Biso   1.000  N
  N8       1.0000 0.86194  0.49228  0.75150  Biso   1.000  N
  C49      1.0000 0.46350  0.04626  0.33933  Biso   1.000  C
  C50      1.0000 0.03650  0.54626  0.16067  Biso   1.000  C
  C51      1.0000 0.53650  0.95374  0.66067  Biso   1.000  C
  C52      1.0000 0.96350  0.45374  0.83933  Biso   1.000  C
  H53      1.0000 0.56240  0.04380  0.33520  Biso   1.000  H
  H54      1.0000 0.93760  0.54380  0.16480  Biso   1.000  H
  H55      1.0000 0.43760  0.95620  0.66480  Biso   1.000  H
  H56      1.0000 0.06240  0.45620  0.83520  Biso   1.000  H
  H57      1.0000 0.45430  0.99620  0.38760  Biso   1.000  H
  H58      1.0000 0.04570  0.49620  0.11240  Biso   1.000  H
  H59      1.0000 0.54570  0.00380  0.61240  Biso   1.000  H
  H60      1.0000 0.95430  0.50380  0.88760  Biso   1.000  H
  H61      1.0000 0.43940  0.12370  0.35210  Biso   1.000  H
  H62      1.0000 0.06060  0.62370  0.14790  Biso   1.000  H
  H63      1.0000 0.56060  0.87630  0.64790  Biso   1.000  H
  H64      1.0000 0.93940  0.37630  0.85210  Biso   1.000  H
  C53      1.0000 0.21130  0.00328  0.26129  Biso   1.000  C
  C54      1.0000 0.28870  0.50328  0.23871  Biso   1.000  C
  C55      1.0000 0.78870  0.99672  0.73871  Biso   1.000  C
  C56      1.0000 0.71130  0.49672  0.76129  Biso   1.000  C
  H65      1.0000 0.20710  0.94710  0.30680  Biso   1.000  H
  H66      1.0000 0.29290  0.44710  0.19320  Biso   1.000  H
  H67      1.0000 0.79290  0.05290  0.69320  Biso   1.000  H
  H68      1.0000 0.70710  0.55290  0.80680  Biso   1.000  H
  H69      1.0000 0.14400  0.98220  0.20380  Biso   1.000  H
  H70      1.0000 0.35600  0.48220  0.29620  Biso   1.000  H
  H71      1.0000 0.85600  0.01780  0.79620  Biso   1.000  H
  H72      1.0000 0.64400  0.51780  0.70380  Biso   1.000  H
  H73      1.0000 0.18520  0.07760  0.27960  Biso   1.000  H
  H74      1.0000 0.31480  0.57760  0.22040  Biso   1.000  H
  H75      1.0000 0.81480  0.92240  0.72040  Biso   1.000  H
  H76      1.0000 0.68520  0.42240  0.77960  Biso   1.000  H
  N9       1.0000 0.42441  0.77722  0.32977  Biso   1.000  N
  N10      1.0000 0.07559  0.27722  0.17023  Biso   1.000  N
  N11      1.0000 0.57559  0.22278  0.67023  Biso   1.000  N
  N12      1.0000 0.92441  0.72278  0.82977  Biso   1.000  N
  C57      1.0000 0.45865  0.74034  0.40209  Biso   1.000  C
  C58      1.0000 0.04135  0.24034  0.09791  Biso   1.000  C
  C59      1.0000 0.54135  0.25966  0.59791  Biso   1.000  C
  C60      1.0000 0.95865  0.75966  0.90209  Biso   1.000  C
  N13      1.0000 0.47730  0.69410  0.48233  Biso   1.000  N
  N14      1.0000 0.02270  0.19410  0.01767  Biso   1.000  N
  N15      1.0000 0.52270  0.30590  0.51767  Biso   1.000  N
  N16      1.0000 0.97730  0.80590  0.98233  Biso   1.000  N
  C61      1.0000 0.60210  0.68890  0.54424  Biso   1.000  C
  C62      1.0000 0.89790  0.18890  0.95576  Biso   1.000  C
  C63      1.0000 0.39790  0.31110  0.45576  Biso   1.000  C
  C64      1.0000 0.10210  0.81110  0.04424  Biso   1.000  C
  N17      1.0000 0.70453  0.67965  0.60498  Biso   1.000  N
  N18      1.0000 0.79547  0.17965  0.89502  Biso   1.000  N
  N19      1.0000 0.29547  0.32035  0.39502  Biso   1.000  N
  N20      1.0000 0.20453  0.82035  0.10498  Biso   1.000  N
