data_image0
_cell_length_a       12.821
_cell_length_b       7.2431
_cell_length_c       23.237
_cell_angle_alpha    90
_cell_angle_beta     98.38
_cell_angle_gamma    90

_symmetry_space_group_name_H-M    "P 1"
_symmetry_int_tables_number       1

loop_
  _symmetry_equiv_pos_as_xyz
  'x, y, z'

loop_
  _atom_site_label
  _atom_site_occupancy
  _atom_site_fract_x
  _atom_site_fract_y
  _atom_site_fract_z
  _atom_site_thermal_displace_type
  _atom_site_B_iso_or_equiv
  _atom_site_type_symbol
  Cu1      1.0000 0.26667  0.27945  0.14652  Biso   1.000  Cu
  Cu2      1.0000 0.23333  0.77945  0.35348  Biso   1.000  Cu
  Cu3      1.0000 0.73333  0.72055  0.85349  Biso   1.000  Cu
  Cu4      1.0000 0.76667  0.22055  0.64651  Biso   1.000  Cu
  Cl1      1.0000 0.26752  0.31982  0.97651  Biso   1.000  Cl
  Cl2      1.0000 0.23248  0.81982  0.52349  Biso   1.000  Cl
  Cl3      1.0000 0.73248  0.68018  0.02349  Biso   1.000  Cl
  Cl4      1.0000 0.76752  0.18018  0.47651  Biso   1.000  Cl
  O1       1.0000 0.20980  0.41410  0.92829  Biso   1.000  O
  O2       1.0000 0.29020  0.91410  0.57171  Biso   1.000  O
  O3       1.0000 0.79020  0.58590  0.07171  Biso   1.000  O
  O4       1.0000 0.70980  0.08590  0.42829  Biso   1.000  O
  O5       1.0000 0.37226  0.39020  0.98942  Biso   1.000  O
  O6       1.0000 0.12774  0.89020  0.51058  Biso   1.000  O
  O7       1.0000 0.62774  0.60980  0.01058  Biso   1.000  O
  O8       1.0000 0.87226  0.10980  0.48942  Biso   1.000  O
  O9       1.0000 0.21394  0.34670  0.02608  Biso   1.000  O
  O10      1.0000 0.28606  0.84670  0.47392  Biso   1.000  O
  O11      1.0000 0.78606  0.65330  0.97392  Biso   1.000  O
  O12      1.0000 0.71394  0.15330  0.52608  Biso   1.000  O
  O13      1.0000 0.27146  0.12650  0.96464  Biso   1.000  O
  O14      1.0000 0.22854  0.62650  0.53536  Biso   1.000  O
  O15      1.0000 0.72854  0.87350  0.03536  Biso   1.000  O
  O16      1.0000 0.77146  0.37350  0.46464  Biso   1.000  O
  N1       1.0000 0.41607  0.36360  0.15269  Biso   1.000  N
  N2       1.0000 0.08393  0.86360  0.34731  Biso   1.000  N
  N3       1.0000 0.58393  0.63640  0.84731  Biso   1.000  N
  N4       1.0000 0.91607  0.13640  0.65269  Biso   1.000  N
  N5       1.0000 0.47944  0.24240  0.12743  Biso   1.000  N
  N6       1.0000 0.02056  0.74240  0.37257  Biso   1.000  N
  N7       1.0000 0.52056  0.75760  0.87257  Biso   1.000  N
  N8       1.0000 0.97944  0.25760  0.62743  Biso   1.000  N
  N9       1.0000 0.32847  0.07520  0.10851  Biso   1.000  N
  N10      1.0000 0.17153  0.57520  0.39149  Biso   1.000  N
  N11      1.0000 0.67153  0.92480  0.89149  Biso   1.000  N
  N12      1.0000 0.82847  0.42480  0.60851  Biso   1.000  N
  N13      1.0000 0.16114  0.96390  0.09329  Biso   1.000  N
  N14      1.0000 0.33886  0.46390  0.40671  Biso   1.000  N
  N15      1.0000 0.83886  0.03610  0.90671  Biso   1.000  N
  N16      1.0000 0.66114  0.53610  0.59329  Biso   1.000  N
  N17      1.0000 0.13839  0.12260  0.12216  Biso   1.000  N
  N18      1.0000 0.36161  0.62260  0.37784  Biso   1.000  N
  N19      1.0000 0.86161  0.87740  0.87784  Biso   1.000  N
  N20      1.0000 0.63839  0.37740  0.62216  Biso   1.000  N
  N21      1.0000 0.20135  0.50530  0.16739  Biso   1.000  N
  N22      1.0000 0.29865  0.00530  0.33261  Biso   1.000  N
  N23      1.0000 0.79865  0.49470  0.83261  Biso   1.000  N
  N24      1.0000 0.70135  0.99470  0.66739  Biso   1.000  N
  N25      1.0000 0.19557  0.56420  0.21434  Biso   1.000  N
  N26      1.0000 0.30443  0.06420  0.28566  Biso   1.000  N
  N27      1.0000 0.80443  0.43580  0.78566  Biso   1.000  N
  N28      1.0000 0.69557  0.93580  0.71434  Biso   1.000  N
  N29      1.0000 0.18690  0.62960  0.25877  Biso   1.000  N
  N30      1.0000 0.31310  0.12960  0.24123  Biso   1.000  N
  N31      1.0000 0.81310  0.37040  0.74123  Biso   1.000  N
  N32      1.0000 0.68690  0.87040  0.75877  Biso   1.000  N
  N33      1.0000 0.66470  0.96370  0.23812  Biso   1.000  N
  N34      1.0000 0.83530  0.46370  0.26188  Biso   1.000  N
  N35      1.0000 0.33530  0.03630  0.76188  Biso   1.000  N
  N36      1.0000 0.16470  0.53630  0.73812  Biso   1.000  N
  C1       1.0000 0.58040  0.31000  0.13133  Biso   1.000  C
  C2       1.0000 0.91960  0.81000  0.36867  Biso   1.000  C
  C3       1.0000 0.41960  0.69000  0.86867  Biso   1.000  C
  C4       1.0000 0.08040  0.19000  0.63133  Biso   1.000  C
  C5       1.0000 0.57970  0.47530  0.15946  Biso   1.000  C
  C6       1.0000 0.92030  0.97530  0.34054  Biso   1.000  C
  C7       1.0000 0.42030  0.52470  0.84054  Biso   1.000  C
  C8       1.0000 0.07970  0.02470  0.65946  Biso   1.000  C
  H1       1.0000 0.63680  0.55470  0.16840  Biso   1.000  H
  H2       1.0000 0.86320  0.05470  0.33160  Biso   1.000  H
  H3       1.0000 0.36320  0.44530  0.83160  Biso   1.000  H
  H4       1.0000 0.13680  0.94530  0.66840  Biso   1.000  H
  C9       1.0000 0.47780  0.50400  0.17253  Biso   1.000  C
  C10      1.0000 0.02220  0.00400  0.32747  Biso   1.000  C
  C11      1.0000 0.52220  0.49600  0.82747  Biso   1.000  C
  C12      1.0000 0.97780  0.99600  0.67253  Biso   1.000  C
  C13      1.0000 0.66850  0.21400  0.10890  Biso   1.000  C
  C14      1.0000 0.83150  0.71400  0.39110  Biso   1.000  C
  C15      1.0000 0.33150  0.78600  0.89110  Biso   1.000  C
  C16      1.0000 0.16850  0.28600  0.60890  Biso   1.000  C
  H5       1.0000 0.73110  0.28790  0.11650  Biso   1.000  H
  H6       1.0000 0.76890  0.78790  0.38350  Biso   1.000  H
  H7       1.0000 0.26890  0.71210  0.88350  Biso   1.000  H
  H8       1.0000 0.23110  0.21210  0.61650  Biso   1.000  H
  H9       1.0000 0.65060  0.19520  0.06770  Biso   1.000  H
  H10      1.0000 0.84940  0.69520  0.43230  Biso   1.000  H
  H11      1.0000 0.34940  0.80480  0.93230  Biso   1.000  H
  H12      1.0000 0.15060  0.30480  0.56770  Biso   1.000  H
  H13      1.0000 0.68070  0.09680  0.12800  Biso   1.000  H
  H14      1.0000 0.81930  0.59680  0.37200  Biso   1.000  H
  H15      1.0000 0.31930  0.90320  0.87200  Biso   1.000  H
  H16      1.0000 0.18070  0.40320  0.62800  Biso   1.000  H
  C17      1.0000 0.43870  0.65980  0.20547  Biso   1.000  C
  C18      1.0000 0.06130  0.15980  0.29453  Biso   1.000  C
  C19      1.0000 0.56130  0.34020  0.79453  Biso   1.000  C
  C20      1.0000 0.93870  0.84020  0.70547  Biso   1.000  C
  H17      1.0000 0.36510  0.64220  0.20770  Biso   1.000  H
  H18      1.0000 0.13490  0.14220  0.29230  Biso   1.000  H
  H19      1.0000 0.63490  0.35780  0.79230  Biso   1.000  H
  H20      1.0000 0.86510  0.85780  0.70770  Biso   1.000  H
  H21      1.0000 0.44830  0.77390  0.18590  Biso   1.000  H
  H22      1.0000 0.05170  0.27390  0.31410  Biso   1.000  H
  H23      1.0000 0.55170  0.22610  0.81410  Biso   1.000  H
  H24      1.0000 0.94830  0.72610  0.68590  Biso   1.000  H
  H25      1.0000 0.47750  0.66340  0.24410  Biso   1.000  H
  H26      1.0000 0.02250  0.16340  0.25590  Biso   1.000  H
  H27      1.0000 0.52250  0.33660  0.75590  Biso   1.000  H
  H28      1.0000 0.97750  0.83660  0.74410  Biso   1.000  H
  C21      1.0000 0.43136  0.07950  0.10371  Biso   1.000  C
  C22      1.0000 0.06864  0.57950  0.39629  Biso   1.000  C
  C23      1.0000 0.56864  0.92050  0.89629  Biso   1.000  C
  C24      1.0000 0.93136  0.42050  0.60371  Biso   1.000  C
  C25      1.0000 0.47890  0.93670  0.07791  Biso   1.000  C
  C26      1.0000 0.02110  0.43670  0.42209  Biso   1.000  C
  C27      1.0000 0.52110  0.06330  0.92209  Biso   1.000  C
  C28      1.0000 0.97890  0.56330  0.57791  Biso   1.000  C
  H29      1.0000 0.55000  0.94010  0.07410  Biso   1.000  H
  H30      1.0000 0.95000  0.44010  0.42590  Biso   1.000  H
  H31      1.0000 0.45000  0.05990  0.92590  Biso   1.000  H
  H32      1.0000 0.05000  0.55990  0.57410  Biso   1.000  H
  C29      1.0000 0.41560  0.78790  0.05796  Biso   1.000  C
  C30      1.0000 0.08440  0.28790  0.44204  Biso   1.000  C
  C31      1.0000 0.58440  0.21210  0.94204  Biso   1.000  C
  C32      1.0000 0.91560  0.71210  0.55796  Biso   1.000  C
  H33      1.0000 0.44570  0.68830  0.04120  Biso   1.000  H
  H34      1.0000 0.05430  0.18830  0.45880  Biso   1.000  H
  H35      1.0000 0.55430  0.31170  0.95880  Biso   1.000  H
  H36      1.0000 0.94570  0.81170  0.54120  Biso   1.000  H
  C33      1.0000 0.30870  0.78300  0.06230  Biso   1.000  C
  C34      1.0000 0.19130  0.28300  0.43770  Biso   1.000  C
  C35      1.0000 0.69130  0.21700  0.93770  Biso   1.000  C
  C36      1.0000 0.80870  0.71700  0.56230  Biso   1.000  C
  H37      1.0000 0.26670  0.68260  0.04910  Biso   1.000  H
  H38      1.0000 0.23330  0.18260  0.45090  Biso   1.000  H
  H39      1.0000 0.73330  0.31740  0.95090  Biso   1.000  H
  H40      1.0000 0.76670  0.81740  0.54910  Biso   1.000  H
  C37      1.0000 0.26788  0.93470  0.08726  Biso   1.000  C
  C38      1.0000 0.23212  0.43470  0.41274  Biso   1.000  C
  C39      1.0000 0.73212  0.06530  0.91274  Biso   1.000  C
  C40      1.0000 0.76788  0.56530  0.58726  Biso   1.000  C
  C41      1.0000 0.07030  0.87480  0.07000  Biso   1.000  C
  C42      1.0000 0.42970  0.37480  0.43000  Biso   1.000  C
  C43      1.0000 0.92970  0.12520  0.93000  Biso   1.000  C
  C44      1.0000 0.57030  0.62520  0.57000  Biso   1.000  C
  C45      1.0000 0.98970  0.97800  0.08528  Biso   1.000  C
  C46      1.0000 0.51030  0.47800  0.41472  Biso   1.000  C
  C47      1.0000 0.01030  0.02200  0.91472  Biso   1.000  C
  C48      1.0000 0.48970  0.52200  0.58528  Biso   1.000  C
  H41      1.0000 0.91820  0.95200  0.07610  Biso   1.000  H
  H42      1.0000 0.58180  0.45200  0.42390  Biso   1.000  H
  H43      1.0000 0.08180  0.04800  0.92390  Biso   1.000  H
  H44      1.0000 0.41820  0.54800  0.57610  Biso   1.000  H
  C49      1.0000 0.03370  0.12980  0.11715  Biso   1.000  C
  C50      1.0000 0.46630  0.62980  0.38285  Biso   1.000  C
  C51      1.0000 0.96630  0.87020  0.88285  Biso   1.000  C
  C52      1.0000 0.53370  0.37020  0.61715  Biso   1.000  C
  C53      1.0000 0.06520  0.70190  0.03586  Biso   1.000  C
  C54      1.0000 0.43480  0.20190  0.46414  Biso   1.000  C
  C55      1.0000 0.93480  0.29810  0.96414  Biso   1.000  C
  C56      1.0000 0.56520  0.79810  0.53586  Biso   1.000  C
  H45      1.0000 0.99290  0.67100  0.02270  Biso   1.000  H
  H46      1.0000 0.50710  0.17100  0.47730  Biso   1.000  H
  H47      1.0000 0.00710  0.32900  0.97730  Biso   1.000  H
  H48      1.0000 0.49290  0.82900  0.52270  Biso   1.000  H
  H49      1.0000 0.09800  0.60390  0.05980  Biso   1.000  H
  H50      1.0000 0.40200  0.10390  0.44020  Biso   1.000  H
  H51      1.0000 0.90200  0.39610  0.94020  Biso   1.000  H
  H52      1.0000 0.59800  0.89610  0.55980  Biso   1.000  H
  H53      1.0000 0.10150  0.71850  0.00290  Biso   1.000  H
  H54      1.0000 0.39850  0.21850  0.49710  Biso   1.000  H
  H55      1.0000 0.89850  0.28150  0.99710  Biso   1.000  H
  H56      1.0000 0.60150  0.78150  0.50290  Biso   1.000  H
  C57      1.0000 0.97780  0.28440  0.14213  Biso   1.000  C
  C58      1.0000 0.52220  0.78440  0.35787  Biso   1.000  C
  C59      1.0000 0.02220  0.71560  0.85787  Biso   1.000  C
  C60      1.0000 0.47780  0.21560  0.64213  Biso   1.000  C
  H57      1.0000 0.02790  0.35830  0.16690  Biso   1.000  H
  H58      1.0000 0.47210  0.85830  0.33310  Biso   1.000  H
  H59      1.0000 0.97210  0.64170  0.83310  Biso   1.000  H
  H60      1.0000 0.52790  0.14170  0.66690  Biso   1.000  H
  H61      1.0000 0.92680  0.23500  0.16440  Biso   1.000  H
  H62      1.0000 0.57320  0.73500  0.33560  Biso   1.000  H
  H63      1.0000 0.07320  0.76500  0.83560  Biso   1.000  H
  H64      1.0000 0.42680  0.26500  0.66440  Biso   1.000  H
  H65      1.0000 0.94260  0.35950  0.11120  Biso   1.000  H
  H66      1.0000 0.55740  0.85950  0.38880  Biso   1.000  H
  H67      1.0000 0.05740  0.64050  0.88880  Biso   1.000  H
  H68      1.0000 0.44260  0.14050  0.61120  Biso   1.000  H
  C61      1.0000 0.63790  0.08430  0.26343  Biso   1.000  C
  C62      1.0000 0.86210  0.58430  0.23657  Biso   1.000  C
  C63      1.0000 0.36210  0.91570  0.73657  Biso   1.000  C
  C64      1.0000 0.13790  0.41570  0.76343  Biso   1.000  C
  C65      1.0000 0.60350  0.23430  0.29626  Biso   1.000  C
  C66      1.0000 0.89650  0.73430  0.20374  Biso   1.000  C
  C67      1.0000 0.39650  0.76570  0.70374  Biso   1.000  C
  C68      1.0000 0.10350  0.26570  0.79626  Biso   1.000  C
  H69      1.0000 0.62650  0.21380  0.33700  Biso   1.000  H
  H70      1.0000 0.87350  0.71380  0.16300  Biso   1.000  H
  H71      1.0000 0.37350  0.78620  0.66300  Biso   1.000  H
  H72      1.0000 0.12650  0.28620  0.83700  Biso   1.000  H
  H73      1.0000 0.52790  0.24170  0.28930  Biso   1.000  H
  H74      1.0000 0.97210  0.74170  0.21070  Biso   1.000  H
  H75      1.0000 0.47210  0.75830  0.71070  Biso   1.000  H
  H76      1.0000 0.02790  0.25830  0.78930  Biso   1.000  H
  H77      1.0000 0.63300  0.34770  0.28460  Biso   1.000  H
  H78      1.0000 0.86700  0.84770  0.21540  Biso   1.000  H
  H79      1.0000 0.36700  0.65230  0.71540  Biso   1.000  H
  H80      1.0000 0.13300  0.15230  0.78460  Biso   1.000  H
