data_image0
_cell_length_a       9.3824
_cell_length_b       9.4618
_cell_length_c       13.615
_cell_angle_alpha    106.55
_cell_angle_beta     97.9
_cell_angle_gamma    104.33

_symmetry_space_group_name_H-M    "P 1"
_symmetry_int_tables_number       1

loop_
  _symmetry_equiv_pos_as_xyz
  'x, y, z'

loop_
  _atom_site_label
  _atom_site_occupancy
  _atom_site_fract_x
  _atom_site_fract_y
  _atom_site_fract_z
  _atom_site_thermal_displace_type
  _atom_site_B_iso_or_equiv
  _atom_site_type_symbol
  Cu1      1.0000 0.49281  0.04850  0.12178  Biso   1.000  Cu
  Cu2      1.0000 0.50719  0.95150  0.87822  Biso   1.000  Cu
  Co1      1.0000 0.49466  0.13610  0.45772  Biso   1.000  Co
  Co2      1.0000 0.50534  0.86390  0.54228  Biso   1.000  Co
  N1       1.0000 0.32500  0.86310  0.13270  Biso   1.000  N
  N2       1.0000 0.67500  0.13690  0.86730  Biso   1.000  N
  N3       1.0000 0.37610  0.77710  0.18780  Biso   1.000  N
  N4       1.0000 0.62390  0.22290  0.81220  Biso   1.000  N
  N5       1.0000 0.59440  0.97660  0.23780  Biso   1.000  N
  N6       1.0000 0.40560  0.02340  0.76220  Biso   1.000  N
  N7       1.0000 0.79310  0.19270  0.26900  Biso   1.000  N
  N8       1.0000 0.20690  0.80730  0.73100  Biso   1.000  N
  N9       1.0000 0.69570  0.22390  0.19760  Biso   1.000  N
  N10      1.0000 0.30430  0.77610  0.80240  Biso   1.000  N
  N11      1.0000 0.58210  0.90640  0.00970  Biso   1.000  N
  N12      1.0000 0.41790  0.09360  0.99030  Biso   1.000  N
  N13      1.0000 0.64510  0.81280  0.01910  Biso   1.000  N
  N14      1.0000 0.35490  0.18720  0.98090  Biso   1.000  N
  N15      1.0000 0.70170  0.72290  0.02840  Biso   1.000  N
  N16      1.0000 0.29830  0.27710  0.97160  Biso   1.000  N
  N17      1.0000 0.37550  0.20540  0.20930  Biso   1.000  N
  N18      1.0000 0.62450  0.79460  0.79070  Biso   1.000  N
  N19      1.0000 0.35470  0.18410  0.28710  Biso   1.000  N
  N20      1.0000 0.64530  0.81590  0.71290  Biso   1.000  N
  N21      1.0000 0.33010  0.16150  0.36580  Biso   1.000  N
  N22      1.0000 0.66990  0.83850  0.63420  Biso   1.000  N
  N23      1.0000 0.36910  0.92810  0.44920  Biso   1.000  N
  N24      1.0000 0.63090  0.07190  0.55080  Biso   1.000  N
  N25      1.0000 0.23190  0.87500  0.41940  Biso   1.000  N
  N26      1.0000 0.76810  0.12500  0.58060  Biso   1.000  N
  N27      1.0000 0.10530  0.82520  0.39120  Biso   1.000  N
  N28      1.0000 0.89470  0.17480  0.60880  Biso   1.000  N
  N29      1.0000 0.65270  0.31690  0.46870  Biso   1.000  N
  N30      1.0000 0.34730  0.68310  0.53130  Biso   1.000  N
  N31      1.0000 0.62670  0.41860  0.43900  Biso   1.000  N
  N32      1.0000 0.37330  0.58140  0.56100  Biso   1.000  N
  N33      1.0000 0.61000  0.51940  0.41240  Biso   1.000  N
  N34      1.0000 0.39000  0.48060  0.58760  Biso   1.000  N
  C1       1.0000 0.26170  0.65060  0.18180  Biso   1.000  C
  C2       1.0000 0.73830  0.34940  0.81820  Biso   1.000  C
  C3       1.0000 0.13610  0.65690  0.12120  Biso   1.000  C
  C4       1.0000 0.86390  0.34310  0.87880  Biso   1.000  C
  H1       1.0000 0.03780  0.58510  0.10240  Biso   1.000  H
  H2       1.0000 0.96220  0.41490  0.89760  Biso   1.000  H
  C5       1.0000 0.17960  0.78970  0.09190  Biso   1.000  C
  C6       1.0000 0.82040  0.21030  0.90810  Biso   1.000  C
  C7       1.0000 0.27750  0.53320  0.23230  Biso   1.000  C
  C8       1.0000 0.72250  0.46680  0.76770  Biso   1.000  C
  H3       1.0000 0.17950  0.45470  0.21670  Biso   1.000  H
  H4       1.0000 0.82050  0.54530  0.78330  Biso   1.000  H
  H5       1.0000 0.31260  0.58380  0.30860  Biso   1.000  H
  H6       1.0000 0.68740  0.41620  0.69140  Biso   1.000  H
  H7       1.0000 0.35080  0.48390  0.20490  Biso   1.000  H
  H8       1.0000 0.64920  0.51610  0.79510  Biso   1.000  H
  C9       1.0000 0.08650  0.85000  0.02530  Biso   1.000  C
  C10      1.0000 0.91350  0.15000  0.97470  Biso   1.000  C
  H9       1.0000 0.12020  0.96330  0.05250  Biso   1.000  H
  H10      1.0000 0.87980  0.03670  0.94750  Biso   1.000  H
  H11      1.0000 0.98010  0.81180  0.02700  Biso   1.000  H
  H12      1.0000 0.01990  0.18820  0.97300  Biso   1.000  H
  H13      1.0000 0.09830  0.81450  0.95270  Biso   1.000  H
  H14      1.0000 0.90170  0.18550  0.04730  Biso   1.000  H
  C11      1.0000 0.52740  0.84040  0.24550  Biso   1.000  C
  C12      1.0000 0.47260  0.15960  0.75450  Biso   1.000  C
  C13      1.0000 0.60240  0.76990  0.30300  Biso   1.000  C
  C14      1.0000 0.39760  0.23010  0.69700  Biso   1.000  C
  H15      1.0000 0.55230  0.67370  0.30960  Biso   1.000  H
  H16      1.0000 0.44770  0.32630  0.69040  Biso   1.000  H
  C15      1.0000 0.75240  0.84520  0.34990  Biso   1.000  C
  C16      1.0000 0.24760  0.15480  0.65010  Biso   1.000  C
  H17      1.0000 0.80660  0.79960  0.38960  Biso   1.000  H
  H18      1.0000 0.19340  0.20040  0.61040  Biso   1.000  H
  C17      1.0000 0.82680  0.98600  0.34100  Biso   1.000  C
  C18      1.0000 0.17320  0.01400  0.65900  Biso   1.000  C
  H19      1.0000 0.93110  0.03650  0.37150  Biso   1.000  H
  H20      1.0000 0.06890  0.96350  0.62850  Biso   1.000  H
  C19      1.0000 0.73970  0.04860  0.28480  Biso   1.000  C
  C20      1.0000 0.26030  0.95140  0.71520  Biso   1.000  C
  C21      1.0000 0.91520  0.31920  0.32170  Biso   1.000  C
  C22      1.0000 0.08480  0.68080  0.67830  Biso   1.000  C
  C23      1.0000 0.89680  0.43260  0.28040  Biso   1.000  C
  C24      1.0000 0.10320  0.56740  0.71960  Biso   1.000  C
  H21      1.0000 0.96340  0.53470  0.30000  Biso   1.000  H
  H22      1.0000 0.03660  0.46530  0.70000  Biso   1.000  H
  C25      1.0000 0.76020  0.36800  0.20380  Biso   1.000  C
  C26      1.0000 0.23980  0.63200  0.79620  Biso   1.000  C
  C27      1.0000 0.03730  0.33080  0.40790  Biso   1.000  C
  C28      1.0000 0.96270  0.66920  0.59210  Biso   1.000  C
  H23      1.0000 0.99300  0.29760  0.46180  Biso   1.000  H
  H24      1.0000 0.00700  0.70240  0.53820  Biso   1.000  H
  H25      1.0000 0.10210  0.43830  0.43910  Biso   1.000  H
  H26      1.0000 0.89790  0.56170  0.56090  Biso   1.000  H
  H27      1.0000 0.09760  0.26430  0.37980  Biso   1.000  H
  H28      1.0000 0.90240  0.73570  0.62020  Biso   1.000  H
  C29      1.0000 0.68750  0.44150  0.13630  Biso   1.000  C
  C30      1.0000 0.31250  0.55850  0.86370  Biso   1.000  C
  H29      1.0000 0.69470  0.39670  0.06350  Biso   1.000  H
  H30      1.0000 0.30530  0.60330  0.93650  Biso   1.000  H
  H31      1.0000 0.73880  0.55310  0.16150  Biso   1.000  H
  H32      1.0000 0.26120  0.44690  0.83850  Biso   1.000  H
  H33      1.0000 0.58100  0.42310  0.13960  Biso   1.000  H
  H34      1.0000 0.41900  0.57690  0.86040  Biso   1.000  H
