data_image0
_cell_length_a       24.4394
_cell_length_b       7.4952
_cell_length_c       21.4748
_cell_angle_alpha    90
_cell_angle_beta     95.91
_cell_angle_gamma    90

_symmetry_space_group_name_H-M    "P 1"
_symmetry_int_tables_number       1

loop_
  _symmetry_equiv_pos_as_xyz
  'x, y, z'

loop_
  _atom_site_label
  _atom_site_occupancy
  _atom_site_fract_x
  _atom_site_fract_y
  _atom_site_fract_z
  _atom_site_thermal_displace_type
  _atom_site_B_iso_or_equiv
  _atom_site_type_symbol
  Cu1      1.0000 0.60102  0.88176  0.65252  Biso   1.000  Cu
  Cu2      1.0000 0.10102  0.38176  0.65252  Biso   1.000  Cu
  Cu3      1.0000 0.39898  0.88176  0.84748  Biso   1.000  Cu
  Cu4      1.0000 0.89898  0.38176  0.84748  Biso   1.000  Cu
  Cu5      1.0000 0.39898  0.11824  0.34748  Biso   1.000  Cu
  Cu6      1.0000 0.89898  0.61824  0.34748  Biso   1.000  Cu
  Cu7      1.0000 0.60102  0.11824  0.15252  Biso   1.000  Cu
  Cu8      1.0000 0.10102  0.61824  0.15252  Biso   1.000  Cu
  Cl1      1.0000 0.67377  0.42298  0.58542  Biso   1.000  Cl
  Cl2      1.0000 0.17377  0.92298  0.58542  Biso   1.000  Cl
  Cl3      1.0000 0.32623  0.42298  0.91458  Biso   1.000  Cl
  Cl4      1.0000 0.82623  0.92298  0.91458  Biso   1.000  Cl
  Cl5      1.0000 0.32623  0.57702  0.41458  Biso   1.000  Cl
  Cl6      1.0000 0.82623  0.07702  0.41458  Biso   1.000  Cl
  Cl7      1.0000 0.67377  0.57702  0.08542  Biso   1.000  Cl
  Cl8      1.0000 0.17377  0.07702  0.08542  Biso   1.000  Cl
  O1       1.0000 0.69113  0.56540  0.62703  Biso   1.000  O
  O2       1.0000 0.19113  0.06540  0.62703  Biso   1.000  O
  O3       1.0000 0.30887  0.56540  0.87297  Biso   1.000  O
  O4       1.0000 0.80887  0.06540  0.87297  Biso   1.000  O
  O5       1.0000 0.30887  0.43460  0.37297  Biso   1.000  O
  O6       1.0000 0.80887  0.93460  0.37297  Biso   1.000  O
  O7       1.0000 0.69113  0.43460  0.12703  Biso   1.000  O
  O8       1.0000 0.19113  0.93460  0.12703  Biso   1.000  O
  O9       1.0000 0.63587  0.30920  0.61146  Biso   1.000  O
  O10      1.0000 0.13587  0.80920  0.61146  Biso   1.000  O
  O11      1.0000 0.36413  0.30920  0.88854  Biso   1.000  O
  O12      1.0000 0.86413  0.80920  0.88854  Biso   1.000  O
  O13      1.0000 0.36413  0.69080  0.38854  Biso   1.000  O
  O14      1.0000 0.86413  0.19080  0.38854  Biso   1.000  O
  O15      1.0000 0.63587  0.69080  0.11146  Biso   1.000  O
  O16      1.0000 0.13587  0.19080  0.11146  Biso   1.000  O
  O17      1.0000 0.72211  0.32200  0.57389  Biso   1.000  O
  O18      1.0000 0.22211  0.82200  0.57389  Biso   1.000  O
  O19      1.0000 0.27789  0.32200  0.92611  Biso   1.000  O
  O20      1.0000 0.77789  0.82200  0.92611  Biso   1.000  O
  O21      1.0000 0.27789  0.67800  0.42611  Biso   1.000  O
  O22      1.0000 0.77789  0.17800  0.42611  Biso   1.000  O
  O23      1.0000 0.72211  0.67800  0.07389  Biso   1.000  O
  O24      1.0000 0.22211  0.17800  0.07389  Biso   1.000  O
  O25      1.0000 0.65036  0.49540  0.52648  Biso   1.000  O
  O26      1.0000 0.15036  0.99540  0.52648  Biso   1.000  O
  O27      1.0000 0.34964  0.49540  0.97352  Biso   1.000  O
  O28      1.0000 0.84964  0.99540  0.97352  Biso   1.000  O
  O29      1.0000 0.34964  0.50460  0.47352  Biso   1.000  O
  O30      1.0000 0.84964  0.00460  0.47352  Biso   1.000  O
  O31      1.0000 0.65036  0.50460  0.02648  Biso   1.000  O
  O32      1.0000 0.15036  0.00460  0.02648  Biso   1.000  O
  N1       1.0000 0.67878  0.93990  0.68254  Biso   1.000  N
  N2       1.0000 0.17878  0.43990  0.68254  Biso   1.000  N
  N3       1.0000 0.32122  0.93990  0.81746  Biso   1.000  N
  N4       1.0000 0.82122  0.43990  0.81746  Biso   1.000  N
  N5       1.0000 0.32122  0.06010  0.31746  Biso   1.000  N
  N6       1.0000 0.82122  0.56010  0.31746  Biso   1.000  N
  N7       1.0000 0.67878  0.06010  0.18254  Biso   1.000  N
  N8       1.0000 0.17878  0.56010  0.18254  Biso   1.000  N
  N9       1.0000 0.71277  0.95490  0.63559  Biso   1.000  N
  N10      1.0000 0.21277  0.45490  0.63559  Biso   1.000  N
  N11      1.0000 0.28723  0.95490  0.86441  Biso   1.000  N
  N12      1.0000 0.78723  0.45490  0.86441  Biso   1.000  N
  N13      1.0000 0.28723  0.04510  0.36441  Biso   1.000  N
  N14      1.0000 0.78723  0.54510  0.36441  Biso   1.000  N
  N15      1.0000 0.71277  0.04510  0.13559  Biso   1.000  N
  N16      1.0000 0.21277  0.54510  0.13559  Biso   1.000  N
  N17      1.0000 0.63479  0.89190  0.57295  Biso   1.000  N
  N18      1.0000 0.13479  0.39190  0.57295  Biso   1.000  N
  N19      1.0000 0.36521  0.89190  0.92705  Biso   1.000  N
  N20      1.0000 0.86521  0.39190  0.92705  Biso   1.000  N
  N21      1.0000 0.36521  0.10810  0.42705  Biso   1.000  N
  N22      1.0000 0.86521  0.60810  0.42705  Biso   1.000  N
  N23      1.0000 0.63479  0.10810  0.07295  Biso   1.000  N
  N24      1.0000 0.13479  0.60810  0.07295  Biso   1.000  N
  N25      1.0000 0.54960  0.81740  0.52887  Biso   1.000  N
  N26      1.0000 0.04960  0.31740  0.52887  Biso   1.000  N
  N27      1.0000 0.45040  0.81740  0.97113  Biso   1.000  N
  N28      1.0000 0.95040  0.31740  0.97113  Biso   1.000  N
  N29      1.0000 0.45040  0.18260  0.47113  Biso   1.000  N
  N30      1.0000 0.95040  0.68260  0.47113  Biso   1.000  N
  N31      1.0000 0.54960  0.18260  0.02887  Biso   1.000  N
  N32      1.0000 0.04960  0.68260  0.02887  Biso   1.000  N
  N33      1.0000 0.53632  0.83200  0.58943  Biso   1.000  N
  N34      1.0000 0.03632  0.33200  0.58943  Biso   1.000  N
  N35      1.0000 0.46368  0.83200  0.91057  Biso   1.000  N
  N36      1.0000 0.96368  0.33200  0.91057  Biso   1.000  N
  N37      1.0000 0.46368  0.16800  0.41057  Biso   1.000  N
  N38      1.0000 0.96368  0.66800  0.41057  Biso   1.000  N
  N39      1.0000 0.53632  0.16800  0.08943  Biso   1.000  N
  N40      1.0000 0.03632  0.66800  0.08943  Biso   1.000  N
  N41      1.0000 0.56658  0.07630  0.70381  Biso   1.000  N
  N42      1.0000 0.06658  0.57630  0.70381  Biso   1.000  N
  N43      1.0000 0.43342  0.07630  0.79619  Biso   1.000  N
  N44      1.0000 0.93342  0.57630  0.79619  Biso   1.000  N
  N45      1.0000 0.43342  0.92370  0.29619  Biso   1.000  N
  N46      1.0000 0.93342  0.42370  0.29619  Biso   1.000  N
  N47      1.0000 0.56658  0.92370  0.20381  Biso   1.000  N
  N48      1.0000 0.06658  0.42370  0.20381  Biso   1.000  N
  N49      1.0000 0.57581  0.36910  0.75481  Biso   1.000  N
  N50      1.0000 0.07581  0.86910  0.75481  Biso   1.000  N
  N51      1.0000 0.42419  0.36910  0.74519  Biso   1.000  N
  N52      1.0000 0.92419  0.86910  0.74519  Biso   1.000  N
  N53      1.0000 0.42419  0.63090  0.24519  Biso   1.000  N
  N54      1.0000 0.92419  0.13090  0.24519  Biso   1.000  N
  N55      1.0000 0.57581  0.63090  0.25481  Biso   1.000  N
  N56      1.0000 0.07581  0.13090  0.25481  Biso   1.000  N
  C1       1.0000 0.76540  0.99460  0.66013  Biso   1.000  C
  C2       1.0000 0.26540  0.49460  0.66013  Biso   1.000  C
  C3       1.0000 0.23460  0.99460  0.83987  Biso   1.000  C
  C4       1.0000 0.73460  0.49460  0.83987  Biso   1.000  C
  C5       1.0000 0.23460  0.00540  0.33987  Biso   1.000  C
  C6       1.0000 0.73460  0.50540  0.33987  Biso   1.000  C
  C7       1.0000 0.76540  0.00540  0.16013  Biso   1.000  C
  C8       1.0000 0.26540  0.50540  0.16013  Biso   1.000  C
  C9       1.0000 0.76420  0.00440  0.72362  Biso   1.000  C
  C10      1.0000 0.26420  0.50440  0.72362  Biso   1.000  C
  C11      1.0000 0.23580  0.00440  0.77638  Biso   1.000  C
  C12      1.0000 0.73580  0.50440  0.77638  Biso   1.000  C
  C13      1.0000 0.23580  0.99560  0.27638  Biso   1.000  C
  C14      1.0000 0.73580  0.49560  0.27638  Biso   1.000  C
  C15      1.0000 0.76420  0.99560  0.22362  Biso   1.000  C
  C16      1.0000 0.26420  0.49560  0.22362  Biso   1.000  C
  H1       1.0000 0.79450  0.02890  0.75380  Biso   1.000  H
  H2       1.0000 0.29450  0.52890  0.75380  Biso   1.000  H
  H3       1.0000 0.20550  0.02890  0.74620  Biso   1.000  H
  H4       1.0000 0.70550  0.52890  0.74620  Biso   1.000  H
  H5       1.0000 0.20550  0.97110  0.24620  Biso   1.000  H
  H6       1.0000 0.70550  0.47110  0.24620  Biso   1.000  H
  H7       1.0000 0.79450  0.97110  0.25380  Biso   1.000  H
  H8       1.0000 0.29450  0.47110  0.25380  Biso   1.000  H
  C17      1.0000 0.70961  0.97140  0.73583  Biso   1.000  C
  C18      1.0000 0.20961  0.47140  0.73583  Biso   1.000  C
  C19      1.0000 0.29039  0.97140  0.76417  Biso   1.000  C
  C20      1.0000 0.79039  0.47140  0.76417  Biso   1.000  C
  C21      1.0000 0.29039  0.02860  0.26417  Biso   1.000  C
  C22      1.0000 0.79039  0.52860  0.26417  Biso   1.000  C
  C23      1.0000 0.70961  0.02860  0.23583  Biso   1.000  C
  C24      1.0000 0.20961  0.52860  0.23583  Biso   1.000  C
  C25      1.0000 0.81267  0.02010  0.62283  Biso   1.000  C
  C26      1.0000 0.31267  0.52010  0.62283  Biso   1.000  C
  C27      1.0000 0.18733  0.02010  0.87717  Biso   1.000  C
  C28      1.0000 0.68733  0.52010  0.87717  Biso   1.000  C
  C29      1.0000 0.18733  0.97990  0.37717  Biso   1.000  C
  C30      1.0000 0.68733  0.47990  0.37717  Biso   1.000  C
  C31      1.0000 0.81267  0.97990  0.12283  Biso   1.000  C
  C32      1.0000 0.31267  0.47990  0.12283  Biso   1.000  C
  H9       1.0000 0.84630  0.03840  0.65110  Biso   1.000  H
  H10      1.0000 0.34630  0.53840  0.65110  Biso   1.000  H
  H11      1.0000 0.15370  0.03840  0.84890  Biso   1.000  H
  H12      1.0000 0.65370  0.53840  0.84890  Biso   1.000  H
  H13      1.0000 0.15370  0.96160  0.34890  Biso   1.000  H
  H14      1.0000 0.65370  0.46160  0.34890  Biso   1.000  H
  H15      1.0000 0.84630  0.96160  0.15110  Biso   1.000  H
  H16      1.0000 0.34630  0.46160  0.15110  Biso   1.000  H
  H17      1.0000 0.80600  0.12470  0.59570  Biso   1.000  H
  H18      1.0000 0.30600  0.62470  0.59570  Biso   1.000  H
  H19      1.0000 0.19400  0.12470  0.90430  Biso   1.000  H
  H20      1.0000 0.69400  0.62470  0.90430  Biso   1.000  H
  H21      1.0000 0.19400  0.87530  0.40430  Biso   1.000  H
  H22      1.0000 0.69400  0.37530  0.40430  Biso   1.000  H
  H23      1.0000 0.80600  0.87530  0.09570  Biso   1.000  H
  H24      1.0000 0.30600  0.37530  0.09570  Biso   1.000  H
  H25      1.0000 0.81690  0.91410  0.59700  Biso   1.000  H
  H26      1.0000 0.31690  0.41410  0.59700  Biso   1.000  H
  H27      1.0000 0.18310  0.91410  0.90300  Biso   1.000  H
  H28      1.0000 0.68310  0.41410  0.90300  Biso   1.000  H
  H29      1.0000 0.18310  0.08590  0.40300  Biso   1.000  H
  H30      1.0000 0.68310  0.58590  0.40300  Biso   1.000  H
  H31      1.0000 0.81690  0.08590  0.09700  Biso   1.000  H
  H32      1.0000 0.31690  0.58590  0.09700  Biso   1.000  H
  C33      1.0000 0.68524  0.97070  0.79645  Biso   1.000  C
  C34      1.0000 0.18524  0.47070  0.79645  Biso   1.000  C
  C35      1.0000 0.31476  0.97070  0.70355  Biso   1.000  C
  C36      1.0000 0.81476  0.47070  0.70355  Biso   1.000  C
  C37      1.0000 0.31476  0.02930  0.20355  Biso   1.000  C
  C38      1.0000 0.81476  0.52930  0.20355  Biso   1.000  C
  C39      1.0000 0.68524  0.02930  0.29645  Biso   1.000  C
  C40      1.0000 0.18524  0.52930  0.29645  Biso   1.000  C
  H33      1.0000 0.67820  0.09360  0.80890  Biso   1.000  H
  H34      1.0000 0.17820  0.59360  0.80890  Biso   1.000  H
  H35      1.0000 0.32180  0.09360  0.69110  Biso   1.000  H
  H36      1.0000 0.82180  0.59360  0.69110  Biso   1.000  H
  H37      1.0000 0.32180  0.90640  0.19110  Biso   1.000  H
  H38      1.0000 0.82180  0.40640  0.19110  Biso   1.000  H
  H39      1.0000 0.67820  0.90640  0.30890  Biso   1.000  H
  H40      1.0000 0.17820  0.40640  0.30890  Biso   1.000  H
  H41      1.0000 0.71090  0.91380  0.82860  Biso   1.000  H
  H42      1.0000 0.21090  0.41380  0.82860  Biso   1.000  H
  H43      1.0000 0.28910  0.91380  0.67140  Biso   1.000  H
  H44      1.0000 0.78910  0.41380  0.67140  Biso   1.000  H
  H45      1.0000 0.28910  0.08620  0.17140  Biso   1.000  H
  H46      1.0000 0.78910  0.58620  0.17140  Biso   1.000  H
  H47      1.0000 0.71090  0.08620  0.32860  Biso   1.000  H
  H48      1.0000 0.21090  0.58620  0.32860  Biso   1.000  H
  H49      1.0000 0.65060  0.90400  0.79180  Biso   1.000  H
  H50      1.0000 0.15060  0.40400  0.79180  Biso   1.000  H
  H51      1.0000 0.34940  0.90400  0.70820  Biso   1.000  H
  H52      1.0000 0.84940  0.40400  0.70820  Biso   1.000  H
  H53      1.0000 0.34940  0.09600  0.20820  Biso   1.000  H
  H54      1.0000 0.84940  0.59600  0.20820  Biso   1.000  H
  H55      1.0000 0.65060  0.09600  0.29180  Biso   1.000  H
  H56      1.0000 0.15060  0.59600  0.29180  Biso   1.000  H
  C41      1.0000 0.68800  0.93220  0.57420  Biso   1.000  C
  C42      1.0000 0.18800  0.43220  0.57420  Biso   1.000  C
  C43      1.0000 0.31200  0.93220  0.92580  Biso   1.000  C
  C44      1.0000 0.81200  0.43220  0.92580  Biso   1.000  C
  C45      1.0000 0.31200  0.06780  0.42580  Biso   1.000  C
  C46      1.0000 0.81200  0.56780  0.42580  Biso   1.000  C
  C47      1.0000 0.68800  0.06780  0.07420  Biso   1.000  C
  C48      1.0000 0.18800  0.56780  0.07420  Biso   1.000  C
  C49      1.0000 0.71343  0.94900  0.51985  Biso   1.000  C
  C50      1.0000 0.21343  0.44900  0.51985  Biso   1.000  C
  C51      1.0000 0.28657  0.94900  0.98015  Biso   1.000  C
  C52      1.0000 0.78657  0.44900  0.98015  Biso   1.000  C
  C53      1.0000 0.28657  0.05100  0.48015  Biso   1.000  C
  C54      1.0000 0.78657  0.55100  0.48015  Biso   1.000  C
  C55      1.0000 0.71343  0.05100  0.01985  Biso   1.000  C
  C56      1.0000 0.21343  0.55100  0.01985  Biso   1.000  C
  H57      1.0000 0.75150  0.97610  0.52090  Biso   1.000  H
  H58      1.0000 0.25150  0.47610  0.52090  Biso   1.000  H
  H59      1.0000 0.24850  0.97610  0.97910  Biso   1.000  H
  H60      1.0000 0.74850  0.47610  0.97910  Biso   1.000  H
  H61      1.0000 0.24850  0.02390  0.47910  Biso   1.000  H
  H62      1.0000 0.74850  0.52390  0.47910  Biso   1.000  H
  H63      1.0000 0.75150  0.02390  0.02090  Biso   1.000  H
  H64      1.0000 0.25150  0.52390  0.02090  Biso   1.000  H
  C57      1.0000 0.68082  0.92430  0.46407  Biso   1.000  C
  C58      1.0000 0.18082  0.42430  0.46407  Biso   1.000  C
  C59      1.0000 0.31918  0.92430  0.03593  Biso   1.000  C
  C60      1.0000 0.81918  0.42430  0.03593  Biso   1.000  C
  C61      1.0000 0.31918  0.07570  0.53593  Biso   1.000  C
  C62      1.0000 0.81918  0.57570  0.53593  Biso   1.000  C
  C63      1.0000 0.68082  0.07570  0.96407  Biso   1.000  C
  C64      1.0000 0.18082  0.57570  0.96407  Biso   1.000  C
  H65      1.0000 0.69680  0.93780  0.42590  Biso   1.000  H
  H66      1.0000 0.19680  0.43780  0.42590  Biso   1.000  H
  H67      1.0000 0.30320  0.93780  0.07410  Biso   1.000  H
  H68      1.0000 0.80320  0.43780  0.07410  Biso   1.000  H
  H69      1.0000 0.30320  0.06220  0.57410  Biso   1.000  H
  H70      1.0000 0.80320  0.56220  0.57410  Biso   1.000  H
  H71      1.0000 0.69680  0.06220  0.92590  Biso   1.000  H
  H72      1.0000 0.19680  0.56220  0.92590  Biso   1.000  H
  C65      1.0000 0.62533  0.88030  0.46194  Biso   1.000  C
  C66      1.0000 0.12533  0.38030  0.46194  Biso   1.000  C
  C67      1.0000 0.37467  0.88030  0.03806  Biso   1.000  C
  C68      1.0000 0.87467  0.38030  0.03806  Biso   1.000  C
  C69      1.0000 0.37467  0.11970  0.53806  Biso   1.000  C
  C70      1.0000 0.87467  0.61970  0.53806  Biso   1.000  C
  C71      1.0000 0.62533  0.11970  0.96194  Biso   1.000  C
  C72      1.0000 0.12533  0.61970  0.96194  Biso   1.000  C
  H73      1.0000 0.60310  0.86310  0.42340  Biso   1.000  H
  H74      1.0000 0.10310  0.36310  0.42340  Biso   1.000  H
  H75      1.0000 0.39690  0.86310  0.07660  Biso   1.000  H
  H76      1.0000 0.89690  0.36310  0.07660  Biso   1.000  H
  H77      1.0000 0.39690  0.13690  0.57660  Biso   1.000  H
  H78      1.0000 0.89690  0.63690  0.57660  Biso   1.000  H
  H79      1.0000 0.60310  0.13690  0.92340  Biso   1.000  H
  H80      1.0000 0.10310  0.63690  0.92340  Biso   1.000  H
  C73      1.0000 0.60432  0.86320  0.51927  Biso   1.000  C
  C74      1.0000 0.10432  0.36320  0.51927  Biso   1.000  C
  C75      1.0000 0.39568  0.86320  0.98073  Biso   1.000  C
  C76      1.0000 0.89568  0.36320  0.98073  Biso   1.000  C
  C77      1.0000 0.39568  0.13680  0.48073  Biso   1.000  C
  C78      1.0000 0.89568  0.63680  0.48073  Biso   1.000  C
  C79      1.0000 0.60432  0.13680  0.01927  Biso   1.000  C
  C80      1.0000 0.10432  0.63680  0.01927  Biso   1.000  C
  C81      1.0000 0.50598  0.75410  0.49019  Biso   1.000  C
  C82      1.0000 0.00598  0.25410  0.49019  Biso   1.000  C
  C83      1.0000 0.49402  0.75410  0.00981  Biso   1.000  C
  C84      1.0000 0.99402  0.25410  0.00981  Biso   1.000  C
  C85      1.0000 0.49402  0.24590  0.50981  Biso   1.000  C
  C86      1.0000 0.99402  0.74590  0.50981  Biso   1.000  C
  C87      1.0000 0.50598  0.24590  0.99019  Biso   1.000  C
  C88      1.0000 0.00598  0.74590  0.99019  Biso   1.000  C
  C89      1.0000 0.46401  0.73050  0.52703  Biso   1.000  C
  C90      1.0000 0.96401  0.23050  0.52703  Biso   1.000  C
  C91      1.0000 0.53599  0.73050  0.97297  Biso   1.000  C
  C92      1.0000 0.03599  0.23050  0.97297  Biso   1.000  C
  C93      1.0000 0.53599  0.26950  0.47297  Biso   1.000  C
  C94      1.0000 0.03599  0.76950  0.47297  Biso   1.000  C
  C95      1.0000 0.46401  0.26950  0.02703  Biso   1.000  C
  C96      1.0000 0.96401  0.76950  0.02703  Biso   1.000  C
  H81      1.0000 0.42800  0.68850  0.51370  Biso   1.000  H
  H82      1.0000 0.92800  0.18850  0.51370  Biso   1.000  H
  H83      1.0000 0.57200  0.68850  0.98630  Biso   1.000  H
  H84      1.0000 0.07200  0.18850  0.98630  Biso   1.000  H
  H85      1.0000 0.57200  0.31150  0.48630  Biso   1.000  H
  H86      1.0000 0.07200  0.81150  0.48630  Biso   1.000  H
  H87      1.0000 0.42800  0.31150  0.01370  Biso   1.000  H
  H88      1.0000 0.92800  0.81150  0.01370  Biso   1.000  H
  C97      1.0000 0.48424  0.78020  0.58839  Biso   1.000  C
  C98      1.0000 0.98424  0.28020  0.58839  Biso   1.000  C
  C99      1.0000 0.51576  0.78020  0.91161  Biso   1.000  C
  C100     1.0000 0.01576  0.28020  0.91161  Biso   1.000  C
  C101     1.0000 0.51576  0.21980  0.41161  Biso   1.000  C
  C102     1.0000 0.01576  0.71980  0.41161  Biso   1.000  C
  C103     1.0000 0.48424  0.21980  0.08839  Biso   1.000  C
  C104     1.0000 0.98424  0.71980  0.08839  Biso   1.000  C
  C105     1.0000 0.50728  0.71400  0.42231  Biso   1.000  C
  C106     1.0000 0.00728  0.21400  0.42231  Biso   1.000  C
  C107     1.0000 0.49272  0.71400  0.07769  Biso   1.000  C
  C108     1.0000 0.99272  0.21400  0.07769  Biso   1.000  C
  C109     1.0000 0.49272  0.28600  0.57769  Biso   1.000  C
  C110     1.0000 0.99272  0.78600  0.57769  Biso   1.000  C
  C111     1.0000 0.50728  0.28600  0.92231  Biso   1.000  C
  C112     1.0000 0.00728  0.78600  0.92231  Biso   1.000  C
  H89      1.0000 0.51180  0.82530  0.39940  Biso   1.000  H
  H90      1.0000 0.01180  0.32530  0.39940  Biso   1.000  H
  H91      1.0000 0.48820  0.82530  0.10060  Biso   1.000  H
  H92      1.0000 0.98820  0.32530  0.10060  Biso   1.000  H
  H93      1.0000 0.48820  0.17470  0.60060  Biso   1.000  H
  H94      1.0000 0.98820  0.67470  0.60060  Biso   1.000  H
  H95      1.0000 0.51180  0.17470  0.89940  Biso   1.000  H
  H96      1.0000 0.01180  0.67470  0.89940  Biso   1.000  H
  H97      1.0000 0.47280  0.65630  0.40600  Biso   1.000  H
  H98      1.0000 0.97280  0.15630  0.40600  Biso   1.000  H
  H99      1.0000 0.52720  0.65630  0.09400  Biso   1.000  H
  H100     1.0000 0.02720  0.15630  0.09400  Biso   1.000  H
  H101     1.0000 0.52720  0.34370  0.59400  Biso   1.000  H
  H102     1.0000 0.02720  0.84370  0.59400  Biso   1.000  H
  H103     1.0000 0.47280  0.34370  0.90600  Biso   1.000  H
  H104     1.0000 0.97280  0.84370  0.90600  Biso   1.000  H
  H105     1.0000 0.53820  0.63410  0.41690  Biso   1.000  H
  H106     1.0000 0.03820  0.13410  0.41690  Biso   1.000  H
  H107     1.0000 0.46180  0.63410  0.08310  Biso   1.000  H
  H108     1.0000 0.96180  0.13410  0.08310  Biso   1.000  H
  H109     1.0000 0.46180  0.36590  0.58310  Biso   1.000  H
  H110     1.0000 0.96180  0.86590  0.58310  Biso   1.000  H
  H111     1.0000 0.53820  0.36590  0.91690  Biso   1.000  H
  H112     1.0000 0.03820  0.86590  0.91690  Biso   1.000  H
  C113     1.0000 0.45666  0.77610  0.64663  Biso   1.000  C
  C114     1.0000 0.95666  0.27610  0.64663  Biso   1.000  C
  C115     1.0000 0.54334  0.77610  0.85337  Biso   1.000  C
  C116     1.0000 0.04334  0.27610  0.85337  Biso   1.000  C
  C117     1.0000 0.54334  0.22390  0.35337  Biso   1.000  C
  C118     1.0000 0.04334  0.72390  0.35337  Biso   1.000  C
  C119     1.0000 0.45666  0.22390  0.14663  Biso   1.000  C
  C120     1.0000 0.95666  0.72390  0.14663  Biso   1.000  C
  H113     1.0000 0.45940  0.65580  0.66460  Biso   1.000  H
  H114     1.0000 0.95940  0.15580  0.66460  Biso   1.000  H
  H115     1.0000 0.54060  0.65580  0.83540  Biso   1.000  H
  H116     1.0000 0.04060  0.15580  0.83540  Biso   1.000  H
  H117     1.0000 0.54060  0.34420  0.33540  Biso   1.000  H
  H118     1.0000 0.04060  0.84420  0.33540  Biso   1.000  H
  H119     1.0000 0.45940  0.34420  0.16460  Biso   1.000  H
  H120     1.0000 0.95940  0.84420  0.16460  Biso   1.000  H
  H121     1.0000 0.41780  0.80830  0.63710  Biso   1.000  H
  H122     1.0000 0.91780  0.30830  0.63710  Biso   1.000  H
  H123     1.0000 0.58220  0.80830  0.86290  Biso   1.000  H
  H124     1.0000 0.08220  0.30830  0.86290  Biso   1.000  H
  H125     1.0000 0.58220  0.19170  0.36290  Biso   1.000  H
  H126     1.0000 0.08220  0.69170  0.36290  Biso   1.000  H
  H127     1.0000 0.41780  0.19170  0.13710  Biso   1.000  H
  H128     1.0000 0.91780  0.69170  0.13710  Biso   1.000  H
  H129     1.0000 0.47450  0.86150  0.67680  Biso   1.000  H
  H130     1.0000 0.97450  0.36150  0.67680  Biso   1.000  H
  H131     1.0000 0.52550  0.86150  0.82320  Biso   1.000  H
  H132     1.0000 0.02550  0.36150  0.82320  Biso   1.000  H
  H133     1.0000 0.52550  0.13850  0.32320  Biso   1.000  H
  H134     1.0000 0.02550  0.63850  0.32320  Biso   1.000  H
  H135     1.0000 0.47450  0.13850  0.17680  Biso   1.000  H
  H136     1.0000 0.97450  0.63850  0.17680  Biso   1.000  H
  C121     1.0000 0.57120  0.21840  0.72497  Biso   1.000  C
  C122     1.0000 0.07120  0.71840  0.72497  Biso   1.000  C
  C123     1.0000 0.42880  0.21840  0.77503  Biso   1.000  C
  C124     1.0000 0.92880  0.71840  0.77503  Biso   1.000  C
  C125     1.0000 0.42880  0.78160  0.27503  Biso   1.000  C
  C126     1.0000 0.92880  0.28160  0.27503  Biso   1.000  C
  C127     1.0000 0.57120  0.78160  0.22497  Biso   1.000  C
  C128     1.0000 0.07120  0.28160  0.22497  Biso   1.000  C
  N57      1.0000 0.58839  0.66130  0.70770  Biso   1.000  N
  N58      1.0000 0.08839  0.16130  0.70770  Biso   1.000  N
  N59      1.0000 0.41161  0.66130  0.79230  Biso   1.000  N
  N60      1.0000 0.91161  0.16130  0.79230  Biso   1.000  N
  N61      1.0000 0.41161  0.33870  0.29230  Biso   1.000  N
  N62      1.0000 0.91161  0.83870  0.29230  Biso   1.000  N
  N63      1.0000 0.58839  0.33870  0.20770  Biso   1.000  N
  N64      1.0000 0.08839  0.83870  0.20770  Biso   1.000  N
  C129     1.0000 0.58237  0.51920  0.72606  Biso   1.000  C
  C130     1.0000 0.08237  0.01920  0.72606  Biso   1.000  C
  C131     1.0000 0.41763  0.51920  0.77394  Biso   1.000  C
  C132     1.0000 0.91763  0.01920  0.77394  Biso   1.000  C
  C133     1.0000 0.41763  0.48080  0.27394  Biso   1.000  C
  C134     1.0000 0.91763  0.98080  0.27394  Biso   1.000  C
  C135     1.0000 0.58237  0.48080  0.22606  Biso   1.000  C
  C136     1.0000 0.08237  0.98080  0.22606  Biso   1.000  C
