data_image0
_cell_length_a       11.852
_cell_length_b       11.868
_cell_length_c       11.91
_cell_angle_alpha    102.21
_cell_angle_beta     112.52
_cell_angle_gamma    112.14

_symmetry_space_group_name_H-M    "P 1"
_symmetry_int_tables_number       1

loop_
  _symmetry_equiv_pos_as_xyz
  'x, y, z'

loop_
  _atom_site_label
  _atom_site_occupancy
  _atom_site_fract_x
  _atom_site_fract_y
  _atom_site_fract_z
  _atom_site_thermal_displace_type
  _atom_site_B_iso_or_equiv
  _atom_site_type_symbol
  Cu1      1.0000 0.51979  0.97505  0.36539  Biso   1.000  Cu
  Cu2      1.0000 0.48021  0.02495  0.63461  Biso   1.000  Cu
  Ni1      1.0000 0.60282  0.10575  0.14615  Biso   1.000  Ni
  Ni2      1.0000 0.39718  0.89425  0.85385  Biso   1.000  Ni
  Cl1      1.0000 0.71359  0.33040  0.22872  Biso   1.000  Cl
  Cl2      1.0000 0.28641  0.66960  0.77128  Biso   1.000  Cl
  N1       1.0000 0.39990  0.04910  0.26210  Biso   1.000  N
  N2       1.0000 0.60010  0.95090  0.73790  Biso   1.000  N
  N3       1.0000 0.28550  0.95240  0.13800  Biso   1.000  N
  N4       1.0000 0.71450  0.04760  0.86200  Biso   1.000  N
  N5       1.0000 0.37280  0.81730  0.19030  Biso   1.000  N
  N6       1.0000 0.62720  0.18270  0.80970  Biso   1.000  N
  N7       1.0000 0.48930  0.71420  0.27850  Biso   1.000  N
  N8       1.0000 0.51070  0.28580  0.72150  Biso   1.000  N
  N9       1.0000 0.58310  0.83730  0.38580  Biso   1.000  N
  N10      1.0000 0.41690  0.16270  0.61420  Biso   1.000  N
  N11      1.0000 0.36760  0.88880  0.44420  Biso   1.000  N
  N12      1.0000 0.63240  0.11120  0.55580  Biso   1.000  N
  N13      1.0000 0.27090  0.80240  0.39520  Biso   1.000  N
  N14      1.0000 0.72910  0.19760  0.60480  Biso   1.000  N
  N15      1.0000 0.15580  0.69260  0.32530  Biso   1.000  N
  N16      1.0000 0.84420  0.30740  0.67470  Biso   1.000  N
  N17      1.0000 0.67920  0.07830  0.30950  Biso   1.000  N
  N18      1.0000 0.32080  0.92170  0.69050  Biso   1.000  N
  N19      1.0000 0.79240  0.10320  0.35980  Biso   1.000  N
  N20      1.0000 0.20760  0.89680  0.64020  Biso   1.000  N
  N21      1.0000 0.91260  0.12590  0.41440  Biso   1.000  N
  N22      1.0000 0.08740  0.87410  0.58560  Biso   1.000  N
  N23      1.0000 0.55040  0.92800  0.02560  Biso   1.000  N
  N24      1.0000 0.44960  0.07200  0.97440  Biso   1.000  N
  N25      1.0000 0.57500  0.84310  0.05530  Biso   1.000  N
  N26      1.0000 0.42500  0.15690  0.94470  Biso   1.000  N
  N27      1.0000 0.60220  0.76940  0.08590  Biso   1.000  N
  N28      1.0000 0.39780  0.23060  0.91410  Biso   1.000  N
  N29      1.0000 0.22140  0.40600  0.29060  Biso   1.000  N
  N30      1.0000 0.77860  0.59400  0.70940  Biso   1.000  N
  N31      1.0000 0.93230  0.77500  0.08280  Biso   1.000  N
  N32      1.0000 0.06770  0.22500  0.91720  Biso   1.000  N
  C1       1.0000 0.21430  0.00580  0.06960  Biso   1.000  C
  C2       1.0000 0.78570  0.99420  0.93040  Biso   1.000  C
  C3       1.0000 0.28430  0.13810  0.15390  Biso   1.000  C
  C4       1.0000 0.71570  0.86190  0.84610  Biso   1.000  C
  H1       1.0000 0.26090  0.20300  0.13570  Biso   1.000  H
  H2       1.0000 0.73910  0.79700  0.86430  Biso   1.000  H
  C5       1.0000 0.39650  0.16030  0.27150  Biso   1.000  C
  C6       1.0000 0.60350  0.83970  0.72850  Biso   1.000  C
  C7       1.0000 0.09260  0.93310  0.92910  Biso   1.000  C
  C8       1.0000 0.90740  0.06690  0.07090  Biso   1.000  C
  H3       1.0000 0.10660  0.87000  0.87610  Biso   1.000  H
  H4       1.0000 0.89340  0.13000  0.12390  Biso   1.000  H
  H5       1.0000 0.08700  0.99750  0.89080  Biso   1.000  H
  H6       1.0000 0.91300  0.00250  0.10920  Biso   1.000  H
  H7       1.0000 0.00450  0.88410  0.92810  Biso   1.000  H
  H8       1.0000 0.99550  0.11590  0.07190  Biso   1.000  H
  C9       1.0000 0.50520  0.28840  0.39370  Biso   1.000  C
  C10      1.0000 0.49480  0.71160  0.60630  Biso   1.000  C
  H9       1.0000 0.54150  0.26860  0.47140  Biso   1.000  H
  H10      1.0000 0.45850  0.73140  0.52860  Biso   1.000  H
  H11      1.0000 0.46190  0.34170  0.40810  Biso   1.000  H
  H12      1.0000 0.53810  0.65830  0.59190  Biso   1.000  H
  H13      1.0000 0.58350  0.33880  0.38150  Biso   1.000  H
  H14      1.0000 0.41650  0.66120  0.61850  Biso   1.000  H
  C11      1.0000 0.26440  0.82160  0.10470  Biso   1.000  C
  C12      1.0000 0.73560  0.17840  0.89530  Biso   1.000  C
  C13      1.0000 0.14350  0.70690  0.99770  Biso   1.000  C
  C14      1.0000 0.85650  0.29310  0.00230  Biso   1.000  C
  H15      1.0000 0.06650  0.71080  0.93640  Biso   1.000  H
  H16      1.0000 0.93350  0.28920  0.06360  Biso   1.000  H
  C15      1.0000 0.14010  0.58760  0.98450  Biso   1.000  C
  C16      1.0000 0.85990  0.41240  0.01550  Biso   1.000  C
  H17      1.0000 0.05920  0.50770  0.91140  Biso   1.000  H
  H18      1.0000 0.94080  0.49230  0.08860  Biso   1.000  H
  C17      1.0000 0.24900  0.57990  0.07270  Biso   1.000  C
  C18      1.0000 0.75100  0.42010  0.92730  Biso   1.000  C
  H19      1.0000 0.24440  0.49660  0.06370  Biso   1.000  H
  H20      1.0000 0.75560  0.50340  0.93630  Biso   1.000  H
  C19      1.0000 0.36700  0.69990  0.17650  Biso   1.000  C
  C20      1.0000 0.63300  0.30010  0.82350  Biso   1.000  C
  C21      1.0000 0.54210  0.62880  0.28670  Biso   1.000  C
  C22      1.0000 0.45790  0.37120  0.71330  Biso   1.000  C
  C23      1.0000 0.66970  0.69970  0.40350  Biso   1.000  C
  C24      1.0000 0.33030  0.30030  0.59650  Biso   1.000  C
  H21      1.0000 0.73200  0.66790  0.43860  Biso   1.000  H
  H22      1.0000 0.26800  0.33210  0.56140  Biso   1.000  H
  C25      1.0000 0.69260  0.82710  0.46230  Biso   1.000  C
  C26      1.0000 0.30740  0.17290  0.53770  Biso   1.000  C
  C27      1.0000 0.47170  0.49140  0.18110  Biso   1.000  C
  C28      1.0000 0.52830  0.50860  0.81890  Biso   1.000  C
  H23      1.0000 0.38090  0.43460  0.17210  Biso   1.000  H
  H24      1.0000 0.61910  0.56540  0.82790  Biso   1.000  H
  H25      1.0000 0.53290  0.45310  0.20630  Biso   1.000  H
  H26      1.0000 0.46710  0.54690  0.79370  Biso   1.000  H
  H27      1.0000 0.45540  0.49650  0.09560  Biso   1.000  H
  H28      1.0000 0.54460  0.50350  0.90440  Biso   1.000  H
  C29      1.0000 0.81760  0.94050  0.59070  Biso   1.000  C
  C30      1.0000 0.18240  0.05950  0.40930  Biso   1.000  C
  H29      1.0000 0.79280  0.00650  0.62040  Biso   1.000  H
  H30      1.0000 0.20720  0.99350  0.37960  Biso   1.000  H
  H31      1.0000 0.89700  0.98270  0.57710  Biso   1.000  H
  H32      1.0000 0.10300  0.01730  0.42290  Biso   1.000  H
  H33      1.0000 0.84480  0.90650  0.65880  Biso   1.000  H
  H34      1.0000 0.15520  0.09350  0.34120  Biso   1.000  H
  C31      1.0000 0.16540  0.42570  0.34530  Biso   1.000  C
  C32      1.0000 0.83460  0.57430  0.65470  Biso   1.000  C
  C33      1.0000 0.09210  0.44770  0.40970  Biso   1.000  C
  C34      1.0000 0.90790  0.55230  0.59030  Biso   1.000  C
  H35      1.0000 0.13810  0.54380  0.46310  Biso   1.000  H
  H36      1.0000 0.86190  0.45620  0.53690  Biso   1.000  H
  H37      1.0000 0.09390  0.40070  0.46830  Biso   1.000  H
  H38      1.0000 0.90610  0.59930  0.53170  Biso   1.000  H
  H39      1.0000 0.99360  0.41390  0.34240  Biso   1.000  H
  H40      1.0000 0.00640  0.58610  0.65760  Biso   1.000  H
  C35      1.0000 0.90090  0.74380  0.15550  Biso   1.000  C
  C36      1.0000 0.09910  0.25620  0.84450  Biso   1.000  C
  C37      1.0000 0.85870  0.70050  0.24440  Biso   1.000  C
  C38      1.0000 0.14130  0.29950  0.75560  Biso   1.000  C
  H41      1.0000 0.83770  0.60820  0.22530  Biso   1.000  H
  H42      1.0000 0.16230  0.39180  0.77470  Biso   1.000  H
  H43      1.0000 0.77410  0.70520  0.23120  Biso   1.000  H
  H44      1.0000 0.22590  0.29480  0.76880  Biso   1.000  H
  H45      1.0000 0.93580  0.75880  0.33710  Biso   1.000  H
  H46      1.0000 0.06420  0.24120  0.66290  Biso   1.000  H
