data_image0
_cell_length_a       7.433
_cell_length_b       11.826
_cell_length_c       10.009
_cell_angle_alpha    90
_cell_angle_beta     91.25
_cell_angle_gamma    90

_symmetry_space_group_name_H-M    "P 1"
_symmetry_int_tables_number       1

loop_
  _symmetry_equiv_pos_as_xyz
  'x, y, z'

loop_
  _atom_site_label
  _atom_site_occupancy
  _atom_site_fract_x
  _atom_site_fract_y
  _atom_site_fract_z
  _atom_site_thermal_displace_type
  _atom_site_B_iso_or_equiv
  _atom_site_type_symbol
  Cu1      1.0000 0.21298  0.00020  0.90911  Biso   1.000  Cu
  Cu2      1.0000 0.78702  0.50020  0.09089  Biso   1.000  Cu
  Cl1      1.0000 0.45620  0.01250  0.03950  Biso   1.000  Cl
  Cl2      1.0000 0.54380  0.51250  0.96050  Biso   1.000  Cl
  Cl3      1.0000 0.07610  0.04740  0.71170  Biso   1.000  Cl
  Cl4      1.0000 0.92390  0.54740  0.28830  Biso   1.000  Cl
  S1       1.0000 0.59610  0.88910  0.73810  Biso   1.000  S
  S2       1.0000 0.40390  0.38910  0.26190  Biso   1.000  S
  O1       1.0000 0.98130  0.90500  0.38550  Biso   1.000  O
  O2       1.0000 0.01870  0.40500  0.61450  Biso   1.000  O
  N1       1.0000 0.42460  0.70530  0.72020  Biso   1.000  N
  N2       1.0000 0.57540  0.20530  0.27980  Biso   1.000  N
  N3       1.0000 0.27020  0.84780  0.84180  Biso   1.000  N
  N4       1.0000 0.72980  0.34780  0.15820  Biso   1.000  N
  N5       1.0000 0.02140  0.80640  0.96270  Biso   1.000  N
  N6       1.0000 0.97860  0.30640  0.03730  Biso   1.000  N
  N7       1.0000 0.07910  0.11850  0.01100  Biso   1.000  N
  N8       1.0000 0.92090  0.61850  0.98900  Biso   1.000  N
  C1       1.0000 0.82990  0.87530  0.45880  Biso   1.000  C
  C2       1.0000 0.17010  0.37530  0.54120  Biso   1.000  C
  C3       1.0000 0.86140  0.79670  0.57670  Biso   1.000  C
  C4       1.0000 0.13860  0.29670  0.42330  Biso   1.000  C
  C5       1.0000 0.69150  0.77820  0.64880  Biso   1.000  C
  C6       1.0000 0.30850  0.27820  0.35120  Biso   1.000  C
  C7       1.0000 0.58210  0.68560  0.65090  Biso   1.000  C
  C8       1.0000 0.41790  0.18560  0.34910  Biso   1.000  C
  C9       1.0000 0.61410  0.57340  0.58990  Biso   1.000  C
  C10      1.0000 0.38590  0.07340  0.41010  Biso   1.000  C
  C11      1.0000 0.40950  0.80980  0.77060  Biso   1.000  C
  C12      1.0000 0.59050  0.30980  0.22940  Biso   1.000  C
  C13      1.0000 0.14700  0.76920  0.87910  Biso   1.000  C
  C14      1.0000 0.85300  0.26920  0.12090  Biso   1.000  C
  C15      1.0000 0.15260  0.65540  0.83670  Biso   1.000  C
  C16      1.0000 0.84740  0.15540  0.16330  Biso   1.000  C
  C17      1.0000 0.27630  0.62290  0.72680  Biso   1.000  C
  C18      1.0000 0.72370  0.12290  0.27320  Biso   1.000  C
  C19      1.0000 0.03960  0.58340  0.89860  Biso   1.000  C
  C20      1.0000 0.96040  0.08340  0.10140  Biso   1.000  C
  C21      1.0000 0.90960  0.73020  0.01180  Biso   1.000  C
  C22      1.0000 0.09040  0.23020  0.98820  Biso   1.000  C
  C23      1.0000 0.76210  0.77280  0.09700  Biso   1.000  C
  C24      1.0000 0.23790  0.27280  0.90300  Biso   1.000  C
  C25      1.0000 0.22300  0.71620  0.37600  Biso   1.000  C
  C26      1.0000 0.77700  0.21620  0.62400  Biso   1.000  C
  O3       1.0000 0.35100  0.72900  0.27700  Biso   1.000  O
  O4       1.0000 0.64900  0.22900  0.72300  Biso   1.000  O
  H1       1.0000 0.16400  0.75400  0.28500  Biso   1.000  H
  H2       1.0000 0.83600  0.25400  0.71500  Biso   1.000  H
  H3       1.0000 0.28600  0.75100  0.41100  Biso   1.000  H
  H4       1.0000 0.71400  0.25100  0.58900  Biso   1.000  H
  H5       1.0000 0.24100  0.66400  0.38800  Biso   1.000  H
  H6       1.0000 0.75900  0.16400  0.61200  Biso   1.000  H
  H7       1.0000 0.77790  0.94370  0.49200  Biso   1.000  H
  H8       1.0000 0.22210  0.44370  0.50800  Biso   1.000  H
  H9       1.0000 0.74580  0.83910  0.39830  Biso   1.000  H
  H10      1.0000 0.25420  0.33910  0.60170  Biso   1.000  H
  H11      1.0000 0.94890  0.82960  0.63680  Biso   1.000  H
  H12      1.0000 0.05110  0.32960  0.36320  Biso   1.000  H
  H13      1.0000 0.90470  0.72530  0.54510  Biso   1.000  H
  H14      1.0000 0.09530  0.22530  0.45490  Biso   1.000  H
  H15      1.0000 0.72790  0.57390  0.54630  Biso   1.000  H
  H16      1.0000 0.27210  0.07390  0.45370  Biso   1.000  H
  H17      1.0000 0.61550  0.51660  0.65850  Biso   1.000  H
  H18      1.0000 0.38450  0.01660  0.34150  Biso   1.000  H
  H19      1.0000 0.51980  0.55720  0.52570  Biso   1.000  H
  H20      1.0000 0.48020  0.05720  0.47430  Biso   1.000  H
  H21      1.0000 0.32470  0.54910  0.74430  Biso   1.000  H
  H22      1.0000 0.67530  0.04910  0.25570  Biso   1.000  H
  H23      1.0000 0.21060  0.62230  0.64310  Biso   1.000  H
  H24      1.0000 0.78940  0.12230  0.35690  Biso   1.000  H
  H25      1.0000 0.04450  0.50440  0.87700  Biso   1.000  H
  H26      1.0000 0.95550  0.00440  0.12300  Biso   1.000  H
  H27      1.0000 0.69080  0.71030  0.12650  Biso   1.000  H
  H28      1.0000 0.30920  0.21030  0.87350  Biso   1.000  H
  H29      1.0000 0.81320  0.81140  0.17330  Biso   1.000  H
  H30      1.0000 0.18680  0.31140  0.82670  Biso   1.000  H
  H31      1.0000 0.68770  0.82410  0.04620  Biso   1.000  H
  H32      1.0000 0.31230  0.32410  0.95380  Biso   1.000  H
