data_image0
_cell_length_a       13.877
_cell_length_b       23.023
_cell_length_c       15.351
_cell_angle_alpha    90
_cell_angle_beta     91.1
_cell_angle_gamma    90

_symmetry_space_group_name_H-M    "P 1"
_symmetry_int_tables_number       1

loop_
  _symmetry_equiv_pos_as_xyz
  'x, y, z'

loop_
  _atom_site_label
  _atom_site_occupancy
  _atom_site_fract_x
  _atom_site_fract_y
  _atom_site_fract_z
  _atom_site_thermal_displace_type
  _atom_site_B_iso_or_equiv
  _atom_site_type_symbol
  N1       1.0000 0.61640  0.53480  0.39840  Biso   1.000  N
  N2       1.0000 0.88360  0.03480  0.10160  Biso   1.000  N
  N3       1.0000 0.38360  0.46520  0.60160  Biso   1.000  N
  N4       1.0000 0.11640  0.96520  0.89840  Biso   1.000  N
  N5       1.0000 0.58730  0.54710  0.31450  Biso   1.000  N
  N6       1.0000 0.91270  0.04710  0.18550  Biso   1.000  N
  N7       1.0000 0.41270  0.45290  0.68550  Biso   1.000  N
  N8       1.0000 0.08730  0.95290  0.81450  Biso   1.000  N
  C1       1.0000 0.65050  0.58230  0.28090  Biso   1.000  C
  C2       1.0000 0.84950  0.08230  0.21910  Biso   1.000  C
  C3       1.0000 0.34950  0.41770  0.71910  Biso   1.000  C
  C4       1.0000 0.15050  0.91770  0.78090  Biso   1.000  C
  N9       1.0000 0.72070  0.59470  0.34010  Biso   1.000  N
  N10      1.0000 0.77930  0.09470  0.15990  Biso   1.000  N
  N11      1.0000 0.27930  0.40530  0.65990  Biso   1.000  N
  N12      1.0000 0.22070  0.90530  0.84010  Biso   1.000  N
  C5       1.0000 0.69640  0.56510  0.41090  Biso   1.000  C
  C6       1.0000 0.80360  0.06510  0.08910  Biso   1.000  C
  C7       1.0000 0.30360  0.43490  0.58910  Biso   1.000  C
  C8       1.0000 0.19640  0.93490  0.91090  Biso   1.000  C
  C9       1.0000 0.80440  0.63260  0.32800  Biso   1.000  C
  C10      1.0000 0.69560  0.13260  0.17200  Biso   1.000  C
  C11      1.0000 0.19560  0.36740  0.67200  Biso   1.000  C
  C12      1.0000 0.30440  0.86740  0.82800  Biso   1.000  C
  C13      1.0000 0.86810  0.61260  0.25800  Biso   1.000  C
  C14      1.0000 0.63190  0.11260  0.24200  Biso   1.000  C
  C15      1.0000 0.13190  0.38740  0.74200  Biso   1.000  C
  C16      1.0000 0.36810  0.88740  0.75800  Biso   1.000  C
  O1       1.0000 0.81600  0.61600  0.17820  Biso   1.000  O
  O2       1.0000 0.68400  0.11600  0.32180  Biso   1.000  O
  O3       1.0000 0.18400  0.38400  0.82180  Biso   1.000  O
  O4       1.0000 0.31600  0.88400  0.67820  Biso   1.000  O
  N13      1.0000 0.49480  0.42360  0.43740  Biso   1.000  N
  N14      1.0000 0.00520  0.92360  0.06260  Biso   1.000  N
  N15      1.0000 0.50520  0.57640  0.56260  Biso   1.000  N
  N16      1.0000 0.99480  0.07640  0.93740  Biso   1.000  N
  N17      1.0000 0.49590  0.41960  0.34820  Biso   1.000  N
  N18      1.0000 0.00410  0.91960  0.15180  Biso   1.000  N
  N19      1.0000 0.50410  0.58040  0.65180  Biso   1.000  N
  N20      1.0000 0.99590  0.08040  0.84820  Biso   1.000  N
  C17      1.0000 0.48810  0.36460  0.32910  Biso   1.000  C
  C18      1.0000 0.01190  0.86460  0.17090  Biso   1.000  C
  C19      1.0000 0.51190  0.63540  0.67090  Biso   1.000  C
  C20      1.0000 0.98810  0.13540  0.82910  Biso   1.000  C
  N21      1.0000 0.48140  0.33200  0.40340  Biso   1.000  N
  N22      1.0000 0.01860  0.83200  0.09660  Biso   1.000  N
  N23      1.0000 0.51860  0.66800  0.59660  Biso   1.000  N
  N24      1.0000 0.98140  0.16800  0.90340  Biso   1.000  N
  C21      1.0000 0.48560  0.37080  0.46860  Biso   1.000  C
  C22      1.0000 0.01440  0.87080  0.03140  Biso   1.000  C
  C23      1.0000 0.51440  0.62920  0.53140  Biso   1.000  C
  C24      1.0000 0.98560  0.12920  0.96860  Biso   1.000  C
  C25      1.0000 0.47250  0.26830  0.40980  Biso   1.000  C
  C26      1.0000 0.02750  0.76830  0.09020  Biso   1.000  C
  C27      1.0000 0.52750  0.73170  0.59020  Biso   1.000  C
  C28      1.0000 0.97250  0.23170  0.90980  Biso   1.000  C
  C29      1.0000 0.56500  0.23770  0.41300  Biso   1.000  C
  C30      1.0000 0.93500  0.73770  0.08700  Biso   1.000  C
  C31      1.0000 0.43500  0.76230  0.58700  Biso   1.000  C
  C32      1.0000 0.06500  0.26230  0.91300  Biso   1.000  C
  O5       1.0000 0.62700  0.25440  0.35200  Biso   1.000  O
  O6       1.0000 0.87300  0.75440  0.14800  Biso   1.000  O
  O7       1.0000 0.37300  0.74560  0.64800  Biso   1.000  O
  O8       1.0000 0.12700  0.24560  0.85200  Biso   1.000  O
  N25      1.0000 0.39210  0.53200  0.41830  Biso   1.000  N
  N26      1.0000 0.10790  0.03200  0.08170  Biso   1.000  N
  N27      1.0000 0.60790  0.46800  0.58170  Biso   1.000  N
  N28      1.0000 0.89210  0.96800  0.91830  Biso   1.000  N
  N29      1.0000 0.38150  0.52820  0.32830  Biso   1.000  N
  N30      1.0000 0.11850  0.02820  0.17170  Biso   1.000  N
  N31      1.0000 0.61850  0.47180  0.67170  Biso   1.000  N
  N32      1.0000 0.88150  0.97180  0.82830  Biso   1.000  N
  C33      1.0000 0.29770  0.55100  0.30830  Biso   1.000  C
  C34      1.0000 0.20230  0.05100  0.19170  Biso   1.000  C
  C35      1.0000 0.70230  0.44900  0.69170  Biso   1.000  C
  C36      1.0000 0.79770  0.94900  0.80830  Biso   1.000  C
  N33      1.0000 0.25330  0.57070  0.37980  Biso   1.000  N
  N34      1.0000 0.24670  0.07070  0.12020  Biso   1.000  N
  N35      1.0000 0.74670  0.42930  0.62020  Biso   1.000  N
  N36      1.0000 0.75330  0.92930  0.87980  Biso   1.000  N
  C37      1.0000 0.31410  0.55700  0.44600  Biso   1.000  C
  C38      1.0000 0.18590  0.05700  0.05400  Biso   1.000  C
  C39      1.0000 0.68590  0.44300  0.55400  Biso   1.000  C
  C40      1.0000 0.81410  0.94300  0.94600  Biso   1.000  C
  C41      1.0000 0.15840  0.59900  0.38530  Biso   1.000  C
  C42      1.0000 0.34160  0.09900  0.11470  Biso   1.000  C
  C43      1.0000 0.84160  0.40100  0.61470  Biso   1.000  C
  C44      1.0000 0.65840  0.90100  0.88530  Biso   1.000  C
  C45      1.0000 0.08080  0.56000  0.41200  Biso   1.000  C
  C46      1.0000 0.41920  0.06000  0.08800  Biso   1.000  C
  C47      1.0000 0.91920  0.44000  0.58800  Biso   1.000  C
  C48      1.0000 0.58080  0.94000  0.91200  Biso   1.000  C
  O9       1.0000 0.10100  0.53350  0.49500  Biso   1.000  O
  O10      1.0000 0.39900  0.03350  0.00500  Biso   1.000  O
  O11      1.0000 0.89900  0.46650  0.50500  Biso   1.000  O
  O12      1.0000 0.60100  0.96650  0.99500  Biso   1.000  O
  N37      1.0000 0.62640  0.48010  0.10160  Biso   1.000  N
  N38      1.0000 0.87360  0.98010  0.39840  Biso   1.000  N
  N39      1.0000 0.37360  0.51990  0.89840  Biso   1.000  N
  N40      1.0000 0.12640  0.01990  0.60160  Biso   1.000  N
  N41      1.0000 0.60220  0.46390  0.18450  Biso   1.000  N
  N42      1.0000 0.89780  0.96390  0.31550  Biso   1.000  N
  N43      1.0000 0.39780  0.53610  0.81550  Biso   1.000  N
  N44      1.0000 0.10220  0.03610  0.68450  Biso   1.000  N
  C49      1.0000 0.67510  0.43560  0.21960  Biso   1.000  C
  C50      1.0000 0.82490  0.93560  0.28040  Biso   1.000  C
  C51      1.0000 0.32490  0.56440  0.78040  Biso   1.000  C
  C52      1.0000 0.17510  0.06440  0.71960  Biso   1.000  C
  N45      1.0000 0.74570  0.43280  0.16250  Biso   1.000  N
  N46      1.0000 0.75430  0.93280  0.33750  Biso   1.000  N
  N47      1.0000 0.25430  0.56720  0.83750  Biso   1.000  N
  N48      1.0000 0.24570  0.06720  0.66250  Biso   1.000  N
  C53      1.0000 0.71310  0.45970  0.09140  Biso   1.000  C
  C54      1.0000 0.78690  0.95970  0.40860  Biso   1.000  C
  C55      1.0000 0.28690  0.54030  0.90860  Biso   1.000  C
  C56      1.0000 0.21310  0.04030  0.59140  Biso   1.000  C
  C57      1.0000 0.84150  0.40430  0.17740  Biso   1.000  C
  C58      1.0000 0.65850  0.90430  0.32260  Biso   1.000  C
  C59      1.0000 0.15850  0.59570  0.82260  Biso   1.000  C
  C60      1.0000 0.34150  0.09570  0.67740  Biso   1.000  C
  C61      1.0000 0.90650  0.44300  0.22500  Biso   1.000  C
  C62      1.0000 0.59350  0.94300  0.27500  Biso   1.000  C
  C63      1.0000 0.09350  0.55700  0.77500  Biso   1.000  C
  C64      1.0000 0.40650  0.05700  0.72500  Biso   1.000  C
  O13      1.0000 0.86900  0.46590  0.30500  Biso   1.000  O
  O14      1.0000 0.63100  0.96590  0.19500  Biso   1.000  O
  O15      1.0000 0.13100  0.53410  0.69500  Biso   1.000  O
  O16      1.0000 0.36900  0.03410  0.80500  Biso   1.000  O
  N49      1.0000 0.46850  0.57320  0.06300  Biso   1.000  N
  N50      1.0000 0.03150  0.07320  0.43700  Biso   1.000  N
  N51      1.0000 0.53150  0.42680  0.93700  Biso   1.000  N
  N52      1.0000 0.96850  0.92680  0.56300  Biso   1.000  N
  N53      1.0000 0.46510  0.57760  0.15190  Biso   1.000  N
  N54      1.0000 0.03490  0.07760  0.34810  Biso   1.000  N
  N55      1.0000 0.53490  0.42240  0.84810  Biso   1.000  N
  N56      1.0000 0.96510  0.92240  0.65190  Biso   1.000  N
  C65      1.0000 0.43450  0.63020  0.16830  Biso   1.000  C
  C66      1.0000 0.06550  0.13020  0.33170  Biso   1.000  C
  C67      1.0000 0.56550  0.36980  0.83170  Biso   1.000  C
  C68      1.0000 0.93450  0.86980  0.66830  Biso   1.000  C
  N57      1.0000 0.41860  0.66000  0.09320  Biso   1.000  N
  N58      1.0000 0.08140  0.16000  0.40680  Biso   1.000  N
  N59      1.0000 0.58140  0.34000  0.90680  Biso   1.000  N
  N60      1.0000 0.91860  0.84000  0.59320  Biso   1.000  N
  C69      1.0000 0.43990  0.62340  0.02930  Biso   1.000  C
  C70      1.0000 0.06010  0.12340  0.47070  Biso   1.000  C
  C71      1.0000 0.56010  0.37660  0.97070  Biso   1.000  C
  C72      1.0000 0.93990  0.87660  0.52930  Biso   1.000  C
  C73      1.0000 0.37930  0.71880  0.08400  Biso   1.000  C
  C74      1.0000 0.12070  0.21880  0.41600  Biso   1.000  C
  C75      1.0000 0.62070  0.28120  0.91600  Biso   1.000  C
  C76      1.0000 0.87930  0.78120  0.58400  Biso   1.000  C
  C77      1.0000 0.28300  0.71920  0.04900  Biso   1.000  C
  C78      1.0000 0.21700  0.21920  0.45100  Biso   1.000  C
  C79      1.0000 0.71700  0.28080  0.95100  Biso   1.000  C
  C80      1.0000 0.78300  0.78080  0.54900  Biso   1.000  C
  O17      1.0000 0.27700  0.69230  0.96500  Biso   1.000  O
  O18      1.0000 0.22300  0.19230  0.53500  Biso   1.000  O
  O19      1.0000 0.72300  0.30770  0.03500  Biso   1.000  O
  O20      1.0000 0.77700  0.80770  0.46500  Biso   1.000  O
  N61      1.0000 0.40550  0.45370  0.07890  Biso   1.000  N
  N62      1.0000 0.09450  0.95370  0.42110  Biso   1.000  N
  N63      1.0000 0.59450  0.54630  0.92110  Biso   1.000  N
  N64      1.0000 0.90550  0.04630  0.57890  Biso   1.000  N
  N65      1.0000 0.39510  0.45700  0.16770  Biso   1.000  N
  N66      1.0000 0.10490  0.95700  0.33230  Biso   1.000  N
  N67      1.0000 0.60490  0.54300  0.83230  Biso   1.000  N
  N68      1.0000 0.89510  0.04300  0.66770  Biso   1.000  N
  C81      1.0000 0.32010  0.42410  0.18660  Biso   1.000  C
  C82      1.0000 0.17990  0.92410  0.31340  Biso   1.000  C
  C83      1.0000 0.67990  0.57590  0.81340  Biso   1.000  C
  C84      1.0000 0.82010  0.07590  0.68660  Biso   1.000  C
  N69      1.0000 0.28290  0.39980  0.11260  Biso   1.000  N
  N70      1.0000 0.21710  0.89980  0.38740  Biso   1.000  N
  N71      1.0000 0.71710  0.60020  0.88740  Biso   1.000  N
  N72      1.0000 0.78290  0.10020  0.61260  Biso   1.000  N
  C85      1.0000 0.33740  0.42020  0.04720  Biso   1.000  C
  C86      1.0000 0.16260  0.92020  0.45280  Biso   1.000  C
  C87      1.0000 0.66260  0.57980  0.95280  Biso   1.000  C
  C88      1.0000 0.83740  0.07980  0.54720  Biso   1.000  C
  C89      1.0000 0.19780  0.36240  0.10270  Biso   1.000  C
  C90      1.0000 0.30220  0.86240  0.39730  Biso   1.000  C
  C91      1.0000 0.80220  0.63760  0.89730  Biso   1.000  C
  C92      1.0000 0.69780  0.13760  0.60270  Biso   1.000  C
  C93      1.0000 0.11230  0.39520  0.07330  Biso   1.000  C
  C94      1.0000 0.38770  0.89520  0.42670  Biso   1.000  C
  C95      1.0000 0.88770  0.60480  0.92670  Biso   1.000  C
  C96      1.0000 0.61230  0.10480  0.57330  Biso   1.000  C
  O21      1.0000 0.12780  0.41850  0.99050  Biso   1.000  O
  O22      1.0000 0.37220  0.91850  0.50950  Biso   1.000  O
  O23      1.0000 0.87220  0.58150  0.00950  Biso   1.000  O
  O24      1.0000 0.62780  0.08150  0.49050  Biso   1.000  O
  Cl1      1.0000 0.11750  0.57220  0.10840  Biso   1.000  Cl
  Cl2      1.0000 0.38250  0.07220  0.39160  Biso   1.000  Cl
  Cl3      1.0000 0.88250  0.42780  0.89160  Biso   1.000  Cl
  Cl4      1.0000 0.61750  0.92780  0.60840  Biso   1.000  Cl
  Cu1      1.0000 0.50000  0.50000  0.50000  Biso   1.000  Cu
  Cu2      1.0000 0.00000  0.00000  0.00000  Biso   1.000  Cu
  Cu3      1.0000 0.48847  0.49905  0.24903  Biso   1.000  Cu
  Cu4      1.0000 0.01153  0.99905  0.25097  Biso   1.000  Cu
  Cu5      1.0000 0.51153  0.50095  0.75097  Biso   1.000  Cu
  Cu6      1.0000 0.98847  0.00095  0.74903  Biso   1.000  Cu
  Cu7      1.0000 0.50000  0.50000  0.00000  Biso   1.000  Cu
  Cu8      1.0000 0.00000  0.00000  0.50000  Biso   1.000  Cu
  O25      1.0000 0.21460  0.55720  0.11200  Biso   1.000  O
  O26      1.0000 0.28540  0.05720  0.38800  Biso   1.000  O
  O27      1.0000 0.78540  0.44280  0.88800  Biso   1.000  O
  O28      1.0000 0.71460  0.94280  0.61200  Biso   1.000  O
  O29      1.0000 0.07660  0.54470  0.03350  Biso   1.000  O
  O30      1.0000 0.42340  0.04470  0.46650  Biso   1.000  O
  O31      1.0000 0.92340  0.45530  0.96650  Biso   1.000  O
  O32      1.0000 0.57660  0.95530  0.53350  Biso   1.000  O
  O33      1.0000 0.07900  0.55000  0.18200  Biso   1.000  O
  O34      1.0000 0.42100  0.05000  0.31800  Biso   1.000  O
  O35      1.0000 0.92100  0.45000  0.81800  Biso   1.000  O
  O36      1.0000 0.57900  0.95000  0.68200  Biso   1.000  O
  O37      1.0000 0.10200  0.63090  0.10500  Biso   1.000  O
  O38      1.0000 0.39800  0.13090  0.39500  Biso   1.000  O
  O39      1.0000 0.89800  0.36910  0.89500  Biso   1.000  O
  O40      1.0000 0.60200  0.86910  0.60500  Biso   1.000  O
  Cl5      1.0000 0.17090  0.38630  0.37940  Biso   1.000  Cl
  Cl6      1.0000 0.32910  0.88630  0.12060  Biso   1.000  Cl
  Cl7      1.0000 0.82910  0.61370  0.62060  Biso   1.000  Cl
  Cl8      1.0000 0.67090  0.11370  0.87940  Biso   1.000  Cl
  O41      1.0000 0.18000  0.44600  0.36300  Biso   1.000  O
  O42      1.0000 0.32000  0.94600  0.13700  Biso   1.000  O
  O43      1.0000 0.82000  0.55400  0.63700  Biso   1.000  O
  O44      1.0000 0.68000  0.05400  0.86300  Biso   1.000  O
  O45      1.0000 0.12200  0.37770  0.45500  Biso   1.000  O
  O46      1.0000 0.37800  0.87770  0.04500  Biso   1.000  O
  O47      1.0000 0.87800  0.62230  0.54500  Biso   1.000  O
  O48      1.0000 0.62200  0.12230  0.95500  Biso   1.000  O
  O49      1.0000 0.12300  0.36040  0.31400  Biso   1.000  O
  O50      1.0000 0.37700  0.86040  0.18600  Biso   1.000  O
  O51      1.0000 0.87700  0.63960  0.68600  Biso   1.000  O
  O52      1.0000 0.62300  0.13960  0.81400  Biso   1.000  O
  O53      1.0000 0.26500  0.36600  0.38800  Biso   1.000  O
  O54      1.0000 0.23500  0.86600  0.11200  Biso   1.000  O
  O55      1.0000 0.73500  0.63400  0.61200  Biso   1.000  O
  O56      1.0000 0.76500  0.13400  0.88800  Biso   1.000  O
  Cl9      1.0000 0.44010  0.25800  0.13070  Biso   1.000  Cl
  Cl10     1.0000 0.05990  0.75800  0.36930  Biso   1.000  Cl
  Cl11     1.0000 0.55990  0.74200  0.86930  Biso   1.000  Cl
  Cl12     1.0000 0.94010  0.24200  0.63070  Biso   1.000  Cl
  O57      1.0000 0.47500  0.31420  0.13660  Biso   1.000  O
  O58      1.0000 0.02500  0.81420  0.36340  Biso   1.000  O
  O59      1.0000 0.52500  0.68580  0.86340  Biso   1.000  O
  O60      1.0000 0.97500  0.18580  0.63660  Biso   1.000  O
  O61      1.0000 0.51300  0.21730  0.12000  Biso   1.000  O
  O62      1.0000 0.98700  0.71730  0.38000  Biso   1.000  O
  O63      1.0000 0.48700  0.78270  0.88000  Biso   1.000  O
  O64      1.0000 0.01300  0.28270  0.62000  Biso   1.000  O
  O65      1.0000 0.38200  0.25500  0.05700  Biso   1.000  O
  O66      1.0000 0.11800  0.75500  0.44300  Biso   1.000  O
  O67      1.0000 0.61800  0.74500  0.94300  Biso   1.000  O
  O68      1.0000 0.88200  0.24500  0.55700  Biso   1.000  O
  O69      1.0000 0.38700  0.24700  0.20300  Biso   1.000  O
  O70      1.0000 0.11300  0.74700  0.29700  Biso   1.000  O
  O71      1.0000 0.61300  0.75300  0.79700  Biso   1.000  O
  O72      1.0000 0.88700  0.25300  0.70300  Biso   1.000  O
  Cl13     1.0000 0.55850  0.74200  0.32590  Biso   1.000  Cl
  Cl14     1.0000 0.94150  0.24200  0.17410  Biso   1.000  Cl
  Cl15     1.0000 0.44150  0.25800  0.67410  Biso   1.000  Cl
  Cl16     1.0000 0.05850  0.75800  0.82590  Biso   1.000  Cl
  O73      1.0000 0.50300  0.69290  0.34800  Biso   1.000  O
  O74      1.0000 0.99700  0.19290  0.15200  Biso   1.000  O
  O75      1.0000 0.49700  0.30710  0.65200  Biso   1.000  O
  O76      1.0000 0.00300  0.80710  0.84800  Biso   1.000  O
  O77      1.0000 0.53200  0.79060  0.37400  Biso   1.000  O
  O78      1.0000 0.96800  0.29060  0.12600  Biso   1.000  O
  O79      1.0000 0.46800  0.20940  0.62600  Biso   1.000  O
  O80      1.0000 0.03200  0.70940  0.87400  Biso   1.000  O
  O81      1.0000 0.54500  0.75300  0.24000  Biso   1.000  O
  O82      1.0000 0.95500  0.25300  0.26000  Biso   1.000  O
  O83      1.0000 0.45500  0.24700  0.76000  Biso   1.000  O
  O84      1.0000 0.04500  0.74700  0.74000  Biso   1.000  O
  O85      1.0000 0.65300  0.72800  0.34700  Biso   1.000  O
  O86      1.0000 0.84700  0.22800  0.15300  Biso   1.000  O
  O87      1.0000 0.34700  0.27200  0.65300  Biso   1.000  O
  O88      1.0000 0.15300  0.77200  0.84700  Biso   1.000  O
  O89      1.0000 0.72270  0.35950  0.39110  Biso   1.000  O
  O90      1.0000 0.77730  0.85950  0.10890  Biso   1.000  O
  O91      1.0000 0.27730  0.64050  0.60890  Biso   1.000  O
  O92      1.0000 0.22270  0.14050  0.89110  Biso   1.000  O
  O93      1.0000 0.33700  0.31700  0.90600  Biso   1.000  O
  O94      1.0000 0.16300  0.81700  0.59400  Biso   1.000  O
  O95      1.0000 0.66300  0.68300  0.09400  Biso   1.000  O
  O96      1.0000 0.83700  0.18300  0.40600  Biso   1.000  O
  O97      1.0000 0.92100  0.33900  0.38900  Biso   1.000  O
  O98      1.0000 0.57900  0.83900  0.11100  Biso   1.000  O
  O99      1.0000 0.07900  0.66100  0.61100  Biso   1.000  O
  O100     1.0000 0.42100  0.16100  0.88900  Biso   1.000  O
  H1       1.0000 0.64400  0.59800  0.22000  Biso   1.000  H
  H2       1.0000 0.85600  0.09800  0.28000  Biso   1.000  H
  H3       1.0000 0.35600  0.40200  0.78000  Biso   1.000  H
  H4       1.0000 0.14400  0.90200  0.72000  Biso   1.000  H
  H5       1.0000 0.73200  0.56500  0.46600  Biso   1.000  H
  H6       1.0000 0.76800  0.06500  0.03400  Biso   1.000  H
  H7       1.0000 0.26800  0.43500  0.53400  Biso   1.000  H
  H8       1.0000 0.23200  0.93500  0.96600  Biso   1.000  H
  H9       1.0000 0.77800  0.67300  0.30800  Biso   1.000  H
  H10      1.0000 0.72200  0.17300  0.19200  Biso   1.000  H
  H11      1.0000 0.22200  0.32700  0.69200  Biso   1.000  H
  H12      1.0000 0.27800  0.82700  0.80800  Biso   1.000  H
  H13      1.0000 0.83800  0.64100  0.38600  Biso   1.000  H
  H14      1.0000 0.66200  0.14100  0.11400  Biso   1.000  H
  H15      1.0000 0.16200  0.35900  0.61400  Biso   1.000  H
  H16      1.0000 0.33800  0.85900  0.88600  Biso   1.000  H
  H17      1.0000 0.93300  0.63100  0.26100  Biso   1.000  H
  H18      1.0000 0.56700  0.13100  0.23900  Biso   1.000  H
  H19      1.0000 0.06700  0.36900  0.73900  Biso   1.000  H
  H20      1.0000 0.43300  0.86900  0.76100  Biso   1.000  H
  H21      1.0000 0.88400  0.56700  0.27400  Biso   1.000  H
  H22      1.0000 0.61600  0.06700  0.22600  Biso   1.000  H
  H23      1.0000 0.11600  0.43300  0.72600  Biso   1.000  H
  H24      1.0000 0.38400  0.93300  0.77400  Biso   1.000  H
  H25      1.0000 0.48600  0.35000  0.26900  Biso   1.000  H
  H26      1.0000 0.01400  0.85000  0.23100  Biso   1.000  H
  H27      1.0000 0.51400  0.65000  0.73100  Biso   1.000  H
  H28      1.0000 0.98600  0.15000  0.76900  Biso   1.000  H
  H29      1.0000 0.48000  0.36300  0.53200  Biso   1.000  H
  H30      1.0000 0.02000  0.86300  0.96800  Biso   1.000  H
  H31      1.0000 0.52000  0.63700  0.46800  Biso   1.000  H
  H32      1.0000 0.98000  0.13700  0.03200  Biso   1.000  H
  H33      1.0000 0.44600  0.25100  0.35600  Biso   1.000  H
  H34      1.0000 0.05400  0.75100  0.14400  Biso   1.000  H
  H35      1.0000 0.55400  0.74900  0.64400  Biso   1.000  H
  H36      1.0000 0.94600  0.24900  0.85600  Biso   1.000  H
  H37      1.0000 0.43200  0.25600  0.46100  Biso   1.000  H
  H38      1.0000 0.06800  0.75600  0.03900  Biso   1.000  H
  H39      1.0000 0.56800  0.74400  0.53900  Biso   1.000  H
  H40      1.0000 0.93200  0.24400  0.96100  Biso   1.000  H
  H41      1.0000 0.55700  0.19200  0.42400  Biso   1.000  H
  H42      1.0000 0.94300  0.69200  0.07600  Biso   1.000  H
  H43      1.0000 0.44300  0.80800  0.57600  Biso   1.000  H
  H44      1.0000 0.05700  0.30800  0.92400  Biso   1.000  H
  H45      1.0000 0.59300  0.24500  0.48800  Biso   1.000  H
  H46      1.0000 0.90700  0.74500  0.01200  Biso   1.000  H
  H47      1.0000 0.40700  0.75500  0.51200  Biso   1.000  H
  H48      1.0000 0.09300  0.25500  0.98800  Biso   1.000  H
  H49      1.0000 0.26900  0.55000  0.24700  Biso   1.000  H
  H50      1.0000 0.23100  0.05000  0.25300  Biso   1.000  H
  H51      1.0000 0.73100  0.45000  0.75300  Biso   1.000  H
  H52      1.0000 0.76900  0.95000  0.74700  Biso   1.000  H
  H53      1.0000 0.30200  0.56300  0.51100  Biso   1.000  H
  H54      1.0000 0.19800  0.06300  0.98900  Biso   1.000  H
  H55      1.0000 0.69800  0.43700  0.48900  Biso   1.000  H
  H56      1.0000 0.80200  0.93700  0.01100  Biso   1.000  H
  H57      1.0000 0.16200  0.63000  0.43300  Biso   1.000  H
  H58      1.0000 0.33800  0.13000  0.06700  Biso   1.000  H
  H59      1.0000 0.83800  0.37000  0.56700  Biso   1.000  H
  H60      1.0000 0.66200  0.87000  0.93300  Biso   1.000  H
  H61      1.0000 0.14100  0.61800  0.33000  Biso   1.000  H
  H62      1.0000 0.35900  0.11800  0.17000  Biso   1.000  H
  H63      1.0000 0.85900  0.38200  0.67000  Biso   1.000  H
  H64      1.0000 0.64100  0.88200  0.83000  Biso   1.000  H
  H65      1.0000 0.01600  0.58300  0.41300  Biso   1.000  H
  H66      1.0000 0.48400  0.08300  0.08700  Biso   1.000  H
  H67      1.0000 0.98400  0.41700  0.58700  Biso   1.000  H
  H68      1.0000 0.51600  0.91700  0.91300  Biso   1.000  H
  H69      1.0000 0.06900  0.53000  0.36300  Biso   1.000  H
  H70      1.0000 0.43100  0.03000  0.13700  Biso   1.000  H
  H71      1.0000 0.93100  0.47000  0.63700  Biso   1.000  H
  H72      1.0000 0.56900  0.97000  0.86300  Biso   1.000  H
  H73      1.0000 0.67600  0.42100  0.28200  Biso   1.000  H
  H74      1.0000 0.82400  0.92100  0.21800  Biso   1.000  H
  H75      1.0000 0.32400  0.57900  0.71800  Biso   1.000  H
  H76      1.0000 0.17600  0.07900  0.78200  Biso   1.000  H
  H77      1.0000 0.75000  0.46200  0.03300  Biso   1.000  H
  H78      1.0000 0.75000  0.96200  0.46700  Biso   1.000  H
  H79      1.0000 0.25000  0.53800  0.96700  Biso   1.000  H
  H80      1.0000 0.25000  0.03800  0.53300  Biso   1.000  H
  H81      1.0000 0.82700  0.36500  0.21100  Biso   1.000  H
  H82      1.0000 0.67300  0.86500  0.28900  Biso   1.000  H
  H83      1.0000 0.17300  0.63500  0.78900  Biso   1.000  H
  H84      1.0000 0.32700  0.13500  0.71100  Biso   1.000  H
  H85      1.0000 0.86600  0.39000  0.11900  Biso   1.000  H
  H86      1.0000 0.63400  0.89000  0.38100  Biso   1.000  H
  H87      1.0000 0.13400  0.61000  0.88100  Biso   1.000  H
  H88      1.0000 0.36600  0.11000  0.61900  Biso   1.000  H
  H89      1.0000 0.96700  0.42200  0.23800  Biso   1.000  H
  H90      1.0000 0.53300  0.92200  0.26200  Biso   1.000  H
  H91      1.0000 0.03300  0.57800  0.76200  Biso   1.000  H
  H92      1.0000 0.46700  0.07800  0.73800  Biso   1.000  H
  H93      1.0000 0.91800  0.47600  0.18500  Biso   1.000  H
  H94      1.0000 0.58200  0.97600  0.31500  Biso   1.000  H
  H95      1.0000 0.08200  0.52400  0.81500  Biso   1.000  H
  H96      1.0000 0.41800  0.02400  0.68500  Biso   1.000  H
  H97      1.0000 0.42400  0.64900  0.22700  Biso   1.000  H
  H98      1.0000 0.07600  0.14900  0.27300  Biso   1.000  H
  H99      1.0000 0.57600  0.35100  0.77300  Biso   1.000  H
  H100     1.0000 0.92400  0.85100  0.72700  Biso   1.000  H
  H101     1.0000 0.43600  0.63500  0.96600  Biso   1.000  H
  H102     1.0000 0.06400  0.13500  0.53400  Biso   1.000  H
  H103     1.0000 0.56400  0.36500  0.03400  Biso   1.000  H
  H104     1.0000 0.93600  0.86500  0.46600  Biso   1.000  H
  H105     1.0000 0.38300  0.73900  0.14400  Biso   1.000  H
  H106     1.0000 0.11700  0.23900  0.35600  Biso   1.000  H
  H107     1.0000 0.61700  0.26100  0.85600  Biso   1.000  H
  H108     1.0000 0.88300  0.76100  0.64400  Biso   1.000  H
  H109     1.0000 0.42400  0.74200  0.04500  Biso   1.000  H
  H110     1.0000 0.07600  0.24200  0.45500  Biso   1.000  H
  H111     1.0000 0.57600  0.25800  0.95500  Biso   1.000  H
  H112     1.0000 0.92400  0.75800  0.54500  Biso   1.000  H
  H113     1.0000 0.23700  0.69600  0.09200  Biso   1.000  H
  H114     1.0000 0.26300  0.19600  0.40800  Biso   1.000  H
  H115     1.0000 0.76300  0.30400  0.90800  Biso   1.000  H
  H116     1.0000 0.73700  0.80400  0.59200  Biso   1.000  H
  H117     1.0000 0.25400  0.76000  0.05000  Biso   1.000  H
  H118     1.0000 0.24600  0.26000  0.45000  Biso   1.000  H
  H119     1.0000 0.74600  0.24000  0.95000  Biso   1.000  H
  H120     1.0000 0.75400  0.74000  0.55000  Biso   1.000  H
  H121     1.0000 0.29600  0.41500  0.24700  Biso   1.000  H
  H122     1.0000 0.20400  0.91500  0.25300  Biso   1.000  H
  H123     1.0000 0.70400  0.58500  0.75300  Biso   1.000  H
  H124     1.0000 0.79600  0.08500  0.74700  Biso   1.000  H
  H125     1.0000 0.32700  0.41000  0.98400  Biso   1.000  H
  H126     1.0000 0.17300  0.91000  0.51600  Biso   1.000  H
  H127     1.0000 0.67300  0.59000  0.01600  Biso   1.000  H
  H128     1.0000 0.82700  0.09000  0.48400  Biso   1.000  H
  H129     1.0000 0.20900  0.33000  0.06400  Biso   1.000  H
  H130     1.0000 0.29100  0.83000  0.43600  Biso   1.000  H
  H131     1.0000 0.79100  0.67000  0.93600  Biso   1.000  H
  H132     1.0000 0.70900  0.17000  0.56400  Biso   1.000  H
  H133     1.0000 0.18400  0.34600  0.16500  Biso   1.000  H
  H134     1.0000 0.31600  0.84600  0.33500  Biso   1.000  H
  H135     1.0000 0.81600  0.65400  0.83500  Biso   1.000  H
  H136     1.0000 0.68400  0.15400  0.66500  Biso   1.000  H
  H137     1.0000 0.05400  0.37000  0.07300  Biso   1.000  H
  H138     1.0000 0.44600  0.87000  0.42700  Biso   1.000  H
  H139     1.0000 0.94600  0.63000  0.92700  Biso   1.000  H
  H140     1.0000 0.55400  0.13000  0.57300  Biso   1.000  H
  H141     1.0000 0.10100  0.42900  0.11600  Biso   1.000  H
  H142     1.0000 0.39900  0.92900  0.38400  Biso   1.000  H
  H143     1.0000 0.89900  0.57100  0.88400  Biso   1.000  H
  H144     1.0000 0.60100  0.07100  0.61600  Biso   1.000  H
