data_image0
_cell_length_a       7.6824
_cell_length_b       7.8094
_cell_length_c       9.9541
_cell_angle_alpha    79.712
_cell_angle_beta     86.34
_cell_angle_gamma    71.114

_symmetry_space_group_name_H-M    "P 1"
_symmetry_int_tables_number       1

loop_
  _symmetry_equiv_pos_as_xyz
  'x, y, z'

loop_
  _atom_site_label
  _atom_site_occupancy
  _atom_site_fract_x
  _atom_site_fract_y
  _atom_site_fract_z
  _atom_site_thermal_displace_type
  _atom_site_B_iso_or_equiv
  _atom_site_type_symbol
  Cu1      1.0000 0.09430  0.54432  0.08974  Biso   1.000  Cu
  Cu2      1.0000 0.90570  0.45568  0.91026  Biso   1.000  Cu
  S1       1.0000 0.18670  0.24530  0.16270  Biso   1.000  S
  S2       1.0000 0.81330  0.75470  0.83730  Biso   1.000  S
  S3       1.0000 0.92030  0.69330  0.26810  Biso   1.000  S
  S4       1.0000 0.07970  0.30670  0.73190  Biso   1.000  S
  S5       1.0000 0.57990  0.28840  0.92050  Biso   1.000  S
  S6       1.0000 0.42010  0.71160  0.07950  Biso   1.000  S
  N1       1.0000 0.87880  0.25060  0.04990  Biso   1.000  N
  N2       1.0000 0.12120  0.74940  0.95010  Biso   1.000  N
  N3       1.0000 0.76040  0.00140  0.10290  Biso   1.000  N
  N4       1.0000 0.23960  0.99860  0.89710  Biso   1.000  N
  C1       1.0000 0.01200  0.16040  0.14270  Biso   1.000  C
  C2       1.0000 0.98800  0.83960  0.85730  Biso   1.000  C
  C3       1.0000 0.89640  0.91500  0.19240  Biso   1.000  C
  C4       1.0000 0.10360  0.08500  0.80760  Biso   1.000  C
  N5       1.0000 0.01900  0.99680  0.21850  Biso   1.000  N
  N6       1.0000 0.98100  0.00320  0.78150  Biso   1.000  N
  C5       1.0000 0.74930  0.17130  0.03410  Biso   1.000  C
  C6       1.0000 0.25070  0.82870  0.96590  Biso   1.000  C
  Cu3      1.0000 0.36561  0.15710  0.95595  Biso   1.000  Cu
  Cu4      1.0000 0.63439  0.84290  0.04405  Biso   1.000  Cu
  N7       1.0000 0.26640  0.82290  0.42330  Biso   1.000  N
  N8       1.0000 0.73360  0.17710  0.57670  Biso   1.000  N
  H1       1.0000 0.19250  0.87670  0.35610  Biso   1.000  H
  H2       1.0000 0.80750  0.12330  0.64390  Biso   1.000  H
  C7       1.0000 0.20980  0.73010  0.53380  Biso   1.000  C
  C8       1.0000 0.79020  0.26990  0.46620  Biso   1.000  C
  H3       1.0000 0.09080  0.72370  0.53670  Biso   1.000  H
  H4       1.0000 0.90920  0.27630  0.46330  Biso   1.000  H
  C9       1.0000 0.43780  0.83240  0.41650  Biso   1.000  C
  C10      1.0000 0.56220  0.16760  0.58350  Biso   1.000  C
  H5       1.0000 0.47790  0.89450  0.33860  Biso   1.000  H
  H6       1.0000 0.52210  0.10550  0.66140  Biso   1.000  H
  C11      1.0000 0.32230  0.64510  0.64210  Biso   1.000  C
  C12      1.0000 0.67770  0.35490  0.35790  Biso   1.000  C
  H7       1.0000 0.28120  0.58080  0.71850  Biso   1.000  H
  H8       1.0000 0.71880  0.41920  0.28150  Biso   1.000  H
  C13      1.0000 0.55350  0.75030  0.52480  Biso   1.000  C
  C14      1.0000 0.44650  0.24970  0.47520  Biso   1.000  C
  H9       1.0000 0.67140  0.75960  0.52140  Biso   1.000  H
  H10      1.0000 0.32860  0.24040  0.47860  Biso   1.000  H
  C15      1.0000 0.49700  0.65530  0.63700  Biso   1.000  C
  C16      1.0000 0.50300  0.34470  0.36300  Biso   1.000  C
  H11      1.0000 0.57640  0.59760  0.71000  Biso   1.000  H
  H12      1.0000 0.42360  0.40240  0.29000  Biso   1.000  H
