data_image0
_cell_length_a       12.096
_cell_length_b       12.096
_cell_length_c       6.233
_cell_angle_alpha    90
_cell_angle_beta     90
_cell_angle_gamma    90

_symmetry_space_group_name_H-M    "P 1"
_symmetry_int_tables_number       1

loop_
  _symmetry_equiv_pos_as_xyz
  'x, y, z'

loop_
  _atom_site_label
  _atom_site_occupancy
  _atom_site_fract_x
  _atom_site_fract_y
  _atom_site_fract_z
  _atom_site_thermal_displace_type
  _atom_site_B_iso_or_equiv
  _atom_site_type_symbol
  Cu1      1.0000 0.00000  0.00000  0.00000  Biso   1.000  Cu
  Li1      1.0000 0.00000  0.00000  0.50000  Biso   1.000  Li
  O1       1.0000 0.11510  0.11510  0.00850  Biso   1.000  O
  O2       1.0000 0.88490  0.11510  0.99150  Biso   1.000  O
  O3       1.0000 0.88490  0.88490  0.00850  Biso   1.000  O
  O4       1.0000 0.11510  0.88490  0.99150  Biso   1.000  O
  O5       1.0000 0.09610  0.09610  0.65460  Biso   1.000  O
  O6       1.0000 0.90390  0.09610  0.34540  Biso   1.000  O
  O7       1.0000 0.90390  0.90390  0.65460  Biso   1.000  O
  O8       1.0000 0.09610  0.90390  0.34540  Biso   1.000  O
  C1       1.0000 0.13800  0.13800  0.81310  Biso   1.000  C
  C2       1.0000 0.86200  0.13800  0.18690  Biso   1.000  C
  C3       1.0000 0.86200  0.86200  0.81310  Biso   1.000  C
  C4       1.0000 0.13800  0.86200  0.18690  Biso   1.000  C
  C5       1.0000 0.22660  0.22660  0.79440  Biso   1.000  C
  C6       1.0000 0.77340  0.22660  0.20560  Biso   1.000  C
  C7       1.0000 0.77340  0.77340  0.79440  Biso   1.000  C
  C8       1.0000 0.22660  0.77340  0.20560  Biso   1.000  C
  N1       1.0000 0.25990  0.25990  0.57000  Biso   1.000  N
  N2       1.0000 0.74010  0.25990  0.43000  Biso   1.000  N
  N3       1.0000 0.74010  0.74010  0.57000  Biso   1.000  N
  N4       1.0000 0.25990  0.74010  0.43000  Biso   1.000  N
  C9       1.0000 0.30810  0.16430  0.44560  Biso   1.000  C
  C10      1.0000 0.83570  0.30810  0.55440  Biso   1.000  C
  C11      1.0000 0.69190  0.83570  0.44560  Biso   1.000  C
  C12      1.0000 0.16430  0.69190  0.55440  Biso   1.000  C
  C13      1.0000 0.69190  0.16430  0.55440  Biso   1.000  C
  C14      1.0000 0.16430  0.30810  0.44560  Biso   1.000  C
  C15      1.0000 0.30810  0.83570  0.55440  Biso   1.000  C
  C16      1.0000 0.83570  0.69190  0.44560  Biso   1.000  C
  C17      1.0000 0.34710  0.34710  0.60040  Biso   1.000  C
  C18      1.0000 0.65290  0.34710  0.39960  Biso   1.000  C
  C19      1.0000 0.65290  0.65290  0.60040  Biso   1.000  C
  C20      1.0000 0.34710  0.65290  0.39960  Biso   1.000  C
  H1       1.0000 0.29170  0.20120  0.86750  Biso   1.000  H
  H2       1.0000 0.79880  0.29170  0.13250  Biso   1.000  H
  H3       1.0000 0.70830  0.79880  0.86750  Biso   1.000  H
  H4       1.0000 0.20120  0.70830  0.13250  Biso   1.000  H
  H5       1.0000 0.70830  0.20120  0.13250  Biso   1.000  H
  H6       1.0000 0.20120  0.29170  0.86750  Biso   1.000  H
  H7       1.0000 0.29170  0.79880  0.13250  Biso   1.000  H
  H8       1.0000 0.79880  0.70830  0.86750  Biso   1.000  H
  H9       1.0000 0.25270  0.10820  0.42760  Biso   1.000  H
  H10      1.0000 0.89180  0.25270  0.57240  Biso   1.000  H
  H11      1.0000 0.74730  0.89180  0.42760  Biso   1.000  H
  H12      1.0000 0.10820  0.74730  0.57240  Biso   1.000  H
  H13      1.0000 0.74730  0.10820  0.57240  Biso   1.000  H
  H14      1.0000 0.10820  0.25270  0.42760  Biso   1.000  H
  H15      1.0000 0.25270  0.89180  0.57240  Biso   1.000  H
  H16      1.0000 0.89180  0.74730  0.42760  Biso   1.000  H
  H17      1.0000 0.33330  0.18870  0.30740  Biso   1.000  H
  H18      1.0000 0.81130  0.33330  0.69260  Biso   1.000  H
  H19      1.0000 0.66670  0.81130  0.30740  Biso   1.000  H
  H20      1.0000 0.18870  0.66670  0.69260  Biso   1.000  H
  H21      1.0000 0.66670  0.18870  0.69260  Biso   1.000  H
  H22      1.0000 0.18870  0.33330  0.30740  Biso   1.000  H
  H23      1.0000 0.33330  0.81130  0.69260  Biso   1.000  H
  H24      1.0000 0.81130  0.66670  0.30740  Biso   1.000  H
  H25      1.0000 0.36930  0.13440  0.52490  Biso   1.000  H
  H26      1.0000 0.86560  0.36930  0.47510  Biso   1.000  H
  H27      1.0000 0.63070  0.86560  0.52490  Biso   1.000  H
  H28      1.0000 0.13440  0.63070  0.47510  Biso   1.000  H
  H29      1.0000 0.63070  0.13440  0.47510  Biso   1.000  H
  H30      1.0000 0.13440  0.36930  0.52490  Biso   1.000  H
  H31      1.0000 0.36930  0.86560  0.47510  Biso   1.000  H
  H32      1.0000 0.86560  0.63070  0.52490  Biso   1.000  H
  H33      1.0000 0.31660  0.40870  0.67730  Biso   1.000  H
  H34      1.0000 0.59130  0.31660  0.32270  Biso   1.000  H
  H35      1.0000 0.68340  0.59130  0.67730  Biso   1.000  H
  H36      1.0000 0.40870  0.68340  0.32270  Biso   1.000  H
  H37      1.0000 0.68340  0.40870  0.32270  Biso   1.000  H
  H38      1.0000 0.40870  0.31660  0.67730  Biso   1.000  H
  H39      1.0000 0.31660  0.59130  0.32270  Biso   1.000  H
  H40      1.0000 0.59130  0.68340  0.67730  Biso   1.000  H
  H41      1.0000 0.37230  0.37220  0.46200  Biso   1.000  H
  H42      1.0000 0.62780  0.37230  0.53800  Biso   1.000  H
  H43      1.0000 0.62770  0.62780  0.46200  Biso   1.000  H
  H44      1.0000 0.37220  0.62770  0.53800  Biso   1.000  H
  Cl1      1.0000 0.50000  0.50000  0.00000  Biso   1.000  Cl
  O9       1.0000 0.43310  0.43310  0.12870  Biso   1.000  O
  O10      1.0000 0.56690  0.43310  0.87130  Biso   1.000  O
  O11      1.0000 0.56690  0.56690  0.12870  Biso   1.000  O
  O12      1.0000 0.43310  0.56690  0.87130  Biso   1.000  O
  Cl2      1.0000 0.50000  0.00000  0.00000  Biso   1.000  Cl
  Cl3      1.0000 0.00000  0.50000  0.00000  Biso   1.000  Cl
  O13      1.0000 0.52370  0.89600  0.09100  Biso   1.000  O
  O14      1.0000 0.10400  0.52370  0.90900  Biso   1.000  O
  O15      1.0000 0.47630  0.10400  0.09100  Biso   1.000  O
  O16      1.0000 0.89600  0.47630  0.90900  Biso   1.000  O
  O17      1.0000 0.47630  0.89600  0.90900  Biso   1.000  O
  O18      1.0000 0.89600  0.52370  0.09100  Biso   1.000  O
  O19      1.0000 0.52370  0.10400  0.90900  Biso   1.000  O
  O20      1.0000 0.10400  0.47630  0.09100  Biso   1.000  O
  O21      1.0000 0.61690  0.00000  0.00000  Biso   1.000  O
  O22      1.0000 0.00000  0.61690  0.00000  Biso   1.000  O
  O23      1.0000 0.38310  0.00000  0.00000  Biso   1.000  O
  O24      1.0000 0.00000  0.38310  0.00000  Biso   1.000  O
  O25      1.0000 0.45320  0.95660  0.18630  Biso   1.000  O
  O26      1.0000 0.04340  0.45320  0.81370  Biso   1.000  O
  O27      1.0000 0.54680  0.04340  0.18630  Biso   1.000  O
  O28      1.0000 0.95660  0.54680  0.81370  Biso   1.000  O
  O29      1.0000 0.54680  0.95660  0.81370  Biso   1.000  O
  O30      1.0000 0.95660  0.45320  0.18630  Biso   1.000  O
  O31      1.0000 0.45320  0.04340  0.81370  Biso   1.000  O
  O32      1.0000 0.04340  0.54680  0.18630  Biso   1.000  O
  O33      1.0000 0.40290  0.97740  0.88450  Biso   1.000  O
  O34      1.0000 0.02260  0.40290  0.11550  Biso   1.000  O
  O35      1.0000 0.59710  0.02260  0.88450  Biso   1.000  O
  O36      1.0000 0.97740  0.59710  0.11550  Biso   1.000  O
  O37      1.0000 0.59710  0.97740  0.11550  Biso   1.000  O
  O38      1.0000 0.97740  0.40290  0.88450  Biso   1.000  O
  O39      1.0000 0.40290  0.02260  0.11550  Biso   1.000  O
  O40      1.0000 0.02260  0.59710  0.88450  Biso   1.000  O
  O41      1.0000 0.51100  0.11710  0.98200  Biso   1.000  O
  O42      1.0000 0.88290  0.51100  0.01800  Biso   1.000  O
  O43      1.0000 0.48900  0.88290  0.98200  Biso   1.000  O
  O44      1.0000 0.11710  0.48900  0.01800  Biso   1.000  O
  O45      1.0000 0.48900  0.11710  0.01800  Biso   1.000  O
  O46      1.0000 0.11710  0.51100  0.98200  Biso   1.000  O
  O47      1.0000 0.51100  0.88290  0.01800  Biso   1.000  O
  O48      1.0000 0.88290  0.48900  0.98200  Biso   1.000  O
  O49      1.0000 0.50000  0.00000  0.22470  Biso   1.000  O
  O50      1.0000 0.00000  0.50000  0.77530  Biso   1.000  O
  O51      1.0000 0.50000  0.00000  0.77530  Biso   1.000  O
  O52      1.0000 0.00000  0.50000  0.22470  Biso   1.000  O
