data_image0
_cell_length_a       14.076
_cell_length_b       13.896
_cell_length_c       9.278
_cell_angle_alpha    90
_cell_angle_beta     106.909
_cell_angle_gamma    90

_symmetry_space_group_name_H-M    "P 1"
_symmetry_int_tables_number       1

loop_
  _symmetry_equiv_pos_as_xyz
  'x, y, z'

loop_
  _atom_site_label
  _atom_site_occupancy
  _atom_site_fract_x
  _atom_site_fract_y
  _atom_site_fract_z
  _atom_site_thermal_displace_type
  _atom_site_B_iso_or_equiv
  _atom_site_type_symbol
  N1       1.0000 0.91360  0.09130  0.93290  Biso   1.000  N
  N2       1.0000 0.08640  0.59130  0.56710  Biso   1.000  N
  N3       1.0000 0.08640  0.90870  0.06710  Biso   1.000  N
  N4       1.0000 0.91360  0.40870  0.43290  Biso   1.000  N
  N5       1.0000 0.69170  0.09060  0.80530  Biso   1.000  N
  N6       1.0000 0.30830  0.59060  0.69470  Biso   1.000  N
  N7       1.0000 0.30830  0.90940  0.19470  Biso   1.000  N
  N8       1.0000 0.69170  0.40940  0.30530  Biso   1.000  N
  N9       1.0000 0.73340  0.50570  0.75300  Biso   1.000  N
  N10      1.0000 0.26660  0.00570  0.74700  Biso   1.000  N
  N11      1.0000 0.26660  0.49430  0.24700  Biso   1.000  N
  N12      1.0000 0.73340  0.99430  0.25300  Biso   1.000  N
  O1       1.0000 0.79260  0.47990  0.68620  Biso   1.000  O
  O2       1.0000 0.20740  0.97990  0.81380  Biso   1.000  O
  O3       1.0000 0.20740  0.52010  0.31380  Biso   1.000  O
  O4       1.0000 0.79260  0.02010  0.18620  Biso   1.000  O
  O5       1.0000 0.53460  0.65780  0.40920  Biso   1.000  O
  O6       1.0000 0.46540  0.15780  0.09080  Biso   1.000  O
  O7       1.0000 0.46540  0.34220  0.59080  Biso   1.000  O
  O8       1.0000 0.53460  0.84220  0.90920  Biso   1.000  O
  O9       1.0000 0.67940  0.45150  0.79640  Biso   1.000  O
  O10      1.0000 0.32060  0.95150  0.70360  Biso   1.000  O
  O11      1.0000 0.32060  0.54850  0.20360  Biso   1.000  O
  O12      1.0000 0.67940  0.04850  0.29640  Biso   1.000  O
  C1       1.0000 0.90780  0.19470  0.89770  Biso   1.000  C
  C2       1.0000 0.09220  0.69470  0.60230  Biso   1.000  C
  C3       1.0000 0.09220  0.80530  0.10230  Biso   1.000  C
  C4       1.0000 0.90780  0.30530  0.39770  Biso   1.000  C
  H1       1.0000 0.96290  0.21260  0.86010  Biso   1.000  H
  H2       1.0000 0.03710  0.71260  0.63990  Biso   1.000  H
  H3       1.0000 0.03710  0.78740  0.13990  Biso   1.000  H
  H4       1.0000 0.96290  0.28740  0.36010  Biso   1.000  H
  H5       1.0000 0.91360  0.23110  0.98910  Biso   1.000  H
  H6       1.0000 0.08640  0.73110  0.51090  Biso   1.000  H
  H7       1.0000 0.08640  0.76890  0.01090  Biso   1.000  H
  H8       1.0000 0.91360  0.26890  0.48910  Biso   1.000  H
  H9       1.0000 0.07300  0.70590  0.69320  Biso   1.000  H
  H10      1.0000 0.92700  0.20590  0.80680  Biso   1.000  H
  H11      1.0000 0.92700  0.29410  0.30680  Biso   1.000  H
  H12      1.0000 0.07300  0.79410  0.19320  Biso   1.000  H
  H13      1.0000 0.04640  0.72960  0.52050  Biso   1.000  H
  H14      1.0000 0.95360  0.22960  0.97950  Biso   1.000  H
  H15      1.0000 0.95360  0.27040  0.47950  Biso   1.000  H
  H16      1.0000 0.04640  0.77040  0.02050  Biso   1.000  H
  C5       1.0000 0.61400  0.07430  0.88300  Biso   1.000  C
  C6       1.0000 0.38600  0.57430  0.61700  Biso   1.000  C
  C7       1.0000 0.38600  0.92570  0.11700  Biso   1.000  C
  C8       1.0000 0.61400  0.42570  0.38300  Biso   1.000  C
  H17      1.0000 0.64090  0.08850  0.98850  Biso   1.000  H
  H18      1.0000 0.35910  0.58850  0.51150  Biso   1.000  H
  H19      1.0000 0.35910  0.91150  0.01150  Biso   1.000  H
  H20      1.0000 0.64090  0.41150  0.48850  Biso   1.000  H
  H21      1.0000 0.59280  0.00840  0.87100  Biso   1.000  H
  H22      1.0000 0.40720  0.50840  0.62900  Biso   1.000  H
  H23      1.0000 0.40720  0.99160  0.12900  Biso   1.000  H
  H24      1.0000 0.59280  0.49160  0.37100  Biso   1.000  H
  H25      1.0000 0.55830  0.11560  0.84030  Biso   1.000  H
  H26      1.0000 0.44170  0.61560  0.65970  Biso   1.000  H
  H27      1.0000 0.44170  0.88440  0.15970  Biso   1.000  H
  H28      1.0000 0.55830  0.38440  0.34030  Biso   1.000  H
  C9       1.0000 0.64900  0.07240  0.64210  Biso   1.000  C
  C10      1.0000 0.35100  0.57240  0.85790  Biso   1.000  C
  C11      1.0000 0.35100  0.92760  0.35790  Biso   1.000  C
  C12      1.0000 0.64900  0.42760  0.14210  Biso   1.000  C
  H29      1.0000 0.58840  0.10870  0.60500  Biso   1.000  H
  H30      1.0000 0.41160  0.60870  0.89500  Biso   1.000  H
  H31      1.0000 0.41160  0.89130  0.39500  Biso   1.000  H
  H32      1.0000 0.58840  0.39130  0.10500  Biso   1.000  H
  H33      1.0000 0.63450  0.00510  0.62570  Biso   1.000  H
  H34      1.0000 0.36550  0.50510  0.87430  Biso   1.000  H
  H35      1.0000 0.36550  0.99490  0.37430  Biso   1.000  H
  H36      1.0000 0.63450  0.49490  0.12570  Biso   1.000  H
  H37      1.0000 0.69520  0.09170  0.58970  Biso   1.000  H
  H38      1.0000 0.30480  0.59170  0.91030  Biso   1.000  H
  H39      1.0000 0.30480  0.90830  0.41030  Biso   1.000  H
  H40      1.0000 0.69520  0.40830  0.08970  Biso   1.000  H
  C13      1.0000 0.81260  0.21990  0.78320  Biso   1.000  C
  C14      1.0000 0.18740  0.71990  0.71680  Biso   1.000  C
  C15      1.0000 0.18740  0.78010  0.21680  Biso   1.000  C
  C16      1.0000 0.81260  0.28010  0.28320  Biso   1.000  C
  H41      1.0000 0.81170  0.28860  0.76400  Biso   1.000  H
  H42      1.0000 0.18830  0.78860  0.73600  Biso   1.000  H
  H43      1.0000 0.18830  0.71140  0.23600  Biso   1.000  H
  H44      1.0000 0.81170  0.21140  0.26400  Biso   1.000  H
  H45      1.0000 0.80960  0.18700  0.68970  Biso   1.000  H
  H46      1.0000 0.19040  0.68700  0.81030  Biso   1.000  H
  H47      1.0000 0.19040  0.81300  0.31030  Biso   1.000  H
  H48      1.0000 0.80960  0.31300  0.18970  Biso   1.000  H
  C17      1.0000 0.72330  0.19390  0.82940  Biso   1.000  C
  C18      1.0000 0.27670  0.69390  0.67060  Biso   1.000  C
  C19      1.0000 0.27670  0.80610  0.17060  Biso   1.000  C
  C20      1.0000 0.72330  0.30610  0.32940  Biso   1.000  C
  H49      1.0000 0.33150  0.76590  0.22600  Biso   1.000  H
  H50      1.0000 0.66850  0.26590  0.27400  Biso   1.000  H
  H51      1.0000 0.66850  0.23410  0.77400  Biso   1.000  H
  H52      1.0000 0.33150  0.73410  0.72600  Biso   1.000  H
  H53      1.0000 0.26380  0.79110  0.06450  Biso   1.000  H
  H54      1.0000 0.73620  0.29110  0.43550  Biso   1.000  H
  H55      1.0000 0.73620  0.20890  0.93550  Biso   1.000  H
  H56      1.0000 0.26380  0.70890  0.56450  Biso   1.000  H
  C21      1.0000 0.37630  0.60840  0.60200  Biso   1.000  C
  C22      1.0000 0.62370  0.10840  0.89800  Biso   1.000  C
  C23      1.0000 0.62370  0.39160  0.39800  Biso   1.000  C
  C24      1.0000 0.37630  0.89160  0.10200  Biso   1.000  C
  H57      1.0000 0.34080  0.63980  0.51020  Biso   1.000  H
  H58      1.0000 0.65920  0.13980  0.98980  Biso   1.000  H
  H59      1.0000 0.65920  0.36020  0.48980  Biso   1.000  H
  H60      1.0000 0.34080  0.86020  0.01020  Biso   1.000  H
  H61      1.0000 0.40220  0.54820  0.57960  Biso   1.000  H
  H62      1.0000 0.59780  0.04820  0.92040  Biso   1.000  H
  H63      1.0000 0.59780  0.45180  0.42040  Biso   1.000  H
  H64      1.0000 0.40220  0.95180  0.07960  Biso   1.000  H
  H65      1.0000 0.43010  0.64870  0.65720  Biso   1.000  H
  H66      1.0000 0.56990  0.14870  0.84280  Biso   1.000  H
  H67      1.0000 0.56990  0.35130  0.34280  Biso   1.000  H
  H68      1.0000 0.43010  0.85130  0.15720  Biso   1.000  H
  C25      1.0000 0.36830  0.54060  0.83490  Biso   1.000  C
  C26      1.0000 0.63170  0.04060  0.66510  Biso   1.000  C
  C27      1.0000 0.63170  0.45940  0.16510  Biso   1.000  C
  C28      1.0000 0.36830  0.95940  0.33490  Biso   1.000  C
  H69      1.0000 0.42910  0.57510  0.87720  Biso   1.000  H
  H70      1.0000 0.57090  0.07510  0.62280  Biso   1.000  H
  H71      1.0000 0.57090  0.42490  0.12280  Biso   1.000  H
  H72      1.0000 0.42910  0.92490  0.37720  Biso   1.000  H
  H73      1.0000 0.38300  0.47620  0.81040  Biso   1.000  H
  H74      1.0000 0.61700  0.97620  0.68960  Biso   1.000  H
  H75      1.0000 0.61700  0.52380  0.18960  Biso   1.000  H
  H76      1.0000 0.38300  0.02380  0.31040  Biso   1.000  H
  H77      1.0000 0.33110  0.53830  0.90670  Biso   1.000  H
  H78      1.0000 0.66890  0.03830  0.59330  Biso   1.000  H
  H79      1.0000 0.66890  0.46170  0.09330  Biso   1.000  H
  H80      1.0000 0.33110  0.96170  0.40670  Biso   1.000  H
  C29      1.0000 0.19490  0.73070  0.62280  Biso   1.000  C
  C30      1.0000 0.80510  0.23070  0.87720  Biso   1.000  C
  C31      1.0000 0.80510  0.26930  0.37720  Biso   1.000  C
  C32      1.0000 0.19490  0.76930  0.12280  Biso   1.000  C
  H81      1.0000 0.21000  0.72290  0.52800  Biso   1.000  H
  H82      1.0000 0.79000  0.22290  0.97200  Biso   1.000  H
  H83      1.0000 0.79000  0.27710  0.47200  Biso   1.000  H
  H84      1.0000 0.21000  0.77710  0.02800  Biso   1.000  H
  H85      1.0000 0.19550  0.79920  0.64340  Biso   1.000  H
  H86      1.0000 0.80450  0.29920  0.85660  Biso   1.000  H
  H87      1.0000 0.80450  0.20080  0.35660  Biso   1.000  H
  H88      1.0000 0.19550  0.70080  0.14340  Biso   1.000  H
  C33      1.0000 0.27600  0.68530  0.74280  Biso   1.000  C
  C34      1.0000 0.72400  0.18530  0.75720  Biso   1.000  C
  C35      1.0000 0.72400  0.31470  0.25720  Biso   1.000  C
  C36      1.0000 0.27600  0.81470  0.24280  Biso   1.000  C
  H89      1.0000 0.25370  0.67540  0.83130  Biso   1.000  H
  H90      1.0000 0.74630  0.17540  0.66870  Biso   1.000  H
  H91      1.0000 0.74630  0.32460  0.16870  Biso   1.000  H
  H92      1.0000 0.25370  0.82460  0.33130  Biso   1.000  H
  H93      1.0000 0.33250  0.72860  0.77040  Biso   1.000  H
  H94      1.0000 0.66750  0.22860  0.72960  Biso   1.000  H
  H95      1.0000 0.66750  0.27140  0.22960  Biso   1.000  H
  H96      1.0000 0.33250  0.77140  0.27040  Biso   1.000  H
  O13      1.0000 0.91470  0.90788  0.99780  Biso   1.000  O
  O14      1.0000 0.08530  0.40788  0.50220  Biso   1.000  O
  O15      1.0000 0.08530  0.09212  0.00220  Biso   1.000  O
  O16      1.0000 0.91470  0.59212  0.49780  Biso   1.000  O
  C37      1.0000 0.99940  0.94680  0.01770  Biso   1.000  C
  C38      1.0000 0.00060  0.44680  0.48230  Biso   1.000  C
  C39      1.0000 0.00060  0.05320  0.98230  Biso   1.000  C
  C40      1.0000 0.99940  0.55320  0.51770  Biso   1.000  C
  Cu1      1.0000 0.80609  0.99978  0.90389  Biso   1.000  Cu
  Cu2      1.0000 0.19391  0.49978  0.59611  Biso   1.000  Cu
  Cu3      1.0000 0.19391  0.00022  0.09611  Biso   1.000  Cu
  Cu4      1.0000 0.80609  0.50022  0.40389  Biso   1.000  Cu
  O17      1.0000 0.71210  0.60520  0.38450  Biso   1.000  O
  O18      1.0000 0.28790  0.10520  0.11550  Biso   1.000  O
  O19      1.0000 0.28790  0.39480  0.61550  Biso   1.000  O
  O20      1.0000 0.71210  0.89480  0.88450  Biso   1.000  O
  O21      1.0000 0.81430  0.91470  0.67340  Biso   1.000  O
  O22      1.0000 0.18570  0.41470  0.82660  Biso   1.000  O
  O23      1.0000 0.18570  0.08530  0.32660  Biso   1.000  O
  O24      1.0000 0.81430  0.58530  0.17340  Biso   1.000  O
  C41      1.0000 0.72830  0.60890  0.78460  Biso   1.000  C
  C42      1.0000 0.27170  0.10890  0.71540  Biso   1.000  C
  C43      1.0000 0.27170  0.39110  0.21540  Biso   1.000  C
  C44      1.0000 0.72830  0.89110  0.28460  Biso   1.000  C
  N13      1.0000 0.57480  0.73440  0.44610  Biso   1.000  N
  N14      1.0000 0.42520  0.23440  0.05390  Biso   1.000  N
  N15      1.0000 0.42520  0.26560  0.55390  Biso   1.000  N
  N16      1.0000 0.57480  0.76560  0.94610  Biso   1.000  N
  N17      1.0000 0.84370  0.83230  0.70980  Biso   1.000  N
  N18      1.0000 0.15630  0.33230  0.79020  Biso   1.000  N
  N19      1.0000 0.15630  0.16770  0.29020  Biso   1.000  N
  N20      1.0000 0.84370  0.66770  0.20980  Biso   1.000  N
  C45      1.0000 0.78250  0.76870  0.76870  Biso   1.000  C
  C46      1.0000 0.21750  0.26870  0.73130  Biso   1.000  C
  C47      1.0000 0.21750  0.23130  0.23130  Biso   1.000  C
  C48      1.0000 0.78250  0.73130  0.26870  Biso   1.000  C
  C49      1.0000 0.79000  0.67190  0.74190  Biso   1.000  C
  C50      1.0000 0.21000  0.17190  0.75810  Biso   1.000  C
  C51      1.0000 0.21000  0.32810  0.25810  Biso   1.000  C
  C52      1.0000 0.79000  0.82810  0.24190  Biso   1.000  C
  H97      1.0000 0.83620  0.85030  0.19560  Biso   1.000  H
  H98      1.0000 0.16380  0.35030  0.30440  Biso   1.000  H
  H99      1.0000 0.16380  0.14970  0.80440  Biso   1.000  H
  H100     1.0000 0.83620  0.64970  0.69560  Biso   1.000  H
  C53      1.0000 0.71580  0.69270  0.34440  Biso   1.000  C
  C54      1.0000 0.28420  0.19270  0.15560  Biso   1.000  C
  C55      1.0000 0.28420  0.30730  0.65560  Biso   1.000  C
  C56      1.0000 0.71580  0.80730  0.84440  Biso   1.000  C
  C57      1.0000 0.65290  0.76380  0.37970  Biso   1.000  C
  C58      1.0000 0.34710  0.26380  0.12030  Biso   1.000  C
  C59      1.0000 0.34710  0.23620  0.62030  Biso   1.000  C
  C60      1.0000 0.65290  0.73620  0.87970  Biso   1.000  C
  O25      1.0000 0.92180  0.69900  0.19780  Biso   1.000  O
  O26      1.0000 0.07820  0.19900  0.30220  Biso   1.000  O
  O27      1.0000 0.07820  0.30100  0.80220  Biso   1.000  O
  O28      1.0000 0.92180  0.80100  0.69780  Biso   1.000  O
  C61      1.0000 0.65950  0.86020  0.35300  Biso   1.000  C
  C62      1.0000 0.34050  0.36020  0.14700  Biso   1.000  C
  C63      1.0000 0.34050  0.13980  0.64700  Biso   1.000  C
  C64      1.0000 0.65950  0.63980  0.85300  Biso   1.000  C
  H101     1.0000 0.61800  0.90400  0.38080  Biso   1.000  H
  H102     1.0000 0.38200  0.40400  0.11920  Biso   1.000  H
  H103     1.0000 0.38200  0.09600  0.61920  Biso   1.000  H
  H104     1.0000 0.61800  0.59600  0.88080  Biso   1.000  H
  O29      1.0000 0.55220  0.79040  0.53220  Biso   1.000  O
  O30      1.0000 0.44780  0.29040  0.96780  Biso   1.000  O
  O31      1.0000 0.44780  0.20960  0.46780  Biso   1.000  O
  O32      1.0000 0.55220  0.70960  0.03220  Biso   1.000  O
  C65      1.0000 0.00000  0.00000  0.50000  Biso   1.000  C
  C66      1.0000 0.00000  0.50000  0.00000  Biso   1.000  C
  O33      1.0000 0.05700  0.95140  0.46100  Biso   1.000  O
  O34      1.0000 0.94300  0.45140  0.03900  Biso   1.000  O
  O35      1.0000 0.94300  0.04860  0.53900  Biso   1.000  O
  O36      1.0000 0.05700  0.54860  0.96100  Biso   1.000  O
