data_image0
_cell_length_a       6.5286
_cell_length_b       6.6154
_cell_length_c       7.4716
_cell_angle_alpha    68.603
_cell_angle_beta     80.692
_cell_angle_gamma    67.348

_symmetry_space_group_name_H-M    "P 1"
_symmetry_int_tables_number       1

loop_
  _symmetry_equiv_pos_as_xyz
  'x, y, z'

loop_
  _atom_site_label
  _atom_site_occupancy
  _atom_site_fract_x
  _atom_site_fract_y
  _atom_site_fract_z
  _atom_site_thermal_displace_type
  _atom_site_B_iso_or_equiv
  _atom_site_type_symbol
  Cu1      1.0000 0.43213  0.40082  0.23890  Biso   1.000  Cu
  Cu2      1.0000 0.56787  0.59918  0.76110  Biso   1.000  Cu
  Cu3      1.0000 0.00000  0.50000  0.50000  Biso   1.000  Cu
  O1       1.0000 0.19783  0.70099  0.22509  Biso   1.000  O
  O2       1.0000 0.80217  0.29901  0.77491  Biso   1.000  O
  O3       1.0000 0.07916  0.06750  0.21612  Biso   1.000  O
  O4       1.0000 0.92084  0.93250  0.78388  Biso   1.000  O
  O5       1.0000 0.35475  0.45537  0.91993  Biso   1.000  O
  O6       1.0000 0.64525  0.54463  0.08007  Biso   1.000  O
  O7       1.0000 0.23317  0.26270  0.41430  Biso   1.000  O
  O8       1.0000 0.76683  0.73730  0.58570  Biso   1.000  O
  O9       1.0000 0.65420  0.09360  0.25948  Biso   1.000  O
  O10      1.0000 0.34580  0.90640  0.74052  Biso   1.000  O
  C1       1.0000 0.22840  0.88310  0.21320  Biso   1.000  C
  C2       1.0000 0.77160  0.11690  0.78680  Biso   1.000  C
  H1       1.0000 0.37720  0.87810  0.20110  Biso   1.000  H
  H2       1.0000 0.62280  0.12190  0.79890  Biso   1.000  H
  C3       1.0000 0.22030  0.43830  0.82700  Biso   1.000  C
  C4       1.0000 0.77970  0.56170  0.17300  Biso   1.000  C
  H3       1.0000 0.10660  0.38730  0.89440  Biso   1.000  H
  H4       1.0000 0.89340  0.61270  0.10560  Biso   1.000  H
  O11      1.0000 0.22758  0.49800  0.64754  Biso   1.000  O
  O12      1.0000 0.77242  0.50200  0.35246  Biso   1.000  O
  H5       1.0000 0.77000  0.09800  0.23200  Biso   1.000  H
  H6       1.0000 0.23000  0.90200  0.76800  Biso   1.000  H
  H7       1.0000 0.66800  0.99100  0.36300  Biso   1.000  H
  H8       1.0000 0.33200  0.00900  0.63700  Biso   1.000  H
  H9       1.0000 0.19000  0.22100  0.36300  Biso   1.000  H
  H10      1.0000 0.81000  0.77900  0.63700  Biso   1.000  H
