data_image0
_cell_length_a       6.5315
_cell_length_b       6.6239
_cell_length_c       7.4792
_cell_angle_alpha    68.625
_cell_angle_beta     80.734
_cell_angle_gamma    67.351

_symmetry_space_group_name_H-M    "P 1"
_symmetry_int_tables_number       1

loop_
  _symmetry_equiv_pos_as_xyz
  'x, y, z'

loop_
  _atom_site_label
  _atom_site_occupancy
  _atom_site_fract_x
  _atom_site_fract_y
  _atom_site_fract_z
  _atom_site_thermal_displace_type
  _atom_site_B_iso_or_equiv
  _atom_site_type_symbol
  Cu1      1.0000 0.43210  0.40122  0.23924  Biso   1.000  Cu
  Cu2      1.0000 0.56790  0.59878  0.76076  Biso   1.000  Cu
  Cu3      1.0000 0.00000  0.50000  0.50000  Biso   1.000  Cu
  O1       1.0000 0.19837  0.70100  0.22564  Biso   1.000  O
  O2       1.0000 0.80163  0.29900  0.77436  Biso   1.000  O
  O3       1.0000 0.07960  0.06670  0.21675  Biso   1.000  O
  O4       1.0000 0.92040  0.93330  0.78325  Biso   1.000  O
  O5       1.0000 0.35492  0.45544  0.91950  Biso   1.000  O
  O6       1.0000 0.64508  0.54456  0.08050  Biso   1.000  O
  O7       1.0000 0.23317  0.26350  0.41400  Biso   1.000  O
  O8       1.0000 0.76683  0.73650  0.58600  Biso   1.000  O
  O9       1.0000 0.65400  0.09440  0.26030  Biso   1.000  O
  O10      1.0000 0.34600  0.90560  0.73970  Biso   1.000  O
  C1       1.0000 0.22810  0.88290  0.21370  Biso   1.000  C
  C2       1.0000 0.77190  0.11710  0.78630  Biso   1.000  C
  H1       1.0000 0.37680  0.87810  0.20140  Biso   1.000  H
  H2       1.0000 0.62320  0.12190  0.79860  Biso   1.000  H
  C3       1.0000 0.22070  0.43830  0.82690  Biso   1.000  C
  C4       1.0000 0.77930  0.56170  0.17310  Biso   1.000  C
  H3       1.0000 0.10700  0.38730  0.89420  Biso   1.000  H
  H4       1.0000 0.89300  0.61270  0.10580  Biso   1.000  H
  O11      1.0000 0.22758  0.49730  0.64802  Biso   1.000  O
  O12      1.0000 0.77242  0.50270  0.35198  Biso   1.000  O
  H5       1.0000 0.77000  0.09800  0.23700  Biso   1.000  H
  H6       1.0000 0.23000  0.90200  0.76300  Biso   1.000  H
  H7       1.0000 0.66800  0.99000  0.36200  Biso   1.000  H
  H8       1.0000 0.33200  0.01000  0.63800  Biso   1.000  H
  H9       1.0000 0.19000  0.22200  0.36200  Biso   1.000  H
  H10      1.0000 0.81000  0.77800  0.63800  Biso   1.000  H
