data_image0
_cell_length_a       6.537
_cell_length_b       6.6467
_cell_length_c       7.5061
_cell_angle_alpha    68.704
_cell_angle_beta     80.861
_cell_angle_gamma    67.398

_symmetry_space_group_name_H-M    "P 1"
_symmetry_int_tables_number       1

loop_
  _symmetry_equiv_pos_as_xyz
  'x, y, z'

loop_
  _atom_site_label
  _atom_site_occupancy
  _atom_site_fract_x
  _atom_site_fract_y
  _atom_site_fract_z
  _atom_site_thermal_displace_type
  _atom_site_B_iso_or_equiv
  _atom_site_type_symbol
  Cu1      1.0000 0.43170  0.40238  0.23974  Biso   1.000  Cu
  Cu2      1.0000 0.56830  0.59762  0.76026  Biso   1.000  Cu
  Cu3      1.0000 0.00000  0.50000  0.50000  Biso   1.000  Cu
  O1       1.0000 0.19890  0.70130  0.22710  Biso   1.000  O
  O2       1.0000 0.80110  0.29870  0.77290  Biso   1.000  O
  O3       1.0000 0.08050  0.06470  0.21760  Biso   1.000  O
  O4       1.0000 0.91950  0.93530  0.78240  Biso   1.000  O
  O5       1.0000 0.35500  0.45580  0.91850  Biso   1.000  O
  O6       1.0000 0.64500  0.54420  0.08150  Biso   1.000  O
  O7       1.0000 0.23310  0.26520  0.41350  Biso   1.000  O
  O8       1.0000 0.76690  0.73480  0.58650  Biso   1.000  O
  O9       1.0000 0.65420  0.09540  0.26190  Biso   1.000  O
  O10      1.0000 0.34580  0.90460  0.73810  Biso   1.000  O
  C1       1.0000 0.22670  0.88250  0.21380  Biso   1.000  C
  C2       1.0000 0.77330  0.11750  0.78620  Biso   1.000  C
  H1       1.0000 0.37190  0.87870  0.19960  Biso   1.000  H
  H2       1.0000 0.62810  0.12130  0.80040  Biso   1.000  H
  C3       1.0000 0.22140  0.43800  0.82700  Biso   1.000  C
  C4       1.0000 0.77860  0.56200  0.17300  Biso   1.000  C
  H3       1.0000 0.10770  0.38700  0.89430  Biso   1.000  H
  H4       1.0000 0.89230  0.61300  0.10570  Biso   1.000  H
  O11      1.0000 0.22750  0.49540  0.64960  Biso   1.000  O
  O12      1.0000 0.77250  0.50460  0.35040  Biso   1.000  O
  H5       1.0000 0.76200  0.10600  0.24100  Biso   1.000  H
  H6       1.0000 0.23800  0.89400  0.75900  Biso   1.000  H
  H7       1.0000 0.67900  0.99100  0.37000  Biso   1.000  H
  H8       1.0000 0.32100  0.00900  0.63000  Biso   1.000  H
  H9       1.0000 0.19300  0.22400  0.36100  Biso   1.000  H
  H10      1.0000 0.80700  0.77600  0.63900  Biso   1.000  H
