data_image0
_cell_length_a       10.8184
_cell_length_b       13.3823
_cell_length_c       10.4782
_cell_angle_alpha    90
_cell_angle_beta     115.78
_cell_angle_gamma    90

_symmetry_space_group_name_H-M    "P 1"
_symmetry_int_tables_number       1

loop_
  _symmetry_equiv_pos_as_xyz
  'x, y, z'

loop_
  _atom_site_label
  _atom_site_occupancy
  _atom_site_fract_x
  _atom_site_fract_y
  _atom_site_fract_z
  _atom_site_thermal_displace_type
  _atom_site_B_iso_or_equiv
  _atom_site_type_symbol
  Pd1      1.0000 0.83231  0.50481  0.88139  Biso   1.000  Pd
  Pd2      1.0000 0.16769  0.00481  0.61861  Biso   1.000  Pd
  Pd3      1.0000 0.16769  0.49519  0.11861  Biso   1.000  Pd
  Pd4      1.0000 0.83231  0.99519  0.38139  Biso   1.000  Pd
  Cu1      1.0000 0.50000  0.50000  0.00000  Biso   1.000  Cu
  Cu2      1.0000 0.50000  0.00000  0.50000  Biso   1.000  Cu
  Cl1      1.0000 0.64590  0.59221  0.86460  Biso   1.000  Cl
  Cl2      1.0000 0.35410  0.09221  0.63540  Biso   1.000  Cl
  Cl3      1.0000 0.35410  0.40779  0.13540  Biso   1.000  Cl
  Cl4      1.0000 0.64590  0.90779  0.36460  Biso   1.000  Cl
  Cl5      1.0000 0.70420  0.42433  0.67580  Biso   1.000  Cl
  Cl6      1.0000 0.29580  0.92433  0.82420  Biso   1.000  Cl
  Cl7      1.0000 0.29580  0.57567  0.32420  Biso   1.000  Cl
  Cl8      1.0000 0.70420  0.07567  0.17580  Biso   1.000  Cl
  Cl9      1.0000 0.02980  0.42374  0.89950  Biso   1.000  Cl
  Cl10     1.0000 0.97020  0.92374  0.60050  Biso   1.000  Cl
  Cl11     1.0000 0.97020  0.57626  0.10050  Biso   1.000  Cl
  Cl12     1.0000 0.02980  0.07626  0.39950  Biso   1.000  Cl
  O1       1.0000 0.46030  0.63200  0.04960  Biso   1.000  O
  O2       1.0000 0.53970  0.13200  0.45040  Biso   1.000  O
  O3       1.0000 0.53970  0.36800  0.95040  Biso   1.000  O
  O4       1.0000 0.46030  0.86800  0.54960  Biso   1.000  O
  O5       1.0000 0.33090  0.49640  0.81830  Biso   1.000  O
  O6       1.0000 0.66910  0.99640  0.68170  Biso   1.000  O
  O7       1.0000 0.66910  0.50360  0.18170  Biso   1.000  O
  O8       1.0000 0.33090  0.00360  0.31830  Biso   1.000  O
  N1       1.0000 0.22760  0.65670  0.91700  Biso   1.000  N
  N2       1.0000 0.77240  0.15670  0.58300  Biso   1.000  N
  N3       1.0000 0.77240  0.34330  0.08300  Biso   1.000  N
  N4       1.0000 0.22760  0.84330  0.41700  Biso   1.000  N
  N5       1.0000 0.38850  0.43010  0.65010  Biso   1.000  N
  N6       1.0000 0.61150  0.93010  0.84990  Biso   1.000  N
  N7       1.0000 0.61150  0.56990  0.34990  Biso   1.000  N
  N8       1.0000 0.38850  0.06990  0.15010  Biso   1.000  N
  C1       1.0000 0.34970  0.67920  0.01930  Biso   1.000  C
  C2       1.0000 0.65030  0.17920  0.48070  Biso   1.000  C
  C3       1.0000 0.65030  0.32080  0.98070  Biso   1.000  C
  C4       1.0000 0.34970  0.82080  0.51930  Biso   1.000  C
  C5       1.0000 0.33880  0.76880  0.09900  Biso   1.000  C
  C6       1.0000 0.66120  0.26880  0.40100  Biso   1.000  C
  C7       1.0000 0.66120  0.23120  0.90100  Biso   1.000  C
  C8       1.0000 0.33880  0.73120  0.59900  Biso   1.000  C
  C9       1.0000 0.18520  0.78820  0.03970  Biso   1.000  C
  C10      1.0000 0.81480  0.28820  0.46030  Biso   1.000  C
  C11      1.0000 0.81480  0.21180  0.96030  Biso   1.000  C
  C12      1.0000 0.18520  0.71180  0.53970  Biso   1.000  C
  C13      1.0000 0.11950  0.72620  0.90530  Biso   1.000  C
  C14      1.0000 0.88050  0.22620  0.59470  Biso   1.000  C
  C15      1.0000 0.88050  0.27380  0.09470  Biso   1.000  C
  C16      1.0000 0.11950  0.77380  0.40530  Biso   1.000  C
  C17      1.0000 0.30670  0.44540  0.71060  Biso   1.000  C
  C18      1.0000 0.69330  0.94540  0.78940  Biso   1.000  C
  C19      1.0000 0.69330  0.55460  0.28940  Biso   1.000  C
  C20      1.0000 0.30670  0.05460  0.21060  Biso   1.000  C
  C21      1.0000 0.17530  0.39060  0.63000  Biso   1.000  C
  C22      1.0000 0.82470  0.89060  0.87000  Biso   1.000  C
  C23      1.0000 0.82470  0.60940  0.37000  Biso   1.000  C
  C24      1.0000 0.17530  0.10940  0.13000  Biso   1.000  C
  C25      1.0000 0.18410  0.35630  0.49470  Biso   1.000  C
  C26      1.0000 0.81590  0.85630  0.00530  Biso   1.000  C
  C27      1.0000 0.81590  0.64370  0.50530  Biso   1.000  C
  C28      1.0000 0.18410  0.14370  0.99470  Biso   1.000  C
  C29      1.0000 0.33530  0.36010  0.53020  Biso   1.000  C
  C30      1.0000 0.66470  0.86010  0.96980  Biso   1.000  C
  C31      1.0000 0.66470  0.63990  0.46980  Biso   1.000  C
  C32      1.0000 0.33530  0.13990  0.03020  Biso   1.000  C
  H1       1.0000 0.22230  0.61130  0.85630  Biso   1.000  H
  H2       1.0000 0.77770  0.11130  0.64370  Biso   1.000  H
  H3       1.0000 0.77770  0.38870  0.14370  Biso   1.000  H
  H4       1.0000 0.22230  0.88870  0.35630  Biso   1.000  H
  H5       1.0000 0.46880  0.45570  0.67610  Biso   1.000  H
  H6       1.0000 0.53120  0.95570  0.82390  Biso   1.000  H
  H7       1.0000 0.53120  0.54430  0.32390  Biso   1.000  H
  H8       1.0000 0.46880  0.04430  0.17610  Biso   1.000  H
  H9       1.0000 0.38630  0.82620  0.08260  Biso   1.000  H
  H10      1.0000 0.61370  0.32620  0.41740  Biso   1.000  H
  H11      1.0000 0.61370  0.17380  0.91740  Biso   1.000  H
  H12      1.0000 0.38630  0.67380  0.58260  Biso   1.000  H
  H13      1.0000 0.37830  0.75520  0.20100  Biso   1.000  H
  H14      1.0000 0.62170  0.25520  0.29900  Biso   1.000  H
  H15      1.0000 0.62170  0.24480  0.79900  Biso   1.000  H
  H16      1.0000 0.37830  0.74480  0.70100  Biso   1.000  H
  H17      1.0000 0.15050  0.76770  0.10800  Biso   1.000  H
  H18      1.0000 0.84950  0.26770  0.39200  Biso   1.000  H
  H19      1.0000 0.84950  0.23230  0.89200  Biso   1.000  H
  H20      1.0000 0.15050  0.73230  0.60800  Biso   1.000  H
  H21      1.0000 0.16530  0.85930  0.01820  Biso   1.000  H
  H22      1.0000 0.83470  0.35930  0.48180  Biso   1.000  H
  H23      1.0000 0.83470  0.14070  0.98180  Biso   1.000  H
  H24      1.0000 0.16530  0.64070  0.51820  Biso   1.000  H
  H25      1.0000 0.03860  0.69040  0.90080  Biso   1.000  H
  H26      1.0000 0.96140  0.19040  0.59920  Biso   1.000  H
  H27      1.0000 0.96140  0.30960  0.09920  Biso   1.000  H
  H28      1.0000 0.03860  0.80960  0.40080  Biso   1.000  H
  H29      1.0000 0.09200  0.76830  0.82080  Biso   1.000  H
  H30      1.0000 0.90800  0.26830  0.67920  Biso   1.000  H
  H31      1.0000 0.90800  0.23170  0.17920  Biso   1.000  H
  H32      1.0000 0.09200  0.73170  0.32080  Biso   1.000  H
  H33      1.0000 0.09630  0.43470  0.60770  Biso   1.000  H
  H34      1.0000 0.90370  0.93470  0.89230  Biso   1.000  H
  H35      1.0000 0.90370  0.56530  0.39230  Biso   1.000  H
  H36      1.0000 0.09630  0.06530  0.10770  Biso   1.000  H
  H37      1.0000 0.16770  0.33330  0.68430  Biso   1.000  H
  H38      1.0000 0.83230  0.83330  0.81570  Biso   1.000  H
  H39      1.0000 0.83230  0.66670  0.31570  Biso   1.000  H
  H40      1.0000 0.16770  0.16670  0.18430  Biso   1.000  H
  H41      1.0000 0.13160  0.40110  0.41150  Biso   1.000  H
  H42      1.0000 0.86840  0.90110  0.08850  Biso   1.000  H
  H43      1.0000 0.86840  0.59890  0.58850  Biso   1.000  H
  H44      1.0000 0.13160  0.09890  0.91150  Biso   1.000  H
  H45      1.0000 0.14830  0.28830  0.46930  Biso   1.000  H
  H46      1.0000 0.85170  0.78830  0.03070  Biso   1.000  H
  H47      1.0000 0.85170  0.71170  0.53070  Biso   1.000  H
  H48      1.0000 0.14830  0.21170  0.96930  Biso   1.000  H
  H49      1.0000 0.35030  0.38510  0.45010  Biso   1.000  H
  H50      1.0000 0.64970  0.88510  0.04990  Biso   1.000  H
  H51      1.0000 0.64970  0.61490  0.54990  Biso   1.000  H
  H52      1.0000 0.35030  0.11490  0.95010  Biso   1.000  H
  H53      1.0000 0.37810  0.29410  0.55750  Biso   1.000  H
  H54      1.0000 0.62190  0.79410  0.94250  Biso   1.000  H
  H55      1.0000 0.62190  0.70590  0.44250  Biso   1.000  H
  H56      1.0000 0.37810  0.20590  0.05750  Biso   1.000  H
