data_image0
_cell_length_a       11.653
_cell_length_b       14.6666
_cell_length_c       19.1956
_cell_angle_alpha    88.22
_cell_angle_beta     83.038
_cell_angle_gamma    85.811

_symmetry_space_group_name_H-M    "P 1"
_symmetry_int_tables_number       1

loop_
  _symmetry_equiv_pos_as_xyz
  'x, y, z'

loop_
  _atom_site_label
  _atom_site_occupancy
  _atom_site_fract_x
  _atom_site_fract_y
  _atom_site_fract_z
  _atom_site_thermal_displace_type
  _atom_site_B_iso_or_equiv
  _atom_site_type_symbol
  U1       1.0000 0.06389  0.32693  0.40114  Biso   1.000  U
  U2       1.0000 0.93611  0.67307  0.59886  Biso   1.000  U
  O1       1.0000 0.97140  0.38160  0.34320  Biso   1.000  O
  O2       1.0000 0.02860  0.61840  0.65680  Biso   1.000  O
  O3       1.0000 0.15490  0.27610  0.46120  Biso   1.000  O
  O4       1.0000 0.84510  0.72390  0.53880  Biso   1.000  O
  O5       1.0000 0.89660  0.24310  0.45340  Biso   1.000  O
  O6       1.0000 0.10340  0.75690  0.54660  Biso   1.000  O
  O7       1.0000 0.01050  0.17470  0.36900  Biso   1.000  O
  O8       1.0000 0.98950  0.82530  0.63100  Biso   1.000  O
  O9       1.0000 0.18110  0.25690  0.29830  Biso   1.000  O
  O10      1.0000 0.81890  0.74310  0.70170  Biso   1.000  O
  O11      1.0000 0.24480  0.38260  0.33280  Biso   1.000  O
  O12      1.0000 0.75520  0.61740  0.66720  Biso   1.000  O
  O13      1.0000 0.94460  0.39350  0.50560  Biso   1.000  O
  O14      1.0000 0.05540  0.60650  0.49440  Biso   1.000  O
  O15      1.0000 0.10550  0.48360  0.42840  Biso   1.000  O
  O16      1.0000 0.89450  0.51640  0.57160  Biso   1.000  O
  C1       1.0000 0.92370  0.17390  0.41470  Biso   1.000  C
  C2       1.0000 0.07630  0.82610  0.58530  Biso   1.000  C
  C3       1.0000 0.25410  0.31700  0.29060  Biso   1.000  C
  C4       1.0000 0.74590  0.68300  0.70940  Biso   1.000  C
  C5       1.0000 0.95370  0.47470  0.52300  Biso   1.000  C
  C6       1.0000 0.04630  0.52530  0.47700  Biso   1.000  C
  C7       1.0000 0.85790  0.08920  0.42580  Biso   1.000  C
  C8       1.0000 0.14210  0.91080  0.57420  Biso   1.000  C
  C9       1.0000 0.34600  0.30970  0.22620  Biso   1.000  C
  C10      1.0000 0.65400  0.69030  0.77380  Biso   1.000  C
  H1       1.0000 0.90250  0.04370  0.45290  Biso   1.000  H
  H2       1.0000 0.09750  0.95630  0.54710  Biso   1.000  H
  H3       1.0000 0.85300  0.06290  0.37950  Biso   1.000  H
  H4       1.0000 0.14700  0.93710  0.62050  Biso   1.000  H
  C11      1.0000 0.73630  0.10370  0.46380  Biso   1.000  C
  C12      1.0000 0.26370  0.89630  0.53620  Biso   1.000  C
  H5       1.0000 0.36910  0.24430  0.21790  Biso   1.000  H
  H6       1.0000 0.63090  0.75570  0.78210  Biso   1.000  H
  H7       1.0000 0.31080  0.33480  0.18470  Biso   1.000  H
  H8       1.0000 0.68920  0.66520  0.81530  Biso   1.000  H
  C13      1.0000 0.45360  0.35900  0.23260  Biso   1.000  C
  C14      1.0000 0.54640  0.64100  0.76740  Biso   1.000  C
  H9       1.0000 0.68330  0.12750  0.42980  Biso   1.000  H
  H10      1.0000 0.31670  0.87250  0.57020  Biso   1.000  H
  H11      1.0000 0.73580  0.15040  0.50000  Biso   1.000  H
  H12      1.0000 0.26420  0.84960  0.50000  Biso   1.000  H
  C15      1.0000 0.69140  0.01620  0.49880  Biso   1.000  C
  C16      1.0000 0.30860  0.98380  0.50120  Biso   1.000  C
  H13      1.0000 0.48950  0.33490  0.27420  Biso   1.000  H
  H14      1.0000 0.51050  0.66510  0.72580  Biso   1.000  H
  H15      1.0000 0.43220  0.42500  0.23920  Biso   1.000  H
  H16      1.0000 0.56780  0.57500  0.76080  Biso   1.000  H
  C17      1.0000 0.54230  0.34580  0.16550  Biso   1.000  C
  C18      1.0000 0.45770  0.65420  0.83450  Biso   1.000  C
  H17      1.0000 0.69730  0.96780  0.46340  Biso   1.000  H
  H18      1.0000 0.30270  0.03220  0.53660  Biso   1.000  H
  H19      1.0000 0.60860  0.02760  0.51710  Biso   1.000  H
  H20      1.0000 0.39140  0.97240  0.48290  Biso   1.000  H
  C19      1.0000 0.76060  0.98330  0.55930  Biso   1.000  C
  C20      1.0000 0.23940  0.01670  0.44070  Biso   1.000  C
  H21      1.0000 0.61210  0.37780  0.17180  Biso   1.000  H
  H22      1.0000 0.38790  0.62220  0.82820  Biso   1.000  H
  H23      1.0000 0.56610  0.27980  0.16130  Biso   1.000  H
  H24      1.0000 0.43390  0.72020  0.83870  Biso   1.000  H
  C21      1.0000 0.49850  0.38040  0.09660  Biso   1.000  C
  C22      1.0000 0.50150  0.61960  0.90340  Biso   1.000  C
  H25      1.0000 0.84100  0.96410  0.53990  Biso   1.000  H
  H26      1.0000 0.15900  0.03590  0.46010  Biso   1.000  H
  H27      1.0000 0.76360  0.03460  0.59120  Biso   1.000  H
  H28      1.0000 0.23640  0.96540  0.40880  Biso   1.000  H
  C23      1.0000 0.70700  0.90410  0.60060  Biso   1.000  C
  C24      1.0000 0.29300  0.09590  0.39940  Biso   1.000  C
  H29      1.0000 0.56120  0.36890  0.05760  Biso   1.000  H
  H30      1.0000 0.43880  0.63110  0.94240  Biso   1.000  H
  H31      1.0000 0.43270  0.34490  0.08790  Biso   1.000  H
  H32      1.0000 0.56730  0.65510  0.91210  Biso   1.000  H
  C25      1.0000 0.45960  0.48110  0.09640  Biso   1.000  C
  C26      1.0000 0.54040  0.51890  0.90360  Biso   1.000  C
  H33      1.0000 0.69800  0.85510  0.56780  Biso   1.000  H
  H34      1.0000 0.30200  0.14490  0.43220  Biso   1.000  H
  H35      1.0000 0.76070  0.87920  0.63380  Biso   1.000  H
  H36      1.0000 0.23930  0.12080  0.36620  Biso   1.000  H
  C27      1.0000 0.59090  0.92950  0.64120  Biso   1.000  C
  C28      1.0000 0.40910  0.07050  0.35880  Biso   1.000  C
  H37      1.0000 0.40180  0.49380  0.13780  Biso   1.000  H
  H38      1.0000 0.59820  0.50620  0.86220  Biso   1.000  H
  H39      1.0000 0.42170  0.49670  0.05380  Biso   1.000  H
  H40      1.0000 0.57830  0.50330  0.94620  Biso   1.000  H
  C29      1.0000 0.56050  0.54080  0.09820  Biso   1.000  C
  C30      1.0000 0.43950  0.45920  0.90180  Biso   1.000  C
  O17      1.0000 0.57130  0.00480  0.67260  Biso   1.000  O
  O18      1.0000 0.42870  0.99520  0.32740  Biso   1.000  O
  O19      1.0000 0.51480  0.87210  0.64820  Biso   1.000  O
  O20      1.0000 0.48520  0.12790  0.35180  Biso   1.000  O
  O21      1.0000 0.54630  0.61020  0.13550  Biso   1.000  O
  O22      1.0000 0.45370  0.38980  0.86450  Biso   1.000  O
  O23      1.0000 0.65620  0.52420  0.06010  Biso   1.000  O
  O24      1.0000 0.34380  0.47580  0.93990  Biso   1.000  O
  U3       1.0000 0.38788  0.95729  0.73923  Biso   1.000  U
  U4       1.0000 0.61212  0.04271  0.26077  Biso   1.000  U
  U5       1.0000 0.73007  0.67292  0.08553  Biso   1.000  U
  U6       1.0000 0.26993  0.32708  0.91447  Biso   1.000  U
  O25      1.0000 0.47400  0.90820  0.80320  Biso   1.000  O
  O26      1.0000 0.52600  0.09180  0.19680  Biso   1.000  O
  O27      1.0000 0.30150  0.00860  0.67650  Biso   1.000  O
  O28      1.0000 0.69850  0.99140  0.32350  Biso   1.000  O
  O29      1.0000 0.32560  0.80580  0.71240  Biso   1.000  O
  O30      1.0000 0.67440  0.19420  0.28760  Biso   1.000  O
  O31      1.0000 0.21630  0.88110  0.79520  Biso   1.000  O
  O32      1.0000 0.78370  0.11890  0.20480  Biso   1.000  O
  O33      1.0000 0.26600  0.03810  0.83680  Biso   1.000  O
  O34      1.0000 0.73400  0.96190  0.16320  Biso   1.000  O
  O35      1.0000 0.43650  0.11540  0.75910  Biso   1.000  O
  O36      1.0000 0.56350  0.88460  0.24090  Biso   1.000  O
  O37      1.0000 0.64950  0.72550  0.02090  Biso   1.000  O
  O38      1.0000 0.35050  0.27450  0.97910  Biso   1.000  O
  O39      1.0000 0.81170  0.62250  0.15010  Biso   1.000  O
  O40      1.0000 0.18830  0.37750  0.84990  Biso   1.000  O
  O41      1.0000 0.78110  0.83010  0.10600  Biso   1.000  O
  O42      1.0000 0.21890  0.16990  0.89400  Biso   1.000  O
  O43      1.0000 0.61200  0.75340  0.18520  Biso   1.000  O
  O44      1.0000 0.38800  0.24660  0.81480  Biso   1.000  O
  O45      1.0000 0.85990  0.58710  0.99430  Biso   1.000  O
  O46      1.0000 0.14010  0.41290  0.00570  Biso   1.000  O
  O47      1.0000 0.91810  0.71630  0.02500  Biso   1.000  O
  O48      1.0000 0.08190  0.28370  0.97500  Biso   1.000  O
  C31      1.0000 0.23750  0.81020  0.75860  Biso   1.000  C
  C32      1.0000 0.76250  0.18980  0.24140  Biso   1.000  C
  C33      1.0000 0.27900  0.12080  0.84910  Biso   1.000  C
  C34      1.0000 0.72100  0.87920  0.15090  Biso   1.000  C
  C35      1.0000 0.37680  0.16540  0.80280  Biso   1.000  C
  C36      1.0000 0.62320  0.83460  0.19720  Biso   1.000  C
  C37      1.0000 0.16670  0.72790  0.77150  Biso   1.000  C
  C38      1.0000 0.83330  0.27210  0.22850  Biso   1.000  C
  H41      1.0000 0.15580  0.70300  0.72560  Biso   1.000  H
  H42      1.0000 0.84420  0.29700  0.27440  Biso   1.000  H
  H43      1.0000 0.21130  0.68030  0.79680  Biso   1.000  H
  H44      1.0000 0.78870  0.31970  0.20320  Biso   1.000  H
  C39      1.0000 0.04830  0.74590  0.81340  Biso   1.000  C
  C40      1.0000 0.95170  0.25410  0.18660  Biso   1.000  C
  H45      1.0000 0.05770  0.77600  0.85760  Biso   1.000  H
  H46      1.0000 0.94230  0.22400  0.14240  Biso   1.000  H
  H47      1.0000 0.00000  0.78840  0.78610  Biso   1.000  H
  H48      1.0000 0.00000  0.21160  0.21390  Biso   1.000  H
  C41      1.0000 0.98580  0.65880  0.83090  Biso   1.000  C
  C42      1.0000 0.01420  0.34120  0.16910  Biso   1.000  C
  H49      1.0000 0.90730  0.67610  0.85460  Biso   1.000  H
  H50      1.0000 0.09270  0.32390  0.14540  Biso   1.000  H
  H51      1.0000 0.97600  0.62980  0.78630  Biso   1.000  H
  H52      1.0000 0.02400  0.37020  0.21370  Biso   1.000  H
  C43      1.0000 0.04490  0.58770  0.87720  Biso   1.000  C
  C44      1.0000 0.95510  0.41230  0.12280  Biso   1.000  C
  H53      1.0000 0.12330  0.56950  0.85370  Biso   1.000  H
  H54      1.0000 0.87670  0.43050  0.14630  Biso   1.000  H
  H55      1.0000 0.00000  0.53260  0.88220  Biso   1.000  H
  H56      1.0000 0.00000  0.46740  0.11780  Biso   1.000  H
  C45      1.0000 0.05550  0.62240  0.94960  Biso   1.000  C
  C46      1.0000 0.94450  0.37760  0.05040  Biso   1.000  C
  H57      1.0000 0.10110  0.57590  0.97540  Biso   1.000  H
  H58      1.0000 0.89890  0.42410  0.02460  Biso   1.000  H
  H59      1.0000 0.09800  0.67880  0.94480  Biso   1.000  H
  H60      1.0000 0.90200  0.32120  0.05520  Biso   1.000  H
  C47      1.0000 0.93780  0.64280  0.99170  Biso   1.000  C
  C48      1.0000 0.06220  0.35720  0.00830  Biso   1.000  C
  Cu1      1.0000 0.16913  0.84839  0.17571  Biso   1.000  Cu
  Cu2      1.0000 0.83087  0.15161  0.82429  Biso   1.000  Cu
  N1       1.0000 0.16860  0.98750  0.17070  Biso   1.000  N
  N2       1.0000 0.83140  0.01250  0.82930  Biso   1.000  N
  H61      1.0000 0.09740  0.00940  0.15630  Biso   1.000  H
  H62      1.0000 0.90260  0.99060  0.84370  Biso   1.000  H
  N3       1.0000 0.09780  0.86490  0.27630  Biso   1.000  N
  N4       1.0000 0.90220  0.13510  0.72370  Biso   1.000  N
  H63      1.0000 0.16070  0.85760  0.30620  Biso   1.000  H
  H64      1.0000 0.83930  0.14240  0.69380  Biso   1.000  H
  N5       1.0000 0.17020  0.70980  0.18130  Biso   1.000  N
  N6       1.0000 0.82980  0.29020  0.81870  Biso   1.000  N
  H65      1.0000 0.24040  0.69860  0.20020  Biso   1.000  H
  H66      1.0000 0.75960  0.30140  0.79980  Biso   1.000  H
  N7       1.0000 0.24070  0.83170  0.07580  Biso   1.000  N
  N8       1.0000 0.75930  0.16830  0.92420  Biso   1.000  N
  H67      1.0000 0.18450  0.86380  0.05360  Biso   1.000  H
  H68      1.0000 0.81550  0.13620  0.94640  Biso   1.000  H
  C49      1.0000 0.15630  0.01890  0.24540  Biso   1.000  C
  C50      1.0000 0.84370  0.98110  0.75460  Biso   1.000  C
  H69      1.0000 0.23110  0.00850  0.26500  Biso   1.000  H
  H70      1.0000 0.76890  0.99150  0.73500  Biso   1.000  H
  H71      1.0000 0.13210  0.08500  0.24750  Biso   1.000  H
  H72      1.0000 0.86790  0.91500  0.75250  Biso   1.000  H
  C51      1.0000 0.06600  0.96420  0.28640  Biso   1.000  C
  C52      1.0000 0.93400  0.03580  0.71360  Biso   1.000  C
  H73      1.0000 0.06050  0.97830  0.33680  Biso   1.000  H
  H74      1.0000 0.93950  0.02170  0.66320  Biso   1.000  H
  H75      1.0000 0.98950  0.98050  0.27020  Biso   1.000  H
  H76      1.0000 0.01050  0.01950  0.72980  Biso   1.000  H
  C53      1.0000 0.00500  0.80250  0.30580  Biso   1.000  C
  C54      1.0000 0.99500  0.19750  0.69420  Biso   1.000  C
  C55      1.0000 0.05840  0.70320  0.29990  Biso   1.000  C
  C56      1.0000 0.94160  0.29680  0.70010  Biso   1.000  C
  H77      1.0000 0.13350  0.70030  0.31940  Biso   1.000  H
  H78      1.0000 0.86650  0.29970  0.68060  Biso   1.000  H
  H79      1.0000 0.00700  0.66370  0.33030  Biso   1.000  H
  H80      1.0000 0.99300  0.33630  0.66970  Biso   1.000  H
  C57      1.0000 0.07930  0.66240  0.22730  Biso   1.000  C
  C58      1.0000 0.92070  0.33760  0.77270  Biso   1.000  C
  H81      1.0000 0.00540  0.67080  0.20550  Biso   1.000  H
  H82      1.0000 0.99460  0.32920  0.79450  Biso   1.000  H
  C59      1.0000 0.90190  0.81690  0.26420  Biso   1.000  C
  C60      1.0000 0.09810  0.18310  0.73580  Biso   1.000  C
  H83      1.0000 0.92920  0.81630  0.21390  Biso   1.000  H
  H84      1.0000 0.07080  0.18370  0.78610  Biso   1.000  H
  H85      1.0000 0.86030  0.87600  0.27590  Biso   1.000  H
  H86      1.0000 0.13970  0.12400  0.72410  Biso   1.000  H
  H87      1.0000 0.84960  0.76780  0.27600  Biso   1.000  H
  H88      1.0000 0.15040  0.23220  0.72400  Biso   1.000  H
  C61      1.0000 0.96830  0.82190  0.38350  Biso   1.000  C
  C62      1.0000 0.03170  0.17810  0.61650  Biso   1.000  C
  H89      1.0000 0.92990  0.88350  0.38810  Biso   1.000  H
  H90      1.0000 0.07010  0.11650  0.61190  Biso   1.000  H
  H91      1.0000 0.03690  0.81770  0.40860  Biso   1.000  H
  H92      1.0000 0.96310  0.18230  0.59140  Biso   1.000  H
  H93      1.0000 0.91460  0.77690  0.40350  Biso   1.000  H
  H94      1.0000 0.08540  0.22310  0.59650  Biso   1.000  H
  C63      1.0000 0.11130  0.55970  0.23400  Biso   1.000  C
  C64      1.0000 0.88870  0.44030  0.76600  Biso   1.000  C
  H95      1.0000 0.12100  0.53270  0.18740  Biso   1.000  H
  H96      1.0000 0.87900  0.46730  0.81260  Biso   1.000  H
  H97      1.0000 0.04940  0.53070  0.26400  Biso   1.000  H
  H98      1.0000 0.95060  0.46930  0.73600  Biso   1.000  H
  H99      1.0000 0.18390  0.54980  0.25500  Biso   1.000  H
  H100     1.0000 0.81610  0.45020  0.74500  Biso   1.000  H
  C65      1.0000 0.18370  0.68020  0.10680  Biso   1.000  C
  C66      1.0000 0.81630  0.31980  0.89320  Biso   1.000  C
  H101     1.0000 0.20750  0.61410  0.10450  Biso   1.000  H
  H102     1.0000 0.79250  0.38590  0.89550  Biso   1.000  H
  H103     1.0000 0.10900  0.69090  0.08720  Biso   1.000  H
  H104     1.0000 0.89100  0.30910  0.91280  Biso   1.000  H
  C67      1.0000 0.27290  0.73320  0.06550  Biso   1.000  C
  C68      1.0000 0.72710  0.26680  0.93450  Biso   1.000  C
  H105     1.0000 0.34970  0.71690  0.08130  Biso   1.000  H
  H106     1.0000 0.65030  0.28310  0.91870  Biso   1.000  H
  H107     1.0000 0.27730  0.71900  0.01510  Biso   1.000  H
  H108     1.0000 0.72270  0.28100  0.98490  Biso   1.000  H
  C69      1.0000 0.33360  0.89440  0.04670  Biso   1.000  C
  C70      1.0000 0.66640  0.10560  0.95330  Biso   1.000  C
  C71      1.0000 0.27940  0.99310  0.05170  Biso   1.000  C
  C72      1.0000 0.72060  0.00690  0.94830  Biso   1.000  C
  H109     1.0000 0.33030  0.03250  0.02080  Biso   1.000  H
  H110     1.0000 0.66970  0.96750  0.97920  Biso   1.000  H
  H111     1.0000 0.20410  0.99510  0.03250  Biso   1.000  H
  H112     1.0000 0.79590  0.00490  0.96750  Biso   1.000  H
  C73      1.0000 0.25880  0.03490  0.12420  Biso   1.000  C
  C74      1.0000 0.74120  0.96510  0.87580  Biso   1.000  C
  H113     1.0000 0.33290  0.02720  0.14570  Biso   1.000  H
  H114     1.0000 0.66710  0.97280  0.85430  Biso   1.000  H
  C75      1.0000 0.43530  0.87920  0.08990  Biso   1.000  C
  C76      1.0000 0.56470  0.12080  0.91010  Biso   1.000  C
  H115     1.0000 0.40620  0.87970  0.14000  Biso   1.000  H
  H116     1.0000 0.59380  0.12030  0.86000  Biso   1.000  H
  H117     1.0000 0.48800  0.92820  0.07900  Biso   1.000  H
  H118     1.0000 0.51200  0.07180  0.92100  Biso   1.000  H
  H119     1.0000 0.47690  0.82010  0.07850  Biso   1.000  H
  H120     1.0000 0.52310  0.17990  0.92150  Biso   1.000  H
  C77      1.0000 0.37270  0.87500  0.97000  Biso   1.000  C
  C78      1.0000 0.62730  0.12500  0.03000  Biso   1.000  C
  H121     1.0000 0.40970  0.81290  0.96590  Biso   1.000  H
  H122     1.0000 0.59030  0.18710  0.03410  Biso   1.000  H
  H123     1.0000 0.42830  0.91910  0.95100  Biso   1.000  H
  H124     1.0000 0.57170  0.08090  0.04900  Biso   1.000  H
  H125     1.0000 0.30550  0.88040  0.94370  Biso   1.000  H
  H126     1.0000 0.69450  0.11960  0.05630  Biso   1.000  H
  C79      1.0000 0.22540  0.13720  0.11710  Biso   1.000  C
  C80      1.0000 0.77460  0.86280  0.88290  Biso   1.000  C
  H127     1.0000 0.28800  0.16690  0.08830  Biso   1.000  H
  H128     1.0000 0.71200  0.83310  0.91170  Biso   1.000  H
  H129     1.0000 0.21280  0.16410  0.16370  Biso   1.000  H
  H130     1.0000 0.78720  0.83590  0.83630  Biso   1.000  H
  H131     1.0000 0.15410  0.14630  0.09470  Biso   1.000  H
  H132     1.0000 0.84590  0.85370  0.90530  Biso   1.000  H
  Cu3      1.0000 0.50000  0.50000  0.50000  Biso   1.000  Cu
  N9       1.0000 0.49050  0.63920  0.49970  Biso   1.000  N
  N10      1.0000 0.50950  0.36080  0.50030  Biso   1.000  N
  H133     1.0000 0.42660  0.65560  0.47650  Biso   1.000  H
  H134     1.0000 0.57340  0.34440  0.52350  Biso   1.000  H
  N11      1.0000 0.41940  0.50860  0.59840  Biso   1.000  N
  N12      1.0000 0.58060  0.49140  0.40160  Biso   1.000  N
  H135     1.0000 0.48100  0.50050  0.63030  Biso   1.000  H
  H136     1.0000 0.51900  0.49950  0.36970  Biso   1.000  H
  C81      1.0000 0.46930  0.66490  0.57570  Biso   1.000  C
  C82      1.0000 0.53070  0.33510  0.42430  Biso   1.000  C
  H137     1.0000 0.54180  0.65470  0.59780  Biso   1.000  H
  H138     1.0000 0.45820  0.34530  0.40220  Biso   1.000  H
  H139     1.0000 0.44210  0.73020  0.57980  Biso   1.000  H
  H140     1.0000 0.55790  0.26980  0.42020  Biso   1.000  H
  C83      1.0000 0.37930  0.60630  0.61110  Biso   1.000  C
  C84      1.0000 0.62070  0.39370  0.38890  Biso   1.000  C
  H141     1.0000 0.30480  0.62090  0.59200  Biso   1.000  H
  H142     1.0000 0.69520  0.37910  0.40800  Biso   1.000  H
  H143     1.0000 0.36750  0.61760  0.66210  Biso   1.000  H
  H144     1.0000 0.63250  0.38240  0.33790  Biso   1.000  H
  C85      1.0000 0.33030  0.44120  0.62300  Biso   1.000  C
  C86      1.0000 0.66970  0.55880  0.37700  Biso   1.000  C
  C87      1.0000 0.39040  0.34500  0.61540  Biso   1.000  C
  C88      1.0000 0.60960  0.65500  0.38460  Biso   1.000  C
  H145     1.0000 0.46370  0.34410  0.63670  Biso   1.000  H
  H146     1.0000 0.53630  0.65590  0.36330  Biso   1.000  H
  H147     1.0000 0.34050  0.30190  0.64330  Biso   1.000  H
  H148     1.0000 0.65950  0.69810  0.35670  Biso   1.000  H
  C89      1.0000 0.41840  0.30870  0.54100  Biso   1.000  C
  C90      1.0000 0.58160  0.69130  0.45900  Biso   1.000  C
  H149     1.0000 0.34660  0.31780  0.51720  Biso   1.000  H
  H150     1.0000 0.65340  0.68220  0.48280  Biso   1.000  H
  C91      1.0000 0.22950  0.45460  0.57880  Biso   1.000  C
  C92      1.0000 0.77050  0.54540  0.42120  Biso   1.000  C
  H151     1.0000 0.18390  0.40080  0.58440  Biso   1.000  H
  H152     1.0000 0.81610  0.59920  0.41560  Biso   1.000  H
  H153     1.0000 0.25990  0.46270  0.52930  Biso   1.000  H
  H154     1.0000 0.74010  0.53730  0.47070  Biso   1.000  H
  H155     1.0000 0.18020  0.50890  0.59430  Biso   1.000  H
  H156     1.0000 0.81980  0.49110  0.40570  Biso   1.000  H
  C93      1.0000 0.28670  0.45370  0.70070  Biso   1.000  C
  C94      1.0000 0.71330  0.54630  0.29930  Biso   1.000  C
  H157     1.0000 0.35220  0.44570  0.72830  Biso   1.000  H
  H158     1.0000 0.64780  0.55430  0.27170  Biso   1.000  H
  H159     1.0000 0.23090  0.40810  0.71610  Biso   1.000  H
  H160     1.0000 0.76910  0.59190  0.28390  Biso   1.000  H
  H161     1.0000 0.24890  0.51520  0.70750  Biso   1.000  H
  H162     1.0000 0.75110  0.48480  0.29250  Biso   1.000  H
  C95      1.0000 0.45270  0.20590  0.54410  Biso   1.000  C
  C96      1.0000 0.54730  0.79410  0.45590  Biso   1.000  C
  H163     1.0000 0.46720  0.18250  0.49630  Biso   1.000  H
  H164     1.0000 0.53280  0.81750  0.50370  Biso   1.000  H
  H165     1.0000 0.38970  0.17420  0.57070  Biso   1.000  H
  H166     1.0000 0.61030  0.82580  0.42930  Biso   1.000  H
  H167     1.0000 0.52310  0.19530  0.56720  Biso   1.000  H
  H168     1.0000 0.47690  0.80470  0.43280  Biso   1.000  H
  O49      1.0000 0.32670  0.82370  0.32700  Biso   1.000  O
  O50      1.0000 0.67330  0.17630  0.67300  Biso   1.000  O
  H169     1.0000 0.38580  0.86180  0.31360  Biso   1.000  H
  H170     1.0000 0.61420  0.13820  0.68640  Biso   1.000  H
  H171     1.0000 0.35060  0.78360  0.29420  Biso   1.000  H
  H172     1.0000 0.64940  0.21640  0.70580  Biso   1.000  H
  O51      1.0000 0.38370  0.66930  0.24580  Biso   1.000  O
  O52      1.0000 0.61630  0.33070  0.75420  Biso   1.000  O
  H173     1.0000 0.44180  0.67500  0.21090  Biso   1.000  H
  H174     1.0000 0.55820  0.32500  0.78910  Biso   1.000  H
  H175     1.0000 0.38880  0.62430  0.27480  Biso   1.000  H
  H176     1.0000 0.61120  0.37570  0.72520  Biso   1.000  H
  O53      1.0000 0.35460  0.53700  0.35260  Biso   1.000  O
  O54      1.0000 0.64540  0.46300  0.64740  Biso   1.000  O
  H177     1.0000 0.32730  0.48760  0.34430  Biso   1.000  H
  H178     1.0000 0.67270  0.51240  0.65570  Biso   1.000  H
  H179     1.0000 0.30280  0.56390  0.37970  Biso   1.000  H
  H180     1.0000 0.69720  0.43610  0.62030  Biso   1.000  H
  O55      1.0000 0.27600  0.68560  0.43290  Biso   1.000  O
  O56      1.0000 0.72400  0.31440  0.56710  Biso   1.000  O
  H181     1.0000 0.22370  0.71080  0.46900  Biso   1.000  H
  H182     1.0000 0.77630  0.28920  0.53100  Biso   1.000  H
  H183     1.0000 0.26990  0.74040  0.40410  Biso   1.000  H
  H184     1.0000 0.73010  0.25960  0.59590  Biso   1.000  H
  O57      1.0000 0.04360  0.98240  0.89630  Biso   1.000  O
  O58      1.0000 0.95640  0.01760  0.10370  Biso   1.000  O
  H185     1.0000 0.10800  0.98380  0.86450  Biso   1.000  H
  H186     1.0000 0.89200  0.01620  0.13550  Biso   1.000  H
  H187     1.0000 0.04580  0.02710  0.92240  Biso   1.000  H
  H188     1.0000 0.95420  0.97290  0.07760  Biso   1.000  H
  O59      1.0000 0.97270  0.12700  0.98390  Biso   1.000  O
  O60      1.0000 0.02730  0.87300  0.01610  Biso   1.000  O
  H189     1.0000 0.97470  0.09530  0.01820  Biso   1.000  H
  H190     1.0000 0.02530  0.90470  0.98180  Biso   1.000  H
  H191     1.0000 0.01140  0.17510  0.99840  Biso   1.000  H
  H192     1.0000 0.98860  0.82490  0.00160  Biso   1.000  H
