data_image0
_cell_length_a       23.159
_cell_length_b       7.218
_cell_length_c       20.955
_cell_angle_alpha    90
_cell_angle_beta     90.488
_cell_angle_gamma    90

_symmetry_space_group_name_H-M    "P 1"
_symmetry_int_tables_number       1

loop_
  _symmetry_equiv_pos_as_xyz
  'x, y, z'

loop_
  _atom_site_label
  _atom_site_occupancy
  _atom_site_fract_x
  _atom_site_fract_y
  _atom_site_fract_z
  _atom_site_thermal_displace_type
  _atom_site_B_iso_or_equiv
  _atom_site_type_symbol
  Cu1      1.0000 0.80413  0.09145  0.67523  Biso   1.000  Cu
  Cu2      1.0000 0.19587  0.59145  0.82477  Biso   1.000  Cu
  Cu3      1.0000 0.19587  0.90855  0.32477  Biso   1.000  Cu
  Cu4      1.0000 0.80413  0.40855  0.17523  Biso   1.000  Cu
  O1       1.0000 0.85324  0.93730  0.72856  Biso   1.000  O
  O2       1.0000 0.14676  0.43730  0.77144  Biso   1.000  O
  O3       1.0000 0.14676  0.06270  0.27144  Biso   1.000  O
  O4       1.0000 0.85324  0.56270  0.22856  Biso   1.000  O
  O5       1.0000 0.81038  0.68760  0.68661  Biso   1.000  O
  O6       1.0000 0.18962  0.18760  0.81339  Biso   1.000  O
  O7       1.0000 0.18962  0.31240  0.31339  Biso   1.000  O
  O8       1.0000 0.81038  0.81240  0.18661  Biso   1.000  O
  O9       1.0000 0.84359  0.37050  0.71724  Biso   1.000  O
  O10      1.0000 0.15641  0.87050  0.78276  Biso   1.000  O
  O11      1.0000 0.15641  0.62950  0.28276  Biso   1.000  O
  O12      1.0000 0.84359  0.12950  0.21724  Biso   1.000  O
  H1       1.0000 0.82546  0.46126  0.70240  Biso   1.000  H
  H2       1.0000 0.17454  0.96126  0.79760  Biso   1.000  H
  H3       1.0000 0.17454  0.53874  0.29760  Biso   1.000  H
  H4       1.0000 0.82546  0.03874  0.20240  Biso   1.000  H
  O13      1.0000 0.00752  0.32780  0.85951  Biso   1.000  O
  O14      1.0000 0.99248  0.82780  0.64049  Biso   1.000  O
  O15      1.0000 0.99248  0.67220  0.14049  Biso   1.000  O
  O16      1.0000 0.00752  0.17220  0.35951  Biso   1.000  O
  O17      1.0000 0.75602  0.26530  0.62461  Biso   1.000  O
  O18      1.0000 0.24398  0.76530  0.87539  Biso   1.000  O
  O19      1.0000 0.24398  0.73470  0.37539  Biso   1.000  O
  O20      1.0000 0.75602  0.23470  0.12461  Biso   1.000  O
  O21      1.0000 0.72617  0.99100  0.58957  Biso   1.000  O
  O22      1.0000 0.27383  0.49100  0.91043  Biso   1.000  O
  O23      1.0000 0.27383  0.00900  0.41043  Biso   1.000  O
  O24      1.0000 0.72617  0.50900  0.08957  Biso   1.000  O
  O25      1.0000 0.64860  0.97310  0.50823  Biso   1.000  O
  O26      1.0000 0.35140  0.47310  0.99177  Biso   1.000  O
  O27      1.0000 0.35140  0.02690  0.49177  Biso   1.000  O
  O28      1.0000 0.64860  0.52690  0.00823  Biso   1.000  O
  H5       1.0000 0.67568  0.94140  0.53282  Biso   1.000  H
  H6       1.0000 0.32432  0.44140  0.96718  Biso   1.000  H
  H7       1.0000 0.32432  0.05860  0.46718  Biso   1.000  H
  H8       1.0000 0.67568  0.55860  0.03282  Biso   1.000  H
  O29      1.0000 0.55021  0.49650  0.43715  Biso   1.000  O
  O30      1.0000 0.44979  0.99650  0.06285  Biso   1.000  O
  O31      1.0000 0.44979  0.50350  0.56285  Biso   1.000  O
  O32      1.0000 0.55021  0.00350  0.93715  Biso   1.000  O
  O33      1.0000 0.93374  0.63030  0.46993  Biso   1.000  O
  O34      1.0000 0.06626  0.13030  0.03007  Biso   1.000  O
  O35      1.0000 0.06626  0.36970  0.53007  Biso   1.000  O
  O36      1.0000 0.93374  0.86970  0.96993  Biso   1.000  O
  N1       1.0000 0.85822  0.06920  0.60126  Biso   1.000  N
  N2       1.0000 0.14178  0.56920  0.89874  Biso   1.000  N
  N3       1.0000 0.14178  0.93080  0.39874  Biso   1.000  N
  N4       1.0000 0.85822  0.43080  0.10126  Biso   1.000  N
  N5       1.0000 0.83833  0.65910  0.44645  Biso   1.000  N
  N6       1.0000 0.16167  0.15910  0.05355  Biso   1.000  N
  N7       1.0000 0.16167  0.34090  0.55355  Biso   1.000  N
  N8       1.0000 0.83833  0.84090  0.94645  Biso   1.000  N
  N9       1.0000 0.73904  0.07470  0.73840  Biso   1.000  N
  N10      1.0000 0.26096  0.57470  0.76160  Biso   1.000  N
  N11      1.0000 0.26096  0.92530  0.26160  Biso   1.000  N
  N12      1.0000 0.73904  0.42530  0.23840  Biso   1.000  N
  C1       1.0000 0.84814  0.76250  0.72246  Biso   1.000  C
  C2       1.0000 0.15186  0.26250  0.77754  Biso   1.000  C
  C3       1.0000 0.15186  0.23750  0.27754  Biso   1.000  C
  C4       1.0000 0.84814  0.73750  0.22246  Biso   1.000  C
  C5       1.0000 0.88848  0.64360  0.75869  Biso   1.000  C
  C6       1.0000 0.11152  0.14360  0.74131  Biso   1.000  C
  C7       1.0000 0.11152  0.35640  0.24131  Biso   1.000  C
  C8       1.0000 0.88848  0.85640  0.25869  Biso   1.000  C
  C9       1.0000 0.88520  0.45030  0.75461  Biso   1.000  C
  C10      1.0000 0.11480  0.95030  0.74539  Biso   1.000  C
  C11      1.0000 0.11480  0.54970  0.24539  Biso   1.000  C
  C12      1.0000 0.88520  0.04970  0.25461  Biso   1.000  C
  C13      1.0000 0.92394  0.33660  0.78760  Biso   1.000  C
  C14      1.0000 0.07606  0.83660  0.71240  Biso   1.000  C
  C15      1.0000 0.07606  0.66340  0.21240  Biso   1.000  C
  C16      1.0000 0.92394  0.16340  0.28760  Biso   1.000  C
  H9       1.0000 0.92117  0.20555  0.78486  Biso   1.000  H
  H10      1.0000 0.07883  0.70555  0.71514  Biso   1.000  H
  H11      1.0000 0.07883  0.79445  0.21514  Biso   1.000  H
  H12      1.0000 0.92117  0.29445  0.28486  Biso   1.000  H
  C17      1.0000 0.96667  0.42020  0.82459  Biso   1.000  C
  C18      1.0000 0.03333  0.92020  0.67541  Biso   1.000  C
  C19      1.0000 0.03333  0.57980  0.17541  Biso   1.000  C
  C20      1.0000 0.96667  0.07980  0.32459  Biso   1.000  C
  C21      1.0000 0.97056  0.61240  0.82904  Biso   1.000  C
  C22      1.0000 0.02944  0.11240  0.67096  Biso   1.000  C
  C23      1.0000 0.02944  0.38760  0.17096  Biso   1.000  C
  C24      1.0000 0.97056  0.88760  0.32904  Biso   1.000  C
  H13      1.0000 0.99996  0.66787  0.85449  Biso   1.000  H
  H14      1.0000 0.00004  0.16787  0.64551  Biso   1.000  H
  H15      1.0000 0.00004  0.33213  0.14551  Biso   1.000  H
  H16      1.0000 0.99996  0.83213  0.35449  Biso   1.000  H
  C25      1.0000 0.93181  0.72070  0.79657  Biso   1.000  C
  C26      1.0000 0.06819  0.22070  0.70343  Biso   1.000  C
  C27      1.0000 0.06819  0.27930  0.20343  Biso   1.000  C
  C28      1.0000 0.93181  0.77930  0.29657  Biso   1.000  C
  H17      1.0000 0.93455  0.85165  0.79997  Biso   1.000  H
  H18      1.0000 0.06545  0.35165  0.70003  Biso   1.000  H
  H19      1.0000 0.06545  0.14835  0.20003  Biso   1.000  H
  H20      1.0000 0.93455  0.64835  0.29997  Biso   1.000  H
  C29      1.0000 0.00583  0.13030  0.86113  Biso   1.000  C
  C30      1.0000 0.99417  0.63030  0.63887  Biso   1.000  C
  C31      1.0000 0.99417  0.86970  0.13887  Biso   1.000  C
  C32      1.0000 0.00583  0.36970  0.36113  Biso   1.000  C
  H21      1.0000 0.96886  0.08954  0.87868  Biso   1.000  H
  H22      1.0000 0.03114  0.58954  0.62132  Biso   1.000  H
  H23      1.0000 0.03114  0.91046  0.12132  Biso   1.000  H
  H24      1.0000 0.96886  0.41046  0.37868  Biso   1.000  H
  H25      1.0000 0.03748  0.08410  0.88808  Biso   1.000  H
  H26      1.0000 0.96252  0.58410  0.61192  Biso   1.000  H
  H27      1.0000 0.96252  0.91590  0.11192  Biso   1.000  H
  H28      1.0000 0.03748  0.41590  0.38808  Biso   1.000  H
  H29      1.0000 0.00999  0.08161  0.81776  Biso   1.000  H
  H30      1.0000 0.99001  0.58161  0.68224  Biso   1.000  H
  H31      1.0000 0.99001  0.91839  0.18224  Biso   1.000  H
  H32      1.0000 0.00999  0.41839  0.31776  Biso   1.000  H
  C33      1.0000 0.72307  0.16430  0.58933  Biso   1.000  C
  C34      1.0000 0.27693  0.66430  0.91067  Biso   1.000  C
  C35      1.0000 0.27693  0.83570  0.41067  Biso   1.000  C
  C36      1.0000 0.72307  0.33570  0.08933  Biso   1.000  C
  C37      1.0000 0.67992  0.25830  0.54794  Biso   1.000  C
  C38      1.0000 0.32008  0.75830  0.95206  Biso   1.000  C
  C39      1.0000 0.32008  0.74170  0.45206  Biso   1.000  C
  C40      1.0000 0.67992  0.24170  0.04794  Biso   1.000  C
  C41      1.0000 0.64305  0.15250  0.50931  Biso   1.000  C
  C42      1.0000 0.35695  0.65250  0.99069  Biso   1.000  C
  C43      1.0000 0.35695  0.84750  0.49069  Biso   1.000  C
  C44      1.0000 0.64305  0.34750  0.00931  Biso   1.000  C
  C45      1.0000 0.60054  0.23590  0.47247  Biso   1.000  C
  C46      1.0000 0.39946  0.73590  0.02753  Biso   1.000  C
  C47      1.0000 0.39946  0.76410  0.52753  Biso   1.000  C
  C48      1.0000 0.60054  0.26410  0.97247  Biso   1.000  C
  H33      1.0000 0.57566  0.16289  0.44639  Biso   1.000  H
  H34      1.0000 0.42434  0.66289  0.05361  Biso   1.000  H
  H35      1.0000 0.42434  0.83711  0.55361  Biso   1.000  H
  H36      1.0000 0.57566  0.33711  0.94639  Biso   1.000  H
  C49      1.0000 0.59469  0.42700  0.47371  Biso   1.000  C
  C50      1.0000 0.40531  0.92700  0.02629  Biso   1.000  C
  C51      1.0000 0.40531  0.57300  0.52629  Biso   1.000  C
  C52      1.0000 0.59469  0.07300  0.97371  Biso   1.000  C
  C53      1.0000 0.63189  0.53530  0.50951  Biso   1.000  C
  C54      1.0000 0.36811  0.03530  0.99049  Biso   1.000  C
  C55      1.0000 0.36811  0.46470  0.49049  Biso   1.000  C
  C56      1.0000 0.63189  0.96470  0.00951  Biso   1.000  C
  H37      1.0000 0.62858  0.66645  0.50885  Biso   1.000  H
  H38      1.0000 0.37142  0.16645  0.99115  Biso   1.000  H
  H39      1.0000 0.37142  0.33355  0.49115  Biso   1.000  H
  H40      1.0000 0.62858  0.83355  0.00885  Biso   1.000  H
  C57      1.0000 0.67405  0.44950  0.54661  Biso   1.000  C
  C58      1.0000 0.32595  0.94950  0.95339  Biso   1.000  C
  C59      1.0000 0.32595  0.55050  0.45339  Biso   1.000  C
  C60      1.0000 0.67405  0.05050  0.04661  Biso   1.000  C
  H41      1.0000 0.69947  0.52346  0.57167  Biso   1.000  H
  H42      1.0000 0.30053  0.02346  0.92833  Biso   1.000  H
  H43      1.0000 0.30053  0.47654  0.42833  Biso   1.000  H
  H44      1.0000 0.69947  0.97654  0.07167  Biso   1.000  H
  C61      1.0000 0.53991  0.69190  0.44091  Biso   1.000  C
  C62      1.0000 0.46009  0.19190  0.05909  Biso   1.000  C
  C63      1.0000 0.46009  0.30810  0.55909  Biso   1.000  C
  C64      1.0000 0.53991  0.80810  0.94091  Biso   1.000  C
  H45      1.0000 0.53449  0.72751  0.48559  Biso   1.000  H
  H46      1.0000 0.46551  0.22751  0.01441  Biso   1.000  H
  H47      1.0000 0.46551  0.27249  0.51441  Biso   1.000  H
  H48      1.0000 0.53449  0.77249  0.98559  Biso   1.000  H
  H49      1.0000 0.50514  0.72310  0.41619  Biso   1.000  H
  H50      1.0000 0.49486  0.22310  0.08381  Biso   1.000  H
  H51      1.0000 0.49486  0.27690  0.58381  Biso   1.000  H
  H52      1.0000 0.50514  0.77690  0.91619  Biso   1.000  H
  H53      1.0000 0.57307  0.75883  0.42352  Biso   1.000  H
  H54      1.0000 0.42693  0.25883  0.07648  Biso   1.000  H
  H55      1.0000 0.42693  0.24117  0.57648  Biso   1.000  H
  H56      1.0000 0.57307  0.74117  0.92352  Biso   1.000  H
  C65      1.0000 0.85589  0.91680  0.56531  Biso   1.000  C
  C66      1.0000 0.14411  0.41680  0.93469  Biso   1.000  C
  C67      1.0000 0.14411  0.08320  0.43469  Biso   1.000  C
  C68      1.0000 0.85589  0.58320  0.06531  Biso   1.000  C
  H57      1.0000 0.83100  0.81885  0.57775  Biso   1.000  H
  H58      1.0000 0.16900  0.31885  0.92225  Biso   1.000  H
  H59      1.0000 0.16900  0.18115  0.42225  Biso   1.000  H
  H60      1.0000 0.83100  0.68115  0.07775  Biso   1.000  H
  C69      1.0000 0.88843  0.89560  0.51041  Biso   1.000  C
  C70      1.0000 0.11157  0.39560  0.98959  Biso   1.000  C
  C71      1.0000 0.11157  0.10440  0.48959  Biso   1.000  C
  C72      1.0000 0.88843  0.60440  0.01041  Biso   1.000  C
  C73      1.0000 0.92572  0.03780  0.49348  Biso   1.000  C
  C74      1.0000 0.07428  0.53780  0.00652  Biso   1.000  C
  C75      1.0000 0.07428  0.96220  0.50652  Biso   1.000  C
  C76      1.0000 0.92572  0.46220  0.99348  Biso   1.000  C
  H61      1.0000 0.94941  0.02572  0.45694  Biso   1.000  H
  H62      1.0000 0.05059  0.52572  0.04306  Biso   1.000  H
  H63      1.0000 0.05059  0.97428  0.54306  Biso   1.000  H
  H64      1.0000 0.94941  0.47428  0.95694  Biso   1.000  H
  C77      1.0000 0.92815  0.19640  0.52992  Biso   1.000  C
  C78      1.0000 0.07185  0.69640  0.97008  Biso   1.000  C
  C79      1.0000 0.07185  0.80360  0.47008  Biso   1.000  C
  C80      1.0000 0.92815  0.30360  0.02992  Biso   1.000  C
  H65      1.0000 0.95312  0.29552  0.51881  Biso   1.000  H
  H66      1.0000 0.04688  0.79552  0.98119  Biso   1.000  H
  H67      1.0000 0.04688  0.70448  0.48119  Biso   1.000  H
  H68      1.0000 0.95312  0.20448  0.01881  Biso   1.000  H
  C81      1.0000 0.89332  0.20790  0.58314  Biso   1.000  C
  C82      1.0000 0.10668  0.70790  0.91686  Biso   1.000  C
  C83      1.0000 0.10668  0.79210  0.41686  Biso   1.000  C
  C84      1.0000 0.89332  0.29210  0.08314  Biso   1.000  C
  H69      1.0000 0.89421  0.31811  0.60788  Biso   1.000  H
  H70      1.0000 0.10579  0.81811  0.89212  Biso   1.000  H
  H71      1.0000 0.10579  0.68189  0.39212  Biso   1.000  H
  H72      1.0000 0.89421  0.18189  0.10788  Biso   1.000  H
  C85      1.0000 0.88814  0.71710  0.47344  Biso   1.000  C
  C86      1.0000 0.11186  0.21710  0.02656  Biso   1.000  C
  C87      1.0000 0.11186  0.28290  0.52656  Biso   1.000  C
  C88      1.0000 0.88814  0.78290  0.97344  Biso   1.000  C
  C89      1.0000 0.83774  0.48010  0.41290  Biso   1.000  C
  C90      1.0000 0.16226  0.98010  0.08710  Biso   1.000  C
  C91      1.0000 0.16226  0.51990  0.58710  Biso   1.000  C
  C92      1.0000 0.83774  0.01990  0.91290  Biso   1.000  C
  H73      1.0000 0.87697  0.42576  0.41456  Biso   1.000  H
  H74      1.0000 0.12303  0.92576  0.08544  Biso   1.000  H
  H75      1.0000 0.12303  0.57424  0.58544  Biso   1.000  H
  H76      1.0000 0.87697  0.07424  0.91456  Biso   1.000  H
  H77      1.0000 0.82753  0.50107  0.36750  Biso   1.000  H
  H78      1.0000 0.17247  0.00107  0.13250  Biso   1.000  H
  H79      1.0000 0.17247  0.49893  0.63250  Biso   1.000  H
  H80      1.0000 0.82753  0.99893  0.86750  Biso   1.000  H
  C93      1.0000 0.79546  0.34410  0.44121  Biso   1.000  C
  C94      1.0000 0.20454  0.84410  0.05879  Biso   1.000  C
  C95      1.0000 0.20454  0.65590  0.55879  Biso   1.000  C
  C96      1.0000 0.79546  0.15590  0.94121  Biso   1.000  C
  H81      1.0000 0.80325  0.33083  0.48702  Biso   1.000  H
  H82      1.0000 0.19675  0.83083  0.01298  Biso   1.000  H
  H83      1.0000 0.19675  0.66917  0.51298  Biso   1.000  H
  H84      1.0000 0.80325  0.16917  0.98702  Biso   1.000  H
  H85      1.0000 0.79972  0.22347  0.42028  Biso   1.000  H
  H86      1.0000 0.20028  0.72347  0.07972  Biso   1.000  H
  H87      1.0000 0.20028  0.77653  0.57972  Biso   1.000  H
  H88      1.0000 0.79972  0.27653  0.92028  Biso   1.000  H
  H89      1.0000 0.75599  0.38969  0.43467  Biso   1.000  H
  H90      1.0000 0.24401  0.88969  0.06533  Biso   1.000  H
  H91      1.0000 0.24401  0.61031  0.56533  Biso   1.000  H
  H92      1.0000 0.75599  0.11031  0.93467  Biso   1.000  H
  C97      1.0000 0.78446  0.76830  0.44434  Biso   1.000  C
  C98      1.0000 0.21554  0.26830  0.05566  Biso   1.000  C
  C99      1.0000 0.21554  0.23170  0.55566  Biso   1.000  C
  C100     1.0000 0.78446  0.73170  0.94434  Biso   1.000  C
  H93      1.0000 0.78942  0.88057  0.47098  Biso   1.000  H
  H94      1.0000 0.21058  0.38057  0.02902  Biso   1.000  H
  H95      1.0000 0.21058  0.11943  0.52902  Biso   1.000  H
  H96      1.0000 0.78942  0.61943  0.97098  Biso   1.000  H
  H97      1.0000 0.75285  0.69390  0.46287  Biso   1.000  H
  H98      1.0000 0.24715  0.19390  0.03713  Biso   1.000  H
  H99      1.0000 0.24715  0.30610  0.53713  Biso   1.000  H
  H100     1.0000 0.75285  0.80610  0.96287  Biso   1.000  H
  C101     1.0000 0.76765  0.82540  0.37803  Biso   1.000  C
  C102     1.0000 0.23235  0.32540  0.12197  Biso   1.000  C
  C103     1.0000 0.23235  0.17460  0.62197  Biso   1.000  C
  C104     1.0000 0.76765  0.67460  0.87803  Biso   1.000  C
  H101     1.0000 0.79788  0.90451  0.36019  Biso   1.000  H
  H102     1.0000 0.20212  0.40451  0.13981  Biso   1.000  H
  H103     1.0000 0.20212  0.09549  0.63981  Biso   1.000  H
  H104     1.0000 0.79788  0.59549  0.86019  Biso   1.000  H
  H105     1.0000 0.73118  0.89410  0.37919  Biso   1.000  H
  H106     1.0000 0.26882  0.39410  0.12081  Biso   1.000  H
  H107     1.0000 0.26882  0.10590  0.62081  Biso   1.000  H
  H108     1.0000 0.73118  0.60590  0.87919  Biso   1.000  H
  H109     1.0000 0.76290  0.71492  0.35131  Biso   1.000  H
  H110     1.0000 0.23710  0.21492  0.14869  Biso   1.000  H
  H111     1.0000 0.23710  0.28508  0.64869  Biso   1.000  H
  H112     1.0000 0.76290  0.78508  0.85131  Biso   1.000  H
  C105     1.0000 0.70391  0.92700  0.73489  Biso   1.000  C
  C106     1.0000 0.29609  0.42700  0.76511  Biso   1.000  C
  C107     1.0000 0.29609  0.07300  0.26511  Biso   1.000  C
  C108     1.0000 0.70391  0.57300  0.23489  Biso   1.000  C
  H113     1.0000 0.71329  0.82927  0.70643  Biso   1.000  H
  H114     1.0000 0.28671  0.32927  0.79357  Biso   1.000  H
  H115     1.0000 0.28671  0.17073  0.29357  Biso   1.000  H
  H116     1.0000 0.71329  0.67073  0.20643  Biso   1.000  H
  C109     1.0000 0.65457  0.91200  0.77125  Biso   1.000  C
  C110     1.0000 0.34543  0.41200  0.72875  Biso   1.000  C
  C111     1.0000 0.34543  0.08800  0.22875  Biso   1.000  C
  C112     1.0000 0.65457  0.58800  0.27125  Biso   1.000  C
  C113     1.0000 0.64202  0.05250  0.81371  Biso   1.000  C
  C114     1.0000 0.35798  0.55250  0.68629  Biso   1.000  C
  C115     1.0000 0.35798  0.94750  0.18629  Biso   1.000  C
  C116     1.0000 0.64202  0.44750  0.31371  Biso   1.000  C
  H117     1.0000 0.60902  0.04423  0.84019  Biso   1.000  H
  H118     1.0000 0.39098  0.54423  0.65981  Biso   1.000  H
  H119     1.0000 0.39098  0.95577  0.15981  Biso   1.000  H
  H120     1.0000 0.60902  0.45577  0.34019  Biso   1.000  H
  C117     1.0000 0.67762  0.20390  0.81727  Biso   1.000  C
  C118     1.0000 0.32238  0.70390  0.68273  Biso   1.000  C
  C119     1.0000 0.32238  0.79610  0.18273  Biso   1.000  C
  C120     1.0000 0.67762  0.29610  0.31727  Biso   1.000  C
  H121     1.0000 0.66942  0.30241  0.84585  Biso   1.000  H
  H122     1.0000 0.33058  0.80241  0.65415  Biso   1.000  H
  H123     1.0000 0.33058  0.69759  0.15415  Biso   1.000  H
  H124     1.0000 0.66942  0.19759  0.34585  Biso   1.000  H
  C121     1.0000 0.72554  0.21090  0.77870  Biso   1.000  C
  C122     1.0000 0.27446  0.71090  0.72130  Biso   1.000  C
  C123     1.0000 0.27446  0.78910  0.22130  Biso   1.000  C
  C124     1.0000 0.72554  0.28910  0.27870  Biso   1.000  C
  H125     1.0000 0.74987  0.31670  0.78091  Biso   1.000  H
  H126     1.0000 0.25013  0.81670  0.71909  Biso   1.000  H
  H127     1.0000 0.25013  0.68330  0.21909  Biso   1.000  H
  H128     1.0000 0.74987  0.18330  0.28091  Biso   1.000  H
  C125     1.0000 0.61980  0.73530  0.76920  Biso   1.000  C
  C126     1.0000 0.38020  0.23530  0.73080  Biso   1.000  C
  C127     1.0000 0.38020  0.26470  0.23080  Biso   1.000  C
  C128     1.0000 0.61980  0.76470  0.26920  Biso   1.000  C
  O37      1.0000 0.61540  0.64170  0.81780  Biso   1.000  O
  O38      1.0000 0.38460  0.14170  0.68220  Biso   1.000  O
  O39      1.0000 0.38460  0.35830  0.18220  Biso   1.000  O
  O40      1.0000 0.61540  0.85830  0.31780  Biso   1.000  O
  N13      1.0000 0.59490  0.69130  0.71260  Biso   1.000  N
  N14      1.0000 0.40510  0.19130  0.78740  Biso   1.000  N
  N15      1.0000 0.40510  0.30870  0.28740  Biso   1.000  N
  N16      1.0000 0.59490  0.80870  0.21260  Biso   1.000  N
  C129     1.0000 0.59690  0.80880  0.65530  Biso   1.000  C
  C130     1.0000 0.40310  0.30880  0.84470  Biso   1.000  C
  C131     1.0000 0.40310  0.19120  0.34470  Biso   1.000  C
  C132     1.0000 0.59690  0.69120  0.15530  Biso   1.000  C
  H129     1.0000 0.62148  0.74708  0.62324  Biso   1.000  H
  H130     1.0000 0.37852  0.24708  0.87676  Biso   1.000  H
  H131     1.0000 0.37852  0.25292  0.37676  Biso   1.000  H
  H132     1.0000 0.62148  0.75292  0.12324  Biso   1.000  H
  H133     1.0000 0.61575  0.92745  0.66685  Biso   1.000  H
  H134     1.0000 0.38425  0.42745  0.83315  Biso   1.000  H
  H135     1.0000 0.38425  0.07255  0.33315  Biso   1.000  H
  H136     1.0000 0.61575  0.57255  0.16685  Biso   1.000  H
  C133     1.0000 0.53820  0.85130  0.62450  Biso   1.000  C
  C134     1.0000 0.46180  0.35130  0.87550  Biso   1.000  C
  C135     1.0000 0.46180  0.14870  0.37550  Biso   1.000  C
  C136     1.0000 0.53820  0.64870  0.12450  Biso   1.000  C
  H137     1.0000 0.54350  0.93587  0.58846  Biso   1.000  H
  H138     1.0000 0.45650  0.43587  0.91154  Biso   1.000  H
  H139     1.0000 0.45650  0.06413  0.41154  Biso   1.000  H
  H140     1.0000 0.54350  0.56413  0.08846  Biso   1.000  H
  H141     1.0000 0.51299  0.90937  0.65608  Biso   1.000  H
  H142     1.0000 0.48701  0.40937  0.84392  Biso   1.000  H
  H143     1.0000 0.48701  0.09063  0.34392  Biso   1.000  H
  H144     1.0000 0.51299  0.59063  0.15608  Biso   1.000  H
  H145     1.0000 0.52054  0.73591  0.60933  Biso   1.000  H
  H146     1.0000 0.47946  0.23591  0.89067  Biso   1.000  H
  H147     1.0000 0.47946  0.26409  0.39067  Biso   1.000  H
  H148     1.0000 0.52054  0.76409  0.10933  Biso   1.000  H
  C137     1.0000 0.55780  0.51740  0.71280  Biso   1.000  C
  C138     1.0000 0.44220  0.01740  0.78720  Biso   1.000  C
  C139     1.0000 0.44220  0.48260  0.28720  Biso   1.000  C
  C140     1.0000 0.55780  0.98260  0.21280  Biso   1.000  C
  H149     1.0000 0.54993  0.48144  0.75749  Biso   1.000  H
  H150     1.0000 0.45007  0.98144  0.74251  Biso   1.000  H
  H151     1.0000 0.45007  0.51856  0.24251  Biso   1.000  H
  H152     1.0000 0.54993  0.01856  0.25749  Biso   1.000  H
  H153     1.0000 0.52036  0.54465  0.69171  Biso   1.000  H
  H154     1.0000 0.47964  0.04465  0.80829  Biso   1.000  H
  H155     1.0000 0.47964  0.45535  0.30829  Biso   1.000  H
  H156     1.0000 0.52036  0.95535  0.19171  Biso   1.000  H
  C141     1.0000 0.58550  0.36160  0.67990  Biso   1.000  C
  C142     1.0000 0.41450  0.86160  0.82010  Biso   1.000  C
  C143     1.0000 0.41450  0.63840  0.32010  Biso   1.000  C
  C144     1.0000 0.58550  0.13840  0.17990  Biso   1.000  C
  H157     1.0000 0.58801  0.38890  0.63424  Biso   1.000  H
  H158     1.0000 0.41199  0.88890  0.86576  Biso   1.000  H
  H159     1.0000 0.41199  0.61110  0.36576  Biso   1.000  H
  H160     1.0000 0.58801  0.11110  0.13424  Biso   1.000  H
  H161     1.0000 0.56264  0.24893  0.68617  Biso   1.000  H
  H162     1.0000 0.43736  0.74893  0.81383  Biso   1.000  H
  H163     1.0000 0.43736  0.75107  0.31383  Biso   1.000  H
  H164     1.0000 0.56264  0.25107  0.18617  Biso   1.000  H
  H165     1.0000 0.62446  0.34292  0.69750  Biso   1.000  H
  H166     1.0000 0.37554  0.84292  0.80250  Biso   1.000  H
  H167     1.0000 0.37554  0.65708  0.30250  Biso   1.000  H
  H168     1.0000 0.62446  0.15708  0.19750  Biso   1.000  H
  H169     1.0000 0.64725  0.02164  0.50833  Biso   1.000  H
  H170     1.0000 0.35275  0.52164  0.99167  Biso   1.000  H
  H171     1.0000 0.35275  0.97836  0.49167  Biso   1.000  H
  H172     1.0000 0.64725  0.47836  0.00833  Biso   1.000  H
  O41      1.0000 0.70570  0.55250  0.57980  Biso   1.000  O
  O42      1.0000 0.29430  0.05250  0.92020  Biso   1.000  O
  O43      1.0000 0.29430  0.44750  0.42020  Biso   1.000  O
  O44      1.0000 0.70570  0.94750  0.07980  Biso   1.000  O
  H173     1.0000 0.72907  0.48742  0.60099  Biso   1.000  H
  H174     1.0000 0.27093  0.98742  0.89901  Biso   1.000  H
  H175     1.0000 0.27093  0.51258  0.39901  Biso   1.000  H
  H176     1.0000 0.72907  0.01258  0.10099  Biso   1.000  H
  C145     1.0000 0.61020  0.75700  0.76660  Biso   1.000  C
  C146     1.0000 0.38980  0.25700  0.73340  Biso   1.000  C
  C147     1.0000 0.38980  0.24300  0.23340  Biso   1.000  C
  C148     1.0000 0.61020  0.74300  0.26660  Biso   1.000  C
  O45      1.0000 0.60110  0.67100  0.81630  Biso   1.000  O
  O46      1.0000 0.39890  0.17100  0.68370  Biso   1.000  O
  O47      1.0000 0.39890  0.32900  0.18370  Biso   1.000  O
  O48      1.0000 0.60110  0.82900  0.31630  Biso   1.000  O
  N17      1.0000 0.57790  0.71400  0.71460  Biso   1.000  N
  N18      1.0000 0.42210  0.21400  0.78540  Biso   1.000  N
  N19      1.0000 0.42210  0.28600  0.28540  Biso   1.000  N
  N20      1.0000 0.57790  0.78600  0.21460  Biso   1.000  N
  C149     1.0000 0.58860  0.80300  0.65230  Biso   1.000  C
  C150     1.0000 0.41140  0.30300  0.84770  Biso   1.000  C
  C151     1.0000 0.41140  0.19700  0.34770  Biso   1.000  C
  C152     1.0000 0.58860  0.69700  0.15230  Biso   1.000  C
  H177     1.0000 0.58332  0.71153  0.61739  Biso   1.000  H
  H178     1.0000 0.41668  0.21153  0.88261  Biso   1.000  H
  H179     1.0000 0.41668  0.28847  0.38261  Biso   1.000  H
  H180     1.0000 0.58332  0.78847  0.11739  Biso   1.000  H
  H181     1.0000 0.62858  0.85058  0.65072  Biso   1.000  H
  H182     1.0000 0.37142  0.35058  0.84928  Biso   1.000  H
  H183     1.0000 0.37142  0.14942  0.34928  Biso   1.000  H
  H184     1.0000 0.62858  0.64942  0.15072  Biso   1.000  H
  C153     1.0000 0.54530  0.96200  0.64470  Biso   1.000  C
  C154     1.0000 0.45470  0.46200  0.85530  Biso   1.000  C
  C155     1.0000 0.45470  0.03800  0.35530  Biso   1.000  C
  C156     1.0000 0.54530  0.53800  0.14470  Biso   1.000  C
  H185     1.0000 0.54146  0.99425  0.59941  Biso   1.000  H
  H186     1.0000 0.45854  0.49425  0.90059  Biso   1.000  H
  H187     1.0000 0.45854  0.00575  0.40059  Biso   1.000  H
  H188     1.0000 0.54146  0.50575  0.09941  Biso   1.000  H
  H189     1.0000 0.55913  0.07000  0.66864  Biso   1.000  H
  H190     1.0000 0.44087  0.57000  0.83136  Biso   1.000  H
  H191     1.0000 0.44087  0.93000  0.33136  Biso   1.000  H
  H192     1.0000 0.55913  0.43000  0.16864  Biso   1.000  H
  H193     1.0000 0.50767  0.92349  0.66108  Biso   1.000  H
  H194     1.0000 0.49233  0.42349  0.83892  Biso   1.000  H
  H195     1.0000 0.49233  0.07651  0.33892  Biso   1.000  H
  H196     1.0000 0.50767  0.57651  0.16108  Biso   1.000  H
  C157     1.0000 0.52980  0.56300  0.71290  Biso   1.000  C
  C158     1.0000 0.47020  0.06300  0.78710  Biso   1.000  C
  C159     1.0000 0.47020  0.43700  0.28710  Biso   1.000  C
  C160     1.0000 0.52980  0.93700  0.21290  Biso   1.000  C
  H197     1.0000 0.50863  0.54973  0.75350  Biso   1.000  H
  H198     1.0000 0.49137  0.04973  0.74650  Biso   1.000  H
  H199     1.0000 0.49137  0.45027  0.24650  Biso   1.000  H
  H200     1.0000 0.50863  0.95027  0.25350  Biso   1.000  H
  H201     1.0000 0.50279  0.57442  0.67622  Biso   1.000  H
  H202     1.0000 0.49721  0.07442  0.82378  Biso   1.000  H
  H203     1.0000 0.49721  0.42558  0.32378  Biso   1.000  H
  H204     1.0000 0.50279  0.92558  0.17622  Biso   1.000  H
  C161     1.0000 0.57490  0.42500  0.70390  Biso   1.000  C
  C162     1.0000 0.42510  0.92500  0.79610  Biso   1.000  C
  C163     1.0000 0.42510  0.57500  0.29610  Biso   1.000  C
  C164     1.0000 0.57490  0.07500  0.20390  Biso   1.000  C
  H205     1.0000 0.59626  0.45348  0.66492  Biso   1.000  H
  H206     1.0000 0.40374  0.95348  0.83508  Biso   1.000  H
  H207     1.0000 0.40374  0.54652  0.33508  Biso   1.000  H
  H208     1.0000 0.59626  0.04652  0.16492  Biso   1.000  H
  H209     1.0000 0.55747  0.30201  0.70021  Biso   1.000  H
  H210     1.0000 0.44253  0.80201  0.79979  Biso   1.000  H
  H211     1.0000 0.44253  0.69799  0.29979  Biso   1.000  H
  H212     1.0000 0.55747  0.19799  0.20021  Biso   1.000  H
  H213     1.0000 0.60147  0.42755  0.74059  Biso   1.000  H
  H214     1.0000 0.39853  0.92755  0.75941  Biso   1.000  H
  H215     1.0000 0.39853  0.57245  0.25941  Biso   1.000  H
  H216     1.0000 0.60147  0.07245  0.24059  Biso   1.000  H
