data_image0
_cell_length_a       15.658
_cell_length_b       7.278
_cell_length_c       31.684
_cell_angle_alpha    90
_cell_angle_beta     96.21
_cell_angle_gamma    90

_symmetry_space_group_name_H-M    "P 1"
_symmetry_int_tables_number       1

loop_
  _symmetry_equiv_pos_as_xyz
  'x, y, z'

loop_
  _atom_site_label
  _atom_site_occupancy
  _atom_site_fract_x
  _atom_site_fract_y
  _atom_site_fract_z
  _atom_site_thermal_displace_type
  _atom_site_B_iso_or_equiv
  _atom_site_type_symbol
  Br1      1.0000 0.42958  0.85285  0.91203  Biso   1.000  Br
  Br2      1.0000 0.57042  0.35285  0.58797  Biso   1.000  Br
  Br3      1.0000 0.57042  0.14715  0.08797  Biso   1.000  Br
  Br4      1.0000 0.42958  0.64715  0.41203  Biso   1.000  Br
  Br5      1.0000 0.52102  0.23359  0.86290  Biso   1.000  Br
  Br6      1.0000 0.47898  0.73359  0.63710  Biso   1.000  Br
  Br7      1.0000 0.47898  0.76641  0.13710  Biso   1.000  Br
  Br8      1.0000 0.52102  0.26641  0.36290  Biso   1.000  Br
  Cu1      1.0000 0.98914  0.20472  0.88017  Biso   1.000  Cu
  Cu2      1.0000 0.01086  0.70472  0.61983  Biso   1.000  Cu
  Cu3      1.0000 0.01086  0.79528  0.11983  Biso   1.000  Cu
  Cu4      1.0000 0.98914  0.29528  0.38017  Biso   1.000  Cu
  O1       1.0000 0.10390  0.08830  0.88096  Biso   1.000  O
  O2       1.0000 0.89610  0.58830  0.61904  Biso   1.000  O
  O3       1.0000 0.89610  0.91170  0.11904  Biso   1.000  O
  O4       1.0000 0.10390  0.41170  0.38096  Biso   1.000  O
  O5       1.0000 0.01620  0.84730  0.87946  Biso   1.000  O
  O6       1.0000 0.98380  0.34730  0.62054  Biso   1.000  O
  O7       1.0000 0.98380  0.15270  0.12054  Biso   1.000  O
  O8       1.0000 0.01620  0.65270  0.37946  Biso   1.000  O
  O9       1.0000 0.07910  0.51720  0.87528  Biso   1.000  O
  O10      1.0000 0.92090  0.01720  0.62472  Biso   1.000  O
  O11      1.0000 0.92090  0.48280  0.12472  Biso   1.000  O
  O12      1.0000 0.07910  0.98280  0.37528  Biso   1.000  O
  H1       1.0000 0.04340  0.58316  0.88627  Biso   1.000  H
  H2       1.0000 0.95660  0.08316  0.61373  Biso   1.000  H
  H3       1.0000 0.95660  0.41684  0.11373  Biso   1.000  H
  H4       1.0000 0.04340  0.91684  0.38627  Biso   1.000  H
  O13      1.0000 0.86850  0.27080  0.88109  Biso   1.000  O
  O14      1.0000 0.13150  0.77080  0.61891  Biso   1.000  O
  O15      1.0000 0.13150  0.72920  0.11891  Biso   1.000  O
  O16      1.0000 0.86850  0.22920  0.38109  Biso   1.000  O
  O17      1.0000 0.90480  0.55460  0.86458  Biso   1.000  O
  O18      1.0000 0.09520  0.05460  0.63542  Biso   1.000  O
  O19      1.0000 0.09520  0.44540  0.13542  Biso   1.000  O
  O20      1.0000 0.90480  0.94540  0.36458  Biso   1.000  O
  O21      1.0000 0.79320  0.80630  0.85048  Biso   1.000  O
  O22      1.0000 0.20680  0.30630  0.64952  Biso   1.000  O
  O23      1.0000 0.20680  0.19370  0.14952  Biso   1.000  O
  O24      1.0000 0.79320  0.69370  0.35048  Biso   1.000  O
  H5       1.0000 0.84290  0.76226  0.85509  Biso   1.000  H
  H6       1.0000 0.15710  0.26226  0.64491  Biso   1.000  H
  H7       1.0000 0.15710  0.23774  0.14491  Biso   1.000  H
  H8       1.0000 0.84290  0.73774  0.35509  Biso   1.000  H
  O25      1.0000 0.78580  0.92960  0.71738  Biso   1.000  O
  O26      1.0000 0.21420  0.42960  0.78262  Biso   1.000  O
  O27      1.0000 0.21420  0.07040  0.28262  Biso   1.000  O
  O28      1.0000 0.78580  0.57040  0.21738  Biso   1.000  O
  N1       1.0000 0.01160  0.23540  0.94344  Biso   1.000  N
  N2       1.0000 0.98840  0.73540  0.55656  Biso   1.000  N
  N3       1.0000 0.98840  0.76460  0.05656  Biso   1.000  N
  N4       1.0000 0.01160  0.26460  0.44344  Biso   1.000  N
  N5       1.0000 0.97140  0.19150  0.81641  Biso   1.000  N
  N6       1.0000 0.02860  0.69150  0.68359  Biso   1.000  N
  N7       1.0000 0.02860  0.80850  0.18359  Biso   1.000  N
  N8       1.0000 0.97140  0.30850  0.31641  Biso   1.000  N
  N9       1.0000 0.72170  0.19500  0.73256  Biso   1.000  N
  N10      1.0000 0.27830  0.69500  0.76744  Biso   1.000  N
  N11      1.0000 0.27830  0.80500  0.26744  Biso   1.000  N
  N12      1.0000 0.72170  0.30500  0.23256  Biso   1.000  N
  C1       1.0000 0.08960  0.91520  0.88203  Biso   1.000  C
  C2       1.0000 0.91040  0.41520  0.61797  Biso   1.000  C
  C3       1.0000 0.91040  0.08480  0.11797  Biso   1.000  C
  C4       1.0000 0.08960  0.58480  0.38203  Biso   1.000  C
  C5       1.0000 0.16590  0.79040  0.88706  Biso   1.000  C
  C6       1.0000 0.83410  0.29040  0.61294  Biso   1.000  C
  C7       1.0000 0.83410  0.20960  0.11294  Biso   1.000  C
  C8       1.0000 0.16590  0.70960  0.38706  Biso   1.000  C
  C9       1.0000 0.15690  0.59980  0.88331  Biso   1.000  C
  C10      1.0000 0.84310  0.09980  0.61669  Biso   1.000  C
  C11      1.0000 0.84310  0.40020  0.11669  Biso   1.000  C
  C12      1.0000 0.15690  0.90020  0.38331  Biso   1.000  C
  C13      1.0000 0.22940  0.48670  0.88600  Biso   1.000  C
  C14      1.0000 0.77060  0.98670  0.61400  Biso   1.000  C
  C15      1.0000 0.77060  0.51330  0.11400  Biso   1.000  C
  C16      1.0000 0.22940  0.01330  0.38600  Biso   1.000  C
  H9       1.0000 0.22303  0.35791  0.88193  Biso   1.000  H
  H10      1.0000 0.77697  0.85791  0.61807  Biso   1.000  H
  H11      1.0000 0.77697  0.64209  0.11807  Biso   1.000  H
  H12      1.0000 0.22303  0.14209  0.38193  Biso   1.000  H
  C17      1.0000 0.30930  0.56100  0.89460  Biso   1.000  C
  C18      1.0000 0.69070  0.06100  0.60540  Biso   1.000  C
  C19      1.0000 0.69070  0.43900  0.10540  Biso   1.000  C
  C20      1.0000 0.30930  0.93900  0.39460  Biso   1.000  C
  H13      1.0000 0.35852  0.48374  0.89696  Biso   1.000  H
  H14      1.0000 0.64148  0.98374  0.60304  Biso   1.000  H
  H15      1.0000 0.64148  0.51626  0.10304  Biso   1.000  H
  H16      1.0000 0.35852  0.01626  0.39696  Biso   1.000  H
  C21      1.0000 0.31900  0.74980  0.89990  Biso   1.000  C
  C22      1.0000 0.68100  0.24980  0.60010  Biso   1.000  C
  C23      1.0000 0.68100  0.25020  0.10010  Biso   1.000  C
  C24      1.0000 0.31900  0.75020  0.39990  Biso   1.000  C
  C25      1.0000 0.24910  0.86460  0.89551  Biso   1.000  C
  C26      1.0000 0.75090  0.36460  0.60449  Biso   1.000  C
  C27      1.0000 0.75090  0.13540  0.10449  Biso   1.000  C
  C28      1.0000 0.24910  0.63540  0.39551  Biso   1.000  C
  H17      1.0000 0.25679  0.99372  0.89814  Biso   1.000  H
  H18      1.0000 0.74321  0.49372  0.60186  Biso   1.000  H
  H19      1.0000 0.74321  0.00628  0.10186  Biso   1.000  H
  H20      1.0000 0.25679  0.50628  0.39814  Biso   1.000  H
  C29      1.0000 0.84930  0.43540  0.86986  Biso   1.000  C
  C30      1.0000 0.15070  0.93540  0.63014  Biso   1.000  C
  C31      1.0000 0.15070  0.56460  0.13014  Biso   1.000  C
  C32      1.0000 0.84930  0.06460  0.36986  Biso   1.000  C
  C33      1.0000 0.75800  0.49030  0.86276  Biso   1.000  C
  C34      1.0000 0.24200  0.99030  0.63724  Biso   1.000  C
  C35      1.0000 0.24200  0.50970  0.13724  Biso   1.000  C
  C36      1.0000 0.75800  0.00970  0.36276  Biso   1.000  C
  C37      1.0000 0.73520  0.67280  0.85340  Biso   1.000  C
  C38      1.0000 0.26480  0.17280  0.64660  Biso   1.000  C
  C39      1.0000 0.26480  0.32720  0.14660  Biso   1.000  C
  C40      1.0000 0.73520  0.82720  0.35340  Biso   1.000  C
  C41      1.0000 0.64830  0.72130  0.84650  Biso   1.000  C
  C42      1.0000 0.35170  0.22130  0.65350  Biso   1.000  C
  C43      1.0000 0.35170  0.27870  0.15350  Biso   1.000  C
  C44      1.0000 0.64830  0.77870  0.34650  Biso   1.000  C
  H21      1.0000 0.63261  0.84491  0.83980  Biso   1.000  H
  H22      1.0000 0.36739  0.34491  0.66020  Biso   1.000  H
  H23      1.0000 0.36739  0.15509  0.16020  Biso   1.000  H
  H24      1.0000 0.63261  0.65509  0.33980  Biso   1.000  H
  C45      1.0000 0.58570  0.59150  0.84920  Biso   1.000  C
  C46      1.0000 0.41430  0.09150  0.65080  Biso   1.000  C
  C47      1.0000 0.41430  0.40850  0.15080  Biso   1.000  C
  C48      1.0000 0.58570  0.90850  0.34920  Biso   1.000  C
  H25      1.0000 0.52683  0.62562  0.84521  Biso   1.000  H
  H26      1.0000 0.47317  0.12562  0.65479  Biso   1.000  H
  H27      1.0000 0.47317  0.37438  0.15479  Biso   1.000  H
  H28      1.0000 0.52683  0.87438  0.34521  Biso   1.000  H
  C49      1.0000 0.60850  0.41040  0.85800  Biso   1.000  C
  C50      1.0000 0.39150  0.91040  0.64200  Biso   1.000  C
  C51      1.0000 0.39150  0.58960  0.14200  Biso   1.000  C
  C52      1.0000 0.60850  0.08960  0.35800  Biso   1.000  C
  C53      1.0000 0.69390  0.35890  0.86510  Biso   1.000  C
  C54      1.0000 0.30610  0.85890  0.63490  Biso   1.000  C
  C55      1.0000 0.30610  0.64110  0.13490  Biso   1.000  C
  C56      1.0000 0.69390  0.14110  0.36510  Biso   1.000  C
  H29      1.0000 0.70875  0.23477  0.87157  Biso   1.000  H
  H30      1.0000 0.29125  0.73477  0.62843  Biso   1.000  H
  H31      1.0000 0.29125  0.76523  0.12843  Biso   1.000  H
  H32      1.0000 0.70875  0.26523  0.37157  Biso   1.000  H
  C57      1.0000 0.09230  0.27260  0.96080  Biso   1.000  C
  C58      1.0000 0.90770  0.77260  0.53920  Biso   1.000  C
  C59      1.0000 0.90770  0.72740  0.03920  Biso   1.000  C
  C60      1.0000 0.09230  0.22740  0.46080  Biso   1.000  C
  H33      1.0000 0.13652  0.28079  0.94261  Biso   1.000  H
  H34      1.0000 0.86348  0.78079  0.55739  Biso   1.000  H
  H35      1.0000 0.86348  0.71921  0.05739  Biso   1.000  H
  H36      1.0000 0.13652  0.21921  0.44261  Biso   1.000  H
  C61      1.0000 0.11330  0.29920  0.00377  Biso   1.000  C
  C62      1.0000 0.88670  0.79920  0.49623  Biso   1.000  C
  C63      1.0000 0.88670  0.70080  0.99623  Biso   1.000  C
  C64      1.0000 0.11330  0.20080  0.50377  Biso   1.000  C
  C65      1.0000 0.04910  0.28500  0.03068  Biso   1.000  C
  C66      1.0000 0.95090  0.78500  0.46932  Biso   1.000  C
  C67      1.0000 0.95090  0.71500  0.96932  Biso   1.000  C
  C68      1.0000 0.04910  0.21500  0.53068  Biso   1.000  C
  H37      1.0000 0.06169  0.30100  0.06047  Biso   1.000  H
  H38      1.0000 0.93831  0.80100  0.43953  Biso   1.000  H
  H39      1.0000 0.93831  0.69900  0.93953  Biso   1.000  H
  H40      1.0000 0.06169  0.19900  0.56047  Biso   1.000  H
  C69      1.0000 0.96610  0.24690  0.01270  Biso   1.000  C
  C70      1.0000 0.03390  0.74690  0.48730  Biso   1.000  C
  C71      1.0000 0.03390  0.75310  0.98730  Biso   1.000  C
  C72      1.0000 0.96610  0.25310  0.51270  Biso   1.000  C
  H41      1.0000 0.92073  0.23644  0.03022  Biso   1.000  H
  H42      1.0000 0.07927  0.73644  0.46978  Biso   1.000  H
  H43      1.0000 0.07927  0.76356  0.96978  Biso   1.000  H
  H44      1.0000 0.92073  0.26356  0.53022  Biso   1.000  H
  C73      1.0000 0.95000  0.22430  0.96963  Biso   1.000  C
  C74      1.0000 0.05000  0.72430  0.53037  Biso   1.000  C
  C75      1.0000 0.05000  0.77570  0.03037  Biso   1.000  C
  C76      1.0000 0.95000  0.27570  0.46963  Biso   1.000  C
  H45      1.0000 0.89271  0.19975  0.95782  Biso   1.000  H
  H46      1.0000 0.10729  0.69975  0.54218  Biso   1.000  H
  H47      1.0000 0.10729  0.80025  0.04218  Biso   1.000  H
  H48      1.0000 0.89271  0.30025  0.45782  Biso   1.000  H
  C77      1.0000 0.20170  0.36750  0.01870  Biso   1.000  C
  C78      1.0000 0.79830  0.86750  0.48130  Biso   1.000  C
  C79      1.0000 0.79830  0.63250  0.98130  Biso   1.000  C
  C80      1.0000 0.20170  0.13250  0.51870  Biso   1.000  C
  O29      1.0000 0.20800  0.52130  0.03610  Biso   1.000  O
  O30      1.0000 0.79200  0.02130  0.46390  Biso   1.000  O
  O31      1.0000 0.79200  0.47870  0.96390  Biso   1.000  O
  O32      1.0000 0.20800  0.97870  0.53610  Biso   1.000  O
  N13      1.0000 0.26790  0.25720  0.02450  Biso   1.000  N
  N14      1.0000 0.73210  0.75720  0.47550  Biso   1.000  N
  N15      1.0000 0.73210  0.74280  0.97550  Biso   1.000  N
  N16      1.0000 0.26790  0.24280  0.52450  Biso   1.000  N
  C81      1.0000 0.26920  0.06360  0.00780  Biso   1.000  C
  C82      1.0000 0.73080  0.56360  0.49220  Biso   1.000  C
  C83      1.0000 0.73080  0.93640  0.99220  Biso   1.000  C
  C84      1.0000 0.26920  0.43640  0.50780  Biso   1.000  C
  H49      1.0000 0.21113  0.03066  0.99439  Biso   1.000  H
  H50      1.0000 0.78887  0.53066  0.50561  Biso   1.000  H
  H51      1.0000 0.78887  0.96934  0.00561  Biso   1.000  H
  H52      1.0000 0.21113  0.46934  0.49439  Biso   1.000  H
  H53      1.0000 0.30932  0.05636  0.98574  Biso   1.000  H
  H54      1.0000 0.69068  0.55636  0.51426  Biso   1.000  H
  H55      1.0000 0.69068  0.94364  0.01426  Biso   1.000  H
  H56      1.0000 0.30932  0.44364  0.48574  Biso   1.000  H
  C85      1.0000 0.29470  0.93800  0.04030  Biso   1.000  C
  C86      1.0000 0.70530  0.43800  0.45970  Biso   1.000  C
  C87      1.0000 0.70530  0.06200  0.95970  Biso   1.000  C
  C88      1.0000 0.29470  0.56200  0.54030  Biso   1.000  C
  H57      1.0000 0.29481  0.81345  0.02842  Biso   1.000  H
  H58      1.0000 0.70519  0.31345  0.47158  Biso   1.000  H
  H59      1.0000 0.70519  0.18655  0.97158  Biso   1.000  H
  H60      1.0000 0.29481  0.68655  0.52842  Biso   1.000  H
  H61      1.0000 0.35253  0.96887  0.05324  Biso   1.000  H
  H62      1.0000 0.64747  0.46887  0.44676  Biso   1.000  H
  H63      1.0000 0.64747  0.03113  0.94676  Biso   1.000  H
  H64      1.0000 0.35253  0.53113  0.55324  Biso   1.000  H
  H65      1.0000 0.25442  0.94319  0.06189  Biso   1.000  H
  H66      1.0000 0.74558  0.44319  0.43811  Biso   1.000  H
  H67      1.0000 0.74558  0.05681  0.93811  Biso   1.000  H
  H68      1.0000 0.25442  0.55681  0.56189  Biso   1.000  H
  C89      1.0000 0.35500  0.33400  0.03750  Biso   1.000  C
  C90      1.0000 0.64500  0.83400  0.46250  Biso   1.000  C
  C91      1.0000 0.64500  0.66600  0.96250  Biso   1.000  C
  C92      1.0000 0.35500  0.16600  0.53750  Biso   1.000  C
  H69      1.0000 0.35031  0.43932  0.05700  Biso   1.000  H
  H70      1.0000 0.64969  0.93932  0.44300  Biso   1.000  H
  H71      1.0000 0.64969  0.56068  0.94300  Biso   1.000  H
  H72      1.0000 0.35031  0.06068  0.55700  Biso   1.000  H
  H73      1.0000 0.39151  0.23930  0.05289  Biso   1.000  H
  H74      1.0000 0.60849  0.73930  0.44711  Biso   1.000  H
  H75      1.0000 0.60849  0.76070  0.94711  Biso   1.000  H
  H76      1.0000 0.39151  0.26070  0.55289  Biso   1.000  H
  C93      1.0000 0.39380  0.39400  0.00110  Biso   1.000  C
  C94      1.0000 0.60620  0.89400  0.49890  Biso   1.000  C
  C95      1.0000 0.60620  0.60600  0.99890  Biso   1.000  C
  C96      1.0000 0.39380  0.10600  0.50110  Biso   1.000  C
  H77      1.0000 0.45092  0.44408  0.01007  Biso   1.000  H
  H78      1.0000 0.54908  0.94408  0.48993  Biso   1.000  H
  H79      1.0000 0.54908  0.55592  0.98993  Biso   1.000  H
  H80      1.0000 0.45092  0.05592  0.51007  Biso   1.000  H
  H81      1.0000 0.39906  0.28920  0.98207  Biso   1.000  H
  H82      1.0000 0.60094  0.78920  0.51793  Biso   1.000  H
  H83      1.0000 0.60094  0.71080  0.01793  Biso   1.000  H
  H84      1.0000 0.39906  0.21080  0.48207  Biso   1.000  H
  H85      1.0000 0.35793  0.48886  0.98617  Biso   1.000  H
  H86      1.0000 0.64207  0.98886  0.51383  Biso   1.000  H
  H87      1.0000 0.64207  0.51114  0.01383  Biso   1.000  H
  H88      1.0000 0.35793  0.01114  0.48617  Biso   1.000  H
  C97      1.0000 0.89350  0.15140  0.79618  Biso   1.000  C
  C98      1.0000 0.10650  0.65140  0.70382  Biso   1.000  C
  C99      1.0000 0.10650  0.84860  0.20382  Biso   1.000  C
  C100     1.0000 0.89350  0.34860  0.29618  Biso   1.000  C
  H89      1.0000 0.84800  0.12373  0.81268  Biso   1.000  H
  H90      1.0000 0.15200  0.62373  0.68732  Biso   1.000  H
  H91      1.0000 0.15200  0.87627  0.18732  Biso   1.000  H
  H92      1.0000 0.84800  0.37627  0.31268  Biso   1.000  H
  C101     1.0000 0.87710  0.14880  0.75273  Biso   1.000  C
  C102     1.0000 0.12290  0.64880  0.74727  Biso   1.000  C
  C103     1.0000 0.12290  0.85120  0.24727  Biso   1.000  C
  C104     1.0000 0.87710  0.35120  0.25273  Biso   1.000  C
  C105     1.0000 0.94440  0.18430  0.72840  Biso   1.000  C
  C106     1.0000 0.05560  0.68430  0.77160  Biso   1.000  C
  C107     1.0000 0.05560  0.81570  0.27160  Biso   1.000  C
  C108     1.0000 0.94440  0.31570  0.22840  Biso   1.000  C
  H93      1.0000 0.93549  0.18210  0.69829  Biso   1.000  H
  H94      1.0000 0.06451  0.68210  0.80171  Biso   1.000  H
  H95      1.0000 0.06451  0.81790  0.30171  Biso   1.000  H
  H96      1.0000 0.93549  0.31790  0.19829  Biso   1.000  H
  C109     1.0000 0.02470  0.22310  0.74950  Biso   1.000  C
  C110     1.0000 0.97530  0.72310  0.75050  Biso   1.000  C
  C111     1.0000 0.97530  0.77690  0.25050  Biso   1.000  C
  C112     1.0000 0.02470  0.27690  0.24950  Biso   1.000  C
  H97      1.0000 0.07180  0.24815  0.73387  Biso   1.000  H
  H98      1.0000 0.92820  0.74815  0.76613  Biso   1.000  H
  H99      1.0000 0.92820  0.75185  0.26613  Biso   1.000  H
  H100     1.0000 0.07180  0.25185  0.23387  Biso   1.000  H
  C113     1.0000 0.03590  0.22520  0.79326  Biso   1.000  C
  C114     1.0000 0.96410  0.72520  0.70674  Biso   1.000  C
  C115     1.0000 0.96410  0.77480  0.20674  Biso   1.000  C
  C116     1.0000 0.03590  0.27480  0.29326  Biso   1.000  C
  H101     1.0000 0.09120  0.25144  0.80735  Biso   1.000  H
  H102     1.0000 0.90880  0.75144  0.69265  Biso   1.000  H
  H103     1.0000 0.90880  0.74856  0.19265  Biso   1.000  H
  H104     1.0000 0.09120  0.24856  0.30735  Biso   1.000  H
  C117     1.0000 0.79080  0.08380  0.73247  Biso   1.000  C
  C118     1.0000 0.20920  0.58380  0.76753  Biso   1.000  C
  C119     1.0000 0.20920  0.91620  0.26753  Biso   1.000  C
  C120     1.0000 0.79080  0.41620  0.23247  Biso   1.000  C
  C121     1.0000 0.63740  0.12270  0.71530  Biso   1.000  C
  C122     1.0000 0.36260  0.62270  0.78470  Biso   1.000  C
  C123     1.0000 0.36260  0.87730  0.28470  Biso   1.000  C
  C124     1.0000 0.63740  0.37730  0.21530  Biso   1.000  C
  H105     1.0000 0.64547  0.03011  0.69314  Biso   1.000  H
  H106     1.0000 0.35453  0.53011  0.80686  Biso   1.000  H
  H107     1.0000 0.35453  0.96989  0.30686  Biso   1.000  H
  H108     1.0000 0.64547  0.46989  0.19314  Biso   1.000  H
  H109     1.0000 0.60224  0.22400  0.70173  Biso   1.000  H
  H110     1.0000 0.39776  0.72400  0.79827  Biso   1.000  H
  H111     1.0000 0.39776  0.77600  0.29827  Biso   1.000  H
  H112     1.0000 0.60224  0.27600  0.20173  Biso   1.000  H
  C125     1.0000 0.59090  0.03690  0.74880  Biso   1.000  C
  C126     1.0000 0.40910  0.53690  0.75120  Biso   1.000  C
  C127     1.0000 0.40910  0.96310  0.25120  Biso   1.000  C
  C128     1.0000 0.59090  0.46310  0.24880  Biso   1.000  C
  H113     1.0000 0.62746  0.94295  0.76377  Biso   1.000  H
  H114     1.0000 0.37254  0.44295  0.73623  Biso   1.000  H
  H115     1.0000 0.37254  0.05705  0.23623  Biso   1.000  H
  H116     1.0000 0.62746  0.55705  0.26377  Biso   1.000  H
  H117     1.0000 0.53785  0.97993  0.73572  Biso   1.000  H
  H118     1.0000 0.46215  0.47993  0.76428  Biso   1.000  H
  H119     1.0000 0.46215  0.02007  0.26428  Biso   1.000  H
  H120     1.0000 0.53785  0.52007  0.23572  Biso   1.000  H
  H121     1.0000 0.57695  0.13132  0.76900  Biso   1.000  H
  H122     1.0000 0.42305  0.63132  0.73100  Biso   1.000  H
  H123     1.0000 0.42305  0.86868  0.23100  Biso   1.000  H
  H124     1.0000 0.57695  0.36868  0.26900  Biso   1.000  H
  C129     1.0000 0.72500  0.38500  0.74720  Biso   1.000  C
  C130     1.0000 0.27500  0.88500  0.75280  Biso   1.000  C
  C131     1.0000 0.27500  0.61500  0.25280  Biso   1.000  C
  C132     1.0000 0.72500  0.11500  0.24720  Biso   1.000  C
  H125     1.0000 0.77937  0.40612  0.76564  Biso   1.000  H
  H126     1.0000 0.22063  0.90612  0.73436  Biso   1.000  H
  H127     1.0000 0.22063  0.59388  0.23436  Biso   1.000  H
  H128     1.0000 0.77937  0.09388  0.26564  Biso   1.000  H
  H129     1.0000 0.67677  0.40837  0.76427  Biso   1.000  H
  H130     1.0000 0.32323  0.90837  0.73573  Biso   1.000  H
  H131     1.0000 0.32323  0.59163  0.23573  Biso   1.000  H
  H132     1.0000 0.67677  0.09163  0.26427  Biso   1.000  H
  C133     1.0000 0.71970  0.51320  0.71100  Biso   1.000  C
  C134     1.0000 0.28030  0.01320  0.78900  Biso   1.000  C
  C135     1.0000 0.28030  0.48680  0.28900  Biso   1.000  C
  C136     1.0000 0.71970  0.98680  0.21100  Biso   1.000  C
  H133     1.0000 0.76687  0.48852  0.69388  Biso   1.000  H
  H134     1.0000 0.23313  0.98852  0.80612  Biso   1.000  H
  H135     1.0000 0.23313  0.51148  0.30612  Biso   1.000  H
  H136     1.0000 0.76687  0.01148  0.19388  Biso   1.000  H
  H137     1.0000 0.72401  0.63974  0.72161  Biso   1.000  H
  H138     1.0000 0.27599  0.13974  0.77839  Biso   1.000  H
  H139     1.0000 0.27599  0.36026  0.27839  Biso   1.000  H
  H140     1.0000 0.72401  0.86026  0.22161  Biso   1.000  H
  H141     1.0000 0.66467  0.49645  0.69358  Biso   1.000  H
  H142     1.0000 0.33533  0.99645  0.80642  Biso   1.000  H
  H143     1.0000 0.33533  0.50355  0.30642  Biso   1.000  H
  H144     1.0000 0.66467  0.00355  0.19358  Biso   1.000  H
  O33      1.0000 0.21600  0.53510  0.01500  Biso   1.000  O
  O34      1.0000 0.78400  0.03510  0.48500  Biso   1.000  O
  O35      1.0000 0.78400  0.46490  0.98500  Biso   1.000  O
  O36      1.0000 0.21600  0.96490  0.51500  Biso   1.000  O
  N17      1.0000 0.26910  0.25390  0.01800  Biso   1.000  N
  N18      1.0000 0.73090  0.75390  0.48200  Biso   1.000  N
  N19      1.0000 0.73090  0.74610  0.98200  Biso   1.000  N
  N20      1.0000 0.26910  0.24610  0.51800  Biso   1.000  N
  C137     1.0000 0.25370  0.04720  0.01780  Biso   1.000  C
  C138     1.0000 0.74630  0.54720  0.48220  Biso   1.000  C
  C139     1.0000 0.74630  0.95280  0.98220  Biso   1.000  C
  C140     1.0000 0.25370  0.45280  0.51780  Biso   1.000  C
  H145     1.0000 0.19174  0.02311  0.01006  Biso   1.000  H
  H146     1.0000 0.80826  0.52311  0.48994  Biso   1.000  H
  H147     1.0000 0.80826  0.97689  0.98994  Biso   1.000  H
  H148     1.0000 0.19174  0.47689  0.51006  Biso   1.000  H
  H149     1.0000 0.28550  0.99003  0.99584  Biso   1.000  H
  H150     1.0000 0.71450  0.49003  0.50416  Biso   1.000  H
  H151     1.0000 0.71450  0.00997  0.00416  Biso   1.000  H
  H152     1.0000 0.28550  0.50997  0.49584  Biso   1.000  H
  C141     1.0000 0.27940  0.96600  0.05690  Biso   1.000  C
  C142     1.0000 0.72060  0.46600  0.44310  Biso   1.000  C
  C143     1.0000 0.72060  0.03400  0.94310  Biso   1.000  C
  C144     1.0000 0.27940  0.53400  0.55690  Biso   1.000  C
  H153     1.0000 0.26815  0.83319  0.05500  Biso   1.000  H
  H154     1.0000 0.73185  0.33319  0.44500  Biso   1.000  H
  H155     1.0000 0.73185  0.16681  0.94500  Biso   1.000  H
  H156     1.0000 0.26815  0.66681  0.55500  Biso   1.000  H
  H157     1.0000 0.34101  0.98647  0.06441  Biso   1.000  H
  H158     1.0000 0.65899  0.48647  0.43559  Biso   1.000  H
  H159     1.0000 0.65899  0.01353  0.93559  Biso   1.000  H
  H160     1.0000 0.34101  0.51353  0.56441  Biso   1.000  H
  H161     1.0000 0.24722  0.01956  0.07864  Biso   1.000  H
  H162     1.0000 0.75278  0.51956  0.42136  Biso   1.000  H
  H163     1.0000 0.75278  0.98044  0.92136  Biso   1.000  H
  H164     1.0000 0.24722  0.48044  0.57864  Biso   1.000  H
  C145     1.0000 0.35800  0.32400  0.02760  Biso   1.000  C
  C146     1.0000 0.64200  0.82400  0.47240  Biso   1.000  C
  C147     1.0000 0.64200  0.67600  0.97240  Biso   1.000  C
  C148     1.0000 0.35800  0.17600  0.52760  Biso   1.000  C
  H165     1.0000 0.35594  0.45998  0.02994  Biso   1.000  H
  H166     1.0000 0.64406  0.95998  0.47006  Biso   1.000  H
  H167     1.0000 0.64406  0.54002  0.97006  Biso   1.000  H
  H168     1.0000 0.35594  0.04002  0.52994  Biso   1.000  H
  H169     1.0000 0.38253  0.27538  0.05541  Biso   1.000  H
  H170     1.0000 0.61747  0.77538  0.44459  Biso   1.000  H
  H171     1.0000 0.61747  0.72462  0.94459  Biso   1.000  H
  H172     1.0000 0.38253  0.22462  0.55541  Biso   1.000  H
  C149     1.0000 0.41330  0.27600  0.99620  Biso   1.000  C
  C150     1.0000 0.58670  0.77600  0.50380  Biso   1.000  C
  C151     1.0000 0.58670  0.72400  0.00380  Biso   1.000  C
  C152     1.0000 0.41330  0.22400  0.49620  Biso   1.000  C
  H173     1.0000 0.47073  0.32663  0.00438  Biso   1.000  H
  H174     1.0000 0.52927  0.82663  0.49562  Biso   1.000  H
  H175     1.0000 0.52927  0.67337  0.99562  Biso   1.000  H
  H176     1.0000 0.47073  0.17337  0.50438  Biso   1.000  H
  H177     1.0000 0.41679  0.14217  0.99418  Biso   1.000  H
  H178     1.0000 0.58321  0.64217  0.50582  Biso   1.000  H
  H179     1.0000 0.58321  0.85783  0.00582  Biso   1.000  H
  H180     1.0000 0.41679  0.35783  0.49418  Biso   1.000  H
  H181     1.0000 0.39017  0.32692  0.96869  Biso   1.000  H
  H182     1.0000 0.60983  0.82692  0.53131  Biso   1.000  H
  H183     1.0000 0.60983  0.67308  0.03131  Biso   1.000  H
  H184     1.0000 0.39017  0.17308  0.46869  Biso   1.000  H
