data_image0
_cell_length_a       16.3872
_cell_length_b       12.5163
_cell_length_c       7.0474
_cell_angle_alpha    90
_cell_angle_beta     99.056
_cell_angle_gamma    90

_symmetry_space_group_name_H-M    "P 1"
_symmetry_int_tables_number       1

loop_
  _symmetry_equiv_pos_as_xyz
  'x, y, z'

loop_
  _atom_site_label
  _atom_site_occupancy
  _atom_site_fract_x
  _atom_site_fract_y
  _atom_site_fract_z
  _atom_site_thermal_displace_type
  _atom_site_B_iso_or_equiv
  _atom_site_type_symbol
  Cu1      1.0000 0.50000  0.27820  0.25000  Biso   1.000  Cu
  Cu2      1.0000 0.00000  0.77820  0.25000  Biso   1.000  Cu
  Cu3      1.0000 0.50000  0.72180  0.75000  Biso   1.000  Cu
  Cu4      1.0000 0.00000  0.22180  0.75000  Biso   1.000  Cu
  S1       1.0000 0.50000  0.34289  0.75000  Biso   1.000  S
  S2       1.0000 0.00000  0.84289  0.75000  Biso   1.000  S
  S3       1.0000 0.50000  0.65711  0.25000  Biso   1.000  S
  S4       1.0000 0.00000  0.15711  0.25000  Biso   1.000  S
  O1       1.0000 0.43165  0.41360  0.79480  Biso   1.000  O
  O2       1.0000 0.56835  0.41360  0.70520  Biso   1.000  O
  O3       1.0000 0.93165  0.91360  0.79480  Biso   1.000  O
  O4       1.0000 0.06835  0.91360  0.70520  Biso   1.000  O
  O5       1.0000 0.56835  0.58640  0.20520  Biso   1.000  O
  O6       1.0000 0.43165  0.58640  0.29480  Biso   1.000  O
  O7       1.0000 0.06835  0.08640  0.20520  Biso   1.000  O
  O8       1.0000 0.93165  0.08640  0.29480  Biso   1.000  O
  O9       1.0000 0.52896  0.27690  0.91900  Biso   1.000  O
  O10      1.0000 0.47104  0.27690  0.58100  Biso   1.000  O
  O11      1.0000 0.02896  0.77690  0.91900  Biso   1.000  O
  O12      1.0000 0.97104  0.77690  0.58100  Biso   1.000  O
  O13      1.0000 0.47104  0.72310  0.08100  Biso   1.000  O
  O14      1.0000 0.52896  0.72310  0.41900  Biso   1.000  O
  O15      1.0000 0.97104  0.22310  0.08100  Biso   1.000  O
  O16      1.0000 0.02896  0.22310  0.41900  Biso   1.000  O
  N1       1.0000 0.42075  0.15680  0.19200  Biso   1.000  N
  N2       1.0000 0.57925  0.15680  0.30800  Biso   1.000  N
  N3       1.0000 0.92075  0.65680  0.19200  Biso   1.000  N
  N4       1.0000 0.07925  0.65680  0.30800  Biso   1.000  N
  N5       1.0000 0.57925  0.84320  0.80800  Biso   1.000  N
  N6       1.0000 0.42075  0.84320  0.69200  Biso   1.000  N
  N7       1.0000 0.07925  0.34320  0.80800  Biso   1.000  N
  N8       1.0000 0.92075  0.34320  0.69200  Biso   1.000  N
  C1       1.0000 0.33920  0.16420  0.13780  Biso   1.000  C
  C2       1.0000 0.66080  0.16420  0.36220  Biso   1.000  C
  C3       1.0000 0.83920  0.66420  0.13780  Biso   1.000  C
  C4       1.0000 0.16080  0.66420  0.36220  Biso   1.000  C
  C5       1.0000 0.66080  0.83580  0.86220  Biso   1.000  C
  C6       1.0000 0.33920  0.83580  0.63780  Biso   1.000  C
  C7       1.0000 0.16080  0.33580  0.86220  Biso   1.000  C
  C8       1.0000 0.83920  0.33580  0.63780  Biso   1.000  C
  H1       1.0000 0.31520  0.23330  0.11910  Biso   1.000  H
  H2       1.0000 0.68480  0.23330  0.38090  Biso   1.000  H
  H3       1.0000 0.81520  0.73330  0.11910  Biso   1.000  H
  H4       1.0000 0.18480  0.73330  0.38090  Biso   1.000  H
  H5       1.0000 0.68480  0.76670  0.88090  Biso   1.000  H
  H6       1.0000 0.31520  0.76670  0.61910  Biso   1.000  H
  H7       1.0000 0.18480  0.26670  0.88090  Biso   1.000  H
  H8       1.0000 0.81520  0.26670  0.61910  Biso   1.000  H
  C9       1.0000 0.45490  0.05770  0.21760  Biso   1.000  C
  C10      1.0000 0.54510  0.05770  0.28240  Biso   1.000  C
  C11      1.0000 0.95490  0.55770  0.21760  Biso   1.000  C
  C12      1.0000 0.04510  0.55770  0.28240  Biso   1.000  C
  C13      1.0000 0.54510  0.94230  0.78240  Biso   1.000  C
  C14      1.0000 0.45490  0.94230  0.71760  Biso   1.000  C
  C15      1.0000 0.04510  0.44230  0.78240  Biso   1.000  C
  C16      1.0000 0.95490  0.44230  0.71760  Biso   1.000  C
  C17      1.0000 0.40690  0.96610  0.18750  Biso   1.000  C
  C18      1.0000 0.59310  0.96610  0.31250  Biso   1.000  C
  C19      1.0000 0.90690  0.46610  0.18750  Biso   1.000  C
  C20      1.0000 0.09310  0.46610  0.31250  Biso   1.000  C
  C21      1.0000 0.59310  0.03390  0.81250  Biso   1.000  C
  C22      1.0000 0.40690  0.03390  0.68750  Biso   1.000  C
  C23      1.0000 0.09310  0.53390  0.81250  Biso   1.000  C
  C24      1.0000 0.90690  0.53390  0.68750  Biso   1.000  C
  H9       1.0000 0.43210  0.89770  0.20530  Biso   1.000  H
  H10      1.0000 0.56790  0.89770  0.29470  Biso   1.000  H
  H11      1.0000 0.93210  0.39770  0.20530  Biso   1.000  H
  H12      1.0000 0.06790  0.39770  0.29470  Biso   1.000  H
  H13      1.0000 0.56790  0.10230  0.79470  Biso   1.000  H
  H14      1.0000 0.43210  0.10230  0.70530  Biso   1.000  H
  H15      1.0000 0.06790  0.60230  0.79470  Biso   1.000  H
  H16      1.0000 0.93210  0.60230  0.70530  Biso   1.000  H
  C25      1.0000 0.32180  0.97470  0.13120  Biso   1.000  C
  C26      1.0000 0.67820  0.97470  0.36880  Biso   1.000  C
  C27      1.0000 0.82180  0.47470  0.13120  Biso   1.000  C
  C28      1.0000 0.17820  0.47470  0.36880  Biso   1.000  C
  C29      1.0000 0.67820  0.02530  0.86880  Biso   1.000  C
  C30      1.0000 0.32180  0.02530  0.63120  Biso   1.000  C
  C31      1.0000 0.17820  0.52530  0.86880  Biso   1.000  C
  C32      1.0000 0.82180  0.52530  0.63120  Biso   1.000  C
  C33      1.0000 0.28810  0.07630  0.10770  Biso   1.000  C
  C34      1.0000 0.71190  0.07630  0.39230  Biso   1.000  C
  C35      1.0000 0.78810  0.57630  0.10770  Biso   1.000  C
  C36      1.0000 0.21190  0.57630  0.39230  Biso   1.000  C
  C37      1.0000 0.71190  0.92370  0.89230  Biso   1.000  C
  C38      1.0000 0.28810  0.92370  0.60770  Biso   1.000  C
  C39      1.0000 0.21190  0.42370  0.89230  Biso   1.000  C
  C40      1.0000 0.78810  0.42370  0.60770  Biso   1.000  C
  H17      1.0000 0.23020  0.08530  0.07110  Biso   1.000  H
  H18      1.0000 0.76980  0.08530  0.42890  Biso   1.000  H
  H19      1.0000 0.73020  0.58530  0.07110  Biso   1.000  H
  H20      1.0000 0.26980  0.58530  0.42890  Biso   1.000  H
  H21      1.0000 0.76980  0.91470  0.92890  Biso   1.000  H
  H22      1.0000 0.23020  0.91470  0.57110  Biso   1.000  H
  H23      1.0000 0.26980  0.41470  0.92890  Biso   1.000  H
  H24      1.0000 0.73020  0.41470  0.57110  Biso   1.000  H
  C41      1.0000 0.26780  0.87680  0.09830  Biso   1.000  C
  C42      1.0000 0.73220  0.87680  0.40170  Biso   1.000  C
  C43      1.0000 0.76780  0.37680  0.09830  Biso   1.000  C
  C44      1.0000 0.23220  0.37680  0.40170  Biso   1.000  C
  C45      1.0000 0.73220  0.12320  0.90170  Biso   1.000  C
  C46      1.0000 0.26780  0.12320  0.59830  Biso   1.000  C
  C47      1.0000 0.23220  0.62320  0.90170  Biso   1.000  C
  C48      1.0000 0.76780  0.62320  0.59830  Biso   1.000  C
  H25      1.0000 0.23200  0.87300  0.19720  Biso   1.000  H
  H26      1.0000 0.76800  0.87300  0.30280  Biso   1.000  H
  H27      1.0000 0.73200  0.37300  0.19720  Biso   1.000  H
  H28      1.0000 0.26800  0.37300  0.30280  Biso   1.000  H
  H29      1.0000 0.76800  0.12700  0.80280  Biso   1.000  H
  H30      1.0000 0.23200  0.12700  0.69720  Biso   1.000  H
  H31      1.0000 0.26800  0.62700  0.80280  Biso   1.000  H
  H32      1.0000 0.73200  0.62700  0.69720  Biso   1.000  H
  H33      1.0000 0.30250  0.81280  0.10530  Biso   1.000  H
  H34      1.0000 0.69750  0.81280  0.39470  Biso   1.000  H
  H35      1.0000 0.80250  0.31280  0.10530  Biso   1.000  H
  H36      1.0000 0.19750  0.31280  0.39470  Biso   1.000  H
  H37      1.0000 0.69750  0.18720  0.89470  Biso   1.000  H
  H38      1.0000 0.30250  0.18720  0.60530  Biso   1.000  H
  H39      1.0000 0.19750  0.68720  0.89470  Biso   1.000  H
  H40      1.0000 0.80250  0.68720  0.60530  Biso   1.000  H
  H41      1.0000 0.23370  0.88110  0.97120  Biso   1.000  H
  H42      1.0000 0.76630  0.88110  0.52880  Biso   1.000  H
  H43      1.0000 0.73370  0.38110  0.97120  Biso   1.000  H
  H44      1.0000 0.26630  0.38110  0.52880  Biso   1.000  H
  H45      1.0000 0.76630  0.11890  0.02880  Biso   1.000  H
  H46      1.0000 0.23370  0.11890  0.47120  Biso   1.000  H
  H47      1.0000 0.26630  0.61890  0.02880  Biso   1.000  H
  H48      1.0000 0.73370  0.61890  0.47120  Biso   1.000  H
  O17      1.0000 0.41515  0.38710  0.15610  Biso   1.000  O
  O18      1.0000 0.58485  0.38710  0.34390  Biso   1.000  O
  O19      1.0000 0.91515  0.88710  0.15610  Biso   1.000  O
  O20      1.0000 0.08485  0.88710  0.34390  Biso   1.000  O
  O21      1.0000 0.58485  0.61290  0.84390  Biso   1.000  O
  O22      1.0000 0.41515  0.61290  0.65610  Biso   1.000  O
  O23      1.0000 0.08485  0.11290  0.84390  Biso   1.000  O
  O24      1.0000 0.91515  0.11290  0.65610  Biso   1.000  O
  H49      1.0000 0.41780  0.39190  0.02280  Biso   1.000  H
  H50      1.0000 0.58220  0.39190  0.47720  Biso   1.000  H
  H51      1.0000 0.91780  0.89190  0.02280  Biso   1.000  H
  H52      1.0000 0.08220  0.89190  0.47720  Biso   1.000  H
  H53      1.0000 0.58220  0.60810  0.97720  Biso   1.000  H
  H54      1.0000 0.41780  0.60810  0.52280  Biso   1.000  H
  H55      1.0000 0.08220  0.10810  0.97720  Biso   1.000  H
  H56      1.0000 0.91780  0.10810  0.52280  Biso   1.000  H
  H57      1.0000 0.42110  0.45100  0.21150  Biso   1.000  H
  H58      1.0000 0.57890  0.45100  0.28850  Biso   1.000  H
  H59      1.0000 0.92110  0.95100  0.21150  Biso   1.000  H
  H60      1.0000 0.07890  0.95100  0.28850  Biso   1.000  H
  H61      1.0000 0.57890  0.54900  0.78850  Biso   1.000  H
  H62      1.0000 0.42110  0.54900  0.71150  Biso   1.000  H
  H63      1.0000 0.07890  0.04900  0.78850  Biso   1.000  H
  H64      1.0000 0.92110  0.04900  0.71150  Biso   1.000  H
