data_image0
_cell_length_a       10.1122
_cell_length_b       18.9068
_cell_length_c       13.3503
_cell_angle_alpha    90
_cell_angle_beta     112.241
_cell_angle_gamma    90

_symmetry_space_group_name_H-M    "P 1"
_symmetry_int_tables_number       1

loop_
  _symmetry_equiv_pos_as_xyz
  'x, y, z'

loop_
  _atom_site_label
  _atom_site_occupancy
  _atom_site_fract_x
  _atom_site_fract_y
  _atom_site_fract_z
  _atom_site_thermal_displace_type
  _atom_site_B_iso_or_equiv
  _atom_site_type_symbol
  Cu1      1.0000 0.26068  0.46967  0.29288  Biso   1.000  Cu
  Cu2      1.0000 0.23932  0.96967  0.20712  Biso   1.000  Cu
  Cu3      1.0000 0.73932  0.53033  0.70712  Biso   1.000  Cu
  Cu4      1.0000 0.76068  0.03033  0.79288  Biso   1.000  Cu
  Cu5      1.0000 0.40469  0.49160  0.56472  Biso   1.000  Cu
  Cu6      1.0000 0.09531  0.99160  0.93528  Biso   1.000  Cu
  Cu7      1.0000 0.59531  0.50840  0.43528  Biso   1.000  Cu
  Cu8      1.0000 0.90469  0.00840  0.06472  Biso   1.000  Cu
  O1       1.0000 0.38520  0.52312  0.42053  Biso   1.000  O
  O2       1.0000 0.11480  0.02312  0.07947  Biso   1.000  O
  O3       1.0000 0.61480  0.47688  0.57947  Biso   1.000  O
  O4       1.0000 0.88520  0.97688  0.92053  Biso   1.000  O
  H1       1.0000 0.36400  0.56680  0.41290  Biso   1.000  H
  H2       1.0000 0.13600  0.06680  0.08710  Biso   1.000  H
  H3       1.0000 0.63600  0.43320  0.58710  Biso   1.000  H
  H4       1.0000 0.86400  0.93320  0.91290  Biso   1.000  H
  O5       1.0000 0.37469  0.38473  0.35256  Biso   1.000  O
  O6       1.0000 0.12531  0.88473  0.14744  Biso   1.000  O
  O7       1.0000 0.62531  0.61527  0.64744  Biso   1.000  O
  O8       1.0000 0.87469  0.11527  0.85256  Biso   1.000  O
  O9       1.0000 0.34082  0.38453  0.51024  Biso   1.000  O
  O10      1.0000 0.15918  0.88453  0.98976  Biso   1.000  O
  O11      1.0000 0.65918  0.61547  0.48976  Biso   1.000  O
  O12      1.0000 0.84082  0.11547  0.01024  Biso   1.000  O
  O13      1.0000 0.36772  0.05199  0.27104  Biso   1.000  O
  O14      1.0000 0.13228  0.55199  0.22896  Biso   1.000  O
  O15      1.0000 0.63228  0.94801  0.72896  Biso   1.000  O
  O16      1.0000 0.86772  0.44801  0.77104  Biso   1.000  O
  O17      1.0000 0.22279  0.14151  0.18524  Biso   1.000  O
  O18      1.0000 0.27721  0.64151  0.31476  Biso   1.000  O
  O19      1.0000 0.77721  0.85849  0.81476  Biso   1.000  O
  O20      1.0000 0.72279  0.35849  0.68524  Biso   1.000  O
  O21      1.0000 0.63940  0.08103  0.66757  Biso   1.000  O
  O22      1.0000 0.86060  0.58103  0.83243  Biso   1.000  O
  O23      1.0000 0.36060  0.91897  0.33243  Biso   1.000  O
  O24      1.0000 0.13940  0.41897  0.16757  Biso   1.000  O
  O25      1.0000 0.56927  0.16865  0.75040  Biso   1.000  O
  O26      1.0000 0.93073  0.66865  0.74960  Biso   1.000  O
  O27      1.0000 0.43073  0.83135  0.24960  Biso   1.000  O
  O28      1.0000 0.06927  0.33135  0.25040  Biso   1.000  O
  O29      1.0000 0.66950  0.00310  0.34790  Biso   1.000  O
  O30      1.0000 0.83050  0.50310  0.15210  Biso   1.000  O
  O31      1.0000 0.33050  0.99690  0.65210  Biso   1.000  O
  O32      1.0000 0.16950  0.49690  0.84790  Biso   1.000  O
  H5       1.0000 0.68440  0.99760  0.28990  Biso   1.000  H
  H6       1.0000 0.81560  0.49760  0.21010  Biso   1.000  H
  H7       1.0000 0.31560  0.00240  0.71010  Biso   1.000  H
  H8       1.0000 0.18440  0.50240  0.78990  Biso   1.000  H
  H9       1.0000 0.58380  0.01690  0.33130  Biso   1.000  H
  H10      1.0000 0.91620  0.51690  0.16870  Biso   1.000  H
  H11      1.0000 0.41620  0.98310  0.66870  Biso   1.000  H
  H12      1.0000 0.08380  0.48310  0.83130  Biso   1.000  H
  N1       1.0000 0.53820  0.54369  0.28435  Biso   1.000  N
  N2       1.0000 0.96180  0.04369  0.21565  Biso   1.000  N
  N3       1.0000 0.46180  0.45631  0.71565  Biso   1.000  N
  N4       1.0000 0.03820  0.95631  0.78435  Biso   1.000  N
  N5       1.0000 0.41710  0.51376  0.20857  Biso   1.000  N
  N6       1.0000 0.08290  0.01376  0.29143  Biso   1.000  N
  N7       1.0000 0.58290  0.48624  0.79143  Biso   1.000  N
  N8       1.0000 0.91710  0.98624  0.70857  Biso   1.000  N
  N9       1.0000 0.48540  0.60324  0.13355  Biso   1.000  N
  N10      1.0000 0.01460  0.10324  0.36645  Biso   1.000  N
  N11      1.0000 0.51460  0.39676  0.86645  Biso   1.000  N
  N12      1.0000 0.98540  0.89676  0.63355  Biso   1.000  N
  N13      1.0000 0.76480  0.93714  0.07811  Biso   1.000  N
  N14      1.0000 0.73520  0.43714  0.42189  Biso   1.000  N
  N15      1.0000 0.23520  0.06286  0.92189  Biso   1.000  N
  N16      1.0000 0.26480  0.56286  0.57811  Biso   1.000  N
  N17      1.0000 0.67340  0.94616  0.13189  Biso   1.000  N
  N18      1.0000 0.82660  0.44616  0.36811  Biso   1.000  N
  N19      1.0000 0.32660  0.05384  0.86811  Biso   1.000  N
  N20      1.0000 0.17340  0.55384  0.63189  Biso   1.000  N
  N21      1.0000 0.63930  0.83997  0.05571  Biso   1.000  N
  N22      1.0000 0.86070  0.33997  0.44429  Biso   1.000  N
  N23      1.0000 0.36070  0.16003  0.94429  Biso   1.000  N
  N24      1.0000 0.13930  0.66003  0.55571  Biso   1.000  N
  C1       1.0000 0.57690  0.59659  0.23849  Biso   1.000  C
  C2       1.0000 0.92310  0.09659  0.26151  Biso   1.000  C
  C3       1.0000 0.42310  0.40341  0.76151  Biso   1.000  C
  C4       1.0000 0.07690  0.90341  0.73849  Biso   1.000  C
  H13      1.0000 0.65640  0.62580  0.27300  Biso   1.000  H
  H14      1.0000 0.84360  0.12580  0.22700  Biso   1.000  H
  H15      1.0000 0.34360  0.37420  0.72700  Biso   1.000  H
  H16      1.0000 0.15640  0.87420  0.77300  Biso   1.000  H
  C5       1.0000 0.38820  0.55009  0.11941  Biso   1.000  C
  C6       1.0000 0.11180  0.05009  0.38059  Biso   1.000  C
  C7       1.0000 0.61180  0.44991  0.88059  Biso   1.000  C
  C8       1.0000 0.88820  0.94991  0.61941  Biso   1.000  C
  H17      1.0000 0.31080  0.54090  0.05430  Biso   1.000  H
  H18      1.0000 0.18920  0.04090  0.44570  Biso   1.000  H
  H19      1.0000 0.68920  0.45910  0.94570  Biso   1.000  H
  H20      1.0000 0.81080  0.95910  0.55430  Biso   1.000  H
  C9       1.0000 0.74380  0.87378  0.03500  Biso   1.000  C
  C10      1.0000 0.75620  0.37378  0.46500  Biso   1.000  C
  C11      1.0000 0.25620  0.12622  0.96500  Biso   1.000  C
  C12      1.0000 0.24380  0.62622  0.53500  Biso   1.000  C
  H21      1.0000 0.79450  0.85460  0.99520  Biso   1.000  H
  H22      1.0000 0.70550  0.35460  0.50480  Biso   1.000  H
  H23      1.0000 0.20550  0.14540  0.00480  Biso   1.000  H
  H24      1.0000 0.29450  0.64540  0.49520  Biso   1.000  H
  C13      1.0000 0.59860  0.88746  0.11610  Biso   1.000  C
  C14      1.0000 0.90140  0.38746  0.38390  Biso   1.000  C
  C15      1.0000 0.40140  0.11254  0.88390  Biso   1.000  C
  C16      1.0000 0.09860  0.61254  0.61610  Biso   1.000  C
  H25      1.0000 0.52640  0.87910  0.14290  Biso   1.000  H
  H26      1.0000 0.97360  0.37910  0.35710  Biso   1.000  H
  H27      1.0000 0.47360  0.12090  0.85710  Biso   1.000  H
  H28      1.0000 0.02640  0.62090  0.64290  Biso   1.000  H
  C17      1.0000 0.49370  0.65226  0.04760  Biso   1.000  C
  C18      1.0000 0.00630  0.15226  0.45240  Biso   1.000  C
  C19      1.0000 0.50630  0.34774  0.95240  Biso   1.000  C
  C20      1.0000 0.99370  0.84774  0.54760  Biso   1.000  C
  C21      1.0000 0.56630  0.72204  0.09990  Biso   1.000  C
  C22      1.0000 0.93370  0.22204  0.40010  Biso   1.000  C
  C23      1.0000 0.43370  0.27796  0.90010  Biso   1.000  C
  C24      1.0000 0.06630  0.77796  0.59990  Biso   1.000  C
  H29      1.0000 0.51220  0.74450  0.13860  Biso   1.000  H
  H30      1.0000 0.98780  0.24450  0.36140  Biso   1.000  H
  H31      1.0000 0.48780  0.25550  0.86140  Biso   1.000  H
  H32      1.0000 0.01220  0.75550  0.63860  Biso   1.000  H
  H33      1.0000 0.66340  0.71270  0.15170  Biso   1.000  H
  H34      1.0000 0.83660  0.21270  0.34830  Biso   1.000  H
  H35      1.0000 0.33660  0.28730  0.84830  Biso   1.000  H
  H36      1.0000 0.16340  0.78730  0.65170  Biso   1.000  H
  C25      1.0000 0.57080  0.77117  0.00875  Biso   1.000  C
  C26      1.0000 0.92920  0.27117  0.49125  Biso   1.000  C
  C27      1.0000 0.42920  0.22883  0.99125  Biso   1.000  C
  C28      1.0000 0.07080  0.72883  0.50875  Biso   1.000  C
  C29      1.0000 0.65700  0.73540  0.94990  Biso   1.000  C
  C30      1.0000 0.84300  0.23540  0.55010  Biso   1.000  C
  C31      1.0000 0.34300  0.26460  0.05010  Biso   1.000  C
  C32      1.0000 0.15700  0.76460  0.44990  Biso   1.000  C
  H37      1.0000 0.66340  0.76700  0.89370  Biso   1.000  H
  H38      1.0000 0.83660  0.26700  0.60630  Biso   1.000  H
  H39      1.0000 0.33660  0.23300  0.10630  Biso   1.000  H
  H40      1.0000 0.16340  0.73300  0.39370  Biso   1.000  H
  H41      1.0000 0.75420  0.72550  0.00130  Biso   1.000  H
  H42      1.0000 0.74580  0.22550  0.49870  Biso   1.000  H
  H43      1.0000 0.24580  0.27450  0.99870  Biso   1.000  H
  H44      1.0000 0.25420  0.77450  0.50130  Biso   1.000  H
  C33      1.0000 0.58340  0.66597  0.89830  Biso   1.000  C
  C34      1.0000 0.91660  0.16597  0.60170  Biso   1.000  C
  C35      1.0000 0.41660  0.33403  0.10170  Biso   1.000  C
  C36      1.0000 0.08340  0.83403  0.39830  Biso   1.000  C
  H45      1.0000 0.63870  0.64320  0.85980  Biso   1.000  H
  H46      1.0000 0.86130  0.14320  0.64020  Biso   1.000  H
  H47      1.0000 0.36130  0.35680  0.14020  Biso   1.000  H
  H48      1.0000 0.13870  0.85680  0.35980  Biso   1.000  H
  C37      1.0000 0.57780  0.61616  0.98800  Biso   1.000  C
  C38      1.0000 0.92220  0.11616  0.51200  Biso   1.000  C
  C39      1.0000 0.42220  0.38384  0.01200  Biso   1.000  C
  C40      1.0000 0.07780  0.88384  0.48800  Biso   1.000  C
  H49      1.0000 0.67490  0.60550  0.03880  Biso   1.000  H
  H50      1.0000 0.82510  0.10550  0.46120  Biso   1.000  H
  H51      1.0000 0.32510  0.39450  0.96120  Biso   1.000  H
  H52      1.0000 0.17490  0.89450  0.53880  Biso   1.000  H
  H53      1.0000 0.53130  0.57160  0.95610  Biso   1.000  H
  H54      1.0000 0.96870  0.07160  0.54390  Biso   1.000  H
  H55      1.0000 0.46870  0.42840  0.04390  Biso   1.000  H
  H56      1.0000 0.03130  0.92840  0.45610  Biso   1.000  H
  C41      1.0000 0.34120  0.66785  0.96798  Biso   1.000  C
  C42      1.0000 0.15880  0.16785  0.53202  Biso   1.000  C
  C43      1.0000 0.65880  0.33215  0.03202  Biso   1.000  C
  C44      1.0000 0.84120  0.83215  0.46798  Biso   1.000  C
  H57      1.0000 0.29300  0.62360  0.93640  Biso   1.000  H
  H58      1.0000 0.20700  0.12360  0.56360  Biso   1.000  H
  H59      1.0000 0.70700  0.37640  0.06360  Biso   1.000  H
  H60      1.0000 0.79300  0.87640  0.43640  Biso   1.000  H
  H61      1.0000 0.28670  0.69060  0.00620  Biso   1.000  H
  H62      1.0000 0.21330  0.19060  0.49380  Biso   1.000  H
  H63      1.0000 0.71330  0.30940  0.99380  Biso   1.000  H
  H64      1.0000 0.78670  0.80940  0.50620  Biso   1.000  H
  C45      1.0000 0.34720  0.71702  0.87760  Biso   1.000  C
  C46      1.0000 0.15280  0.21702  0.62240  Biso   1.000  C
  C47      1.0000 0.65280  0.28298  0.12240  Biso   1.000  C
  C48      1.0000 0.84720  0.78298  0.37760  Biso   1.000  C
  H65      1.0000 0.24880  0.72660  0.82580  Biso   1.000  H
  H66      1.0000 0.25120  0.22660  0.67420  Biso   1.000  H
  H67      1.0000 0.75120  0.27340  0.17420  Biso   1.000  H
  H68      1.0000 0.74880  0.77340  0.32580  Biso   1.000  H
  C49      1.0000 0.41870  0.78707  0.92800  Biso   1.000  C
  C50      1.0000 0.08130  0.28707  0.57200  Biso   1.000  C
  C51      1.0000 0.58130  0.21293  0.07200  Biso   1.000  C
  C52      1.0000 0.91870  0.71293  0.42800  Biso   1.000  C
  H69      1.0000 0.42240  0.81900  0.87130  Biso   1.000  H
  H70      1.0000 0.07760  0.31900  0.62870  Biso   1.000  H
  H71      1.0000 0.57760  0.18100  0.12870  Biso   1.000  H
  H72      1.0000 0.92240  0.68100  0.37130  Biso   1.000  H
  H73      1.0000 0.36350  0.81010  0.96530  Biso   1.000  H
  H74      1.0000 0.13650  0.31010  0.53470  Biso   1.000  H
  H75      1.0000 0.63650  0.18990  0.03470  Biso   1.000  H
  H76      1.0000 0.86350  0.68990  0.46530  Biso   1.000  H
  C53      1.0000 0.43160  0.68116  0.81800  Biso   1.000  C
  C54      1.0000 0.06840  0.18116  0.68200  Biso   1.000  C
  C55      1.0000 0.56840  0.31884  0.18200  Biso   1.000  C
  C56      1.0000 0.93160  0.81884  0.31800  Biso   1.000  C
  H77      1.0000 0.38470  0.63690  0.78530  Biso   1.000  H
  H78      1.0000 0.11530  0.13690  0.71470  Biso   1.000  H
  H79      1.0000 0.61530  0.36310  0.21470  Biso   1.000  H
  H80      1.0000 0.88470  0.86310  0.28530  Biso   1.000  H
  H81      1.0000 0.43500  0.71200  0.76000  Biso   1.000  H
  H82      1.0000 0.06500  0.21200  0.74000  Biso   1.000  H
  H83      1.0000 0.56500  0.28800  0.24000  Biso   1.000  H
  H84      1.0000 0.93500  0.78800  0.26000  Biso   1.000  H
  C57      1.0000 0.37100  0.35469  0.43742  Biso   1.000  C
  C58      1.0000 0.12900  0.85469  0.06258  Biso   1.000  C
  C59      1.0000 0.62900  0.64531  0.56258  Biso   1.000  C
  C60      1.0000 0.87100  0.14531  0.93742  Biso   1.000  C
  C61      1.0000 0.32240  0.11582  0.26474  Biso   1.000  C
  C62      1.0000 0.17760  0.61582  0.23526  Biso   1.000  C
  C63      1.0000 0.67760  0.88418  0.73526  Biso   1.000  C
  C64      1.0000 0.82240  0.38418  0.76474  Biso   1.000  C
  C65      1.0000 0.57700  0.13964  0.66935  Biso   1.000  C
  C66      1.0000 0.92300  0.63964  0.83065  Biso   1.000  C
  C67      1.0000 0.42300  0.86036  0.33065  Biso   1.000  C
  C68      1.0000 0.07700  0.36036  0.16935  Biso   1.000  C
  C69      1.0000 0.40720  0.27715  0.44860  Biso   1.000  C
  C70      1.0000 0.09280  0.77715  0.05140  Biso   1.000  C
  C71      1.0000 0.59280  0.72285  0.55140  Biso   1.000  C
  C72      1.0000 0.90720  0.22285  0.94860  Biso   1.000  C
  C73      1.0000 0.36380  0.23499  0.35561  Biso   1.000  C
  C74      1.0000 0.13620  0.73499  0.14439  Biso   1.000  C
  C75      1.0000 0.63620  0.76501  0.64439  Biso   1.000  C
  C76      1.0000 0.86380  0.26501  0.85561  Biso   1.000  C
  H85      1.0000 0.31620  0.25570  0.28740  Biso   1.000  H
  H86      1.0000 0.18380  0.75570  0.21260  Biso   1.000  H
  H87      1.0000 0.68380  0.74430  0.71260  Biso   1.000  H
  H88      1.0000 0.81620  0.24430  0.78740  Biso   1.000  H
  C77      1.0000 0.39070  0.16211  0.36334  Biso   1.000  C
  C78      1.0000 0.10930  0.66211  0.13666  Biso   1.000  C
  C79      1.0000 0.60930  0.83789  0.63666  Biso   1.000  C
  C80      1.0000 0.89070  0.33789  0.86334  Biso   1.000  C
  C81      1.0000 0.46690  0.13240  0.46532  Biso   1.000  C
  C82      1.0000 0.03310  0.63240  0.03468  Biso   1.000  C
  C83      1.0000 0.53310  0.86760  0.53468  Biso   1.000  C
  C84      1.0000 0.96690  0.36760  0.96532  Biso   1.000  C
  H89      1.0000 0.49120  0.08420  0.47080  Biso   1.000  H
  H90      1.0000 0.00880  0.58420  0.02920  Biso   1.000  H
  H91      1.0000 0.50880  0.91580  0.52920  Biso   1.000  H
  H92      1.0000 0.99120  0.41580  0.97080  Biso   1.000  H
  C85      1.0000 0.50690  0.17396  0.55891  Biso   1.000  C
  C86      1.0000 0.99310  0.67396  0.94109  Biso   1.000  C
  C87      1.0000 0.49310  0.82604  0.44109  Biso   1.000  C
  C88      1.0000 0.00690  0.32604  0.05891  Biso   1.000  C
  C89      1.0000 0.47510  0.24598  0.55069  Biso   1.000  C
  C90      1.0000 0.02490  0.74598  0.94931  Biso   1.000  C
  C91      1.0000 0.52490  0.75402  0.44931  Biso   1.000  C
  C92      1.0000 0.97510  0.25402  0.05069  Biso   1.000  C
  H93      1.0000 0.49920  0.27370  0.61360  Biso   1.000  H
  H94      1.0000 0.00080  0.77370  0.88640  Biso   1.000  H
  H95      1.0000 0.50080  0.72630  0.38640  Biso   1.000  H
  H96      1.0000 0.99920  0.22630  0.11360  Biso   1.000  H
