data_image0
_cell_length_a       4.1377
_cell_length_b       12.5407
_cell_length_c       13.5301
_cell_angle_alpha    90
_cell_angle_beta     93.786
_cell_angle_gamma    90

_symmetry_space_group_name_H-M    "P 1"
_symmetry_int_tables_number       1

loop_
  _symmetry_equiv_pos_as_xyz
  'x, y, z'

loop_
  _atom_site_label
  _atom_site_occupancy
  _atom_site_fract_x
  _atom_site_fract_y
  _atom_site_fract_z
  _atom_site_thermal_displace_type
  _atom_site_B_iso_or_equiv
  _atom_site_type_symbol
  Cu1      1.0000 0.00000  0.00000  0.00000  Biso   1.000  Cu
  Cu2      1.0000 0.00000  0.50000  0.50000  Biso   1.000  Cu
  Br1      1.0000 0.38905  0.92046  0.11892  Biso   1.000  Br
  Br2      1.0000 0.61095  0.42046  0.38108  Biso   1.000  Br
  Br3      1.0000 0.61095  0.07954  0.88108  Biso   1.000  Br
  Br4      1.0000 0.38905  0.57954  0.61892  Biso   1.000  Br
  N1       1.0000 0.92270  0.13680  0.16820  Biso   1.000  N
  N2       1.0000 0.07730  0.63680  0.33180  Biso   1.000  N
  N3       1.0000 0.07730  0.86320  0.83180  Biso   1.000  N
  N4       1.0000 0.92270  0.36320  0.66820  Biso   1.000  N
  N5       1.0000 0.03000  0.13650  0.07720  Biso   1.000  N
  N6       1.0000 0.97000  0.63650  0.42280  Biso   1.000  N
  N7       1.0000 0.97000  0.86350  0.92280  Biso   1.000  N
  N8       1.0000 0.03000  0.36350  0.57720  Biso   1.000  N
  C1       1.0000 0.15300  0.22240  0.03890  Biso   1.000  C
  C2       1.0000 0.84700  0.72240  0.46110  Biso   1.000  C
  C3       1.0000 0.84700  0.77760  0.96110  Biso   1.000  C
  C4       1.0000 0.15300  0.27760  0.53890  Biso   1.000  C
  H1       1.0000 0.21940  0.21820  0.97470  Biso   1.000  H
  H2       1.0000 0.78060  0.71820  0.52530  Biso   1.000  H
  H3       1.0000 0.78060  0.78180  0.02530  Biso   1.000  H
  H4       1.0000 0.21940  0.28180  0.47470  Biso   1.000  H
  C5       1.0000 0.19070  0.32050  0.08890  Biso   1.000  C
  C6       1.0000 0.80930  0.82050  0.41110  Biso   1.000  C
  C7       1.0000 0.80930  0.67950  0.91110  Biso   1.000  C
  C8       1.0000 0.19070  0.17950  0.58890  Biso   1.000  C
  C9       1.0000 0.07080  0.32220  0.18110  Biso   1.000  C
  C10      1.0000 0.92920  0.82220  0.31890  Biso   1.000  C
  C11      1.0000 0.92920  0.67780  0.81890  Biso   1.000  C
  C12      1.0000 0.07080  0.17780  0.68110  Biso   1.000  C
  H5       1.0000 0.07550  0.38430  0.21870  Biso   1.000  H
  H6       1.0000 0.92450  0.88430  0.28130  Biso   1.000  H
  H7       1.0000 0.92450  0.61570  0.78130  Biso   1.000  H
  H8       1.0000 0.07550  0.11570  0.71870  Biso   1.000  H
  C13      1.0000 0.94250  0.22850  0.21670  Biso   1.000  C
  C14      1.0000 0.05750  0.72850  0.28330  Biso   1.000  C
  C15      1.0000 0.05750  0.77150  0.78330  Biso   1.000  C
  C16      1.0000 0.94250  0.27150  0.71670  Biso   1.000  C
  H9       1.0000 0.86430  0.23040  0.27960  Biso   1.000  H
  H10      1.0000 0.13570  0.73040  0.22040  Biso   1.000  H
  H11      1.0000 0.13570  0.76960  0.72040  Biso   1.000  H
  H12      1.0000 0.86430  0.26960  0.77960  Biso   1.000  H
  C17      1.0000 0.34700  0.41260  0.04280  Biso   1.000  C
  C18      1.0000 0.65300  0.91260  0.45720  Biso   1.000  C
  C19      1.0000 0.65300  0.58740  0.95720  Biso   1.000  C
  C20      1.0000 0.34700  0.08740  0.54280  Biso   1.000  C
  C21      1.0000 0.40700  0.41440  0.94300  Biso   1.000  C
  C22      1.0000 0.59300  0.91440  0.55700  Biso   1.000  C
  C23      1.0000 0.59300  0.58560  0.05700  Biso   1.000  C
  C24      1.0000 0.40700  0.08560  0.44300  Biso   1.000  C
  H13      1.0000 0.34290  0.35650  0.90350  Biso   1.000  H
  H14      1.0000 0.65710  0.85650  0.59650  Biso   1.000  H
  H15      1.0000 0.65710  0.64350  0.09650  Biso   1.000  H
  H16      1.0000 0.34290  0.14350  0.40350  Biso   1.000  H
  C25      1.0000 0.44200  0.50090  0.09930  Biso   1.000  C
  C26      1.0000 0.55800  0.00090  0.40070  Biso   1.000  C
  C27      1.0000 0.55800  0.49910  0.90070  Biso   1.000  C
  C28      1.0000 0.44200  0.99910  0.59930  Biso   1.000  C
  H17      1.0000 0.40340  0.50290  0.16620  Biso   1.000  H
  H18      1.0000 0.59660  0.00290  0.33380  Biso   1.000  H
  H19      1.0000 0.59660  0.49710  0.83380  Biso   1.000  H
  H20      1.0000 0.40340  0.99710  0.66620  Biso   1.000  H
