data_image0
_cell_length_a       7.6349
_cell_length_b       8.0203
_cell_length_c       13.9312
_cell_angle_alpha    104.601
_cell_angle_beta     103.993
_cell_angle_gamma    90.123

_symmetry_space_group_name_H-M    "P 1"
_symmetry_int_tables_number       1

loop_
  _symmetry_equiv_pos_as_xyz
  'x, y, z'

loop_
  _atom_site_label
  _atom_site_occupancy
  _atom_site_fract_x
  _atom_site_fract_y
  _atom_site_fract_z
  _atom_site_thermal_displace_type
  _atom_site_B_iso_or_equiv
  _atom_site_type_symbol
  Cu1      1.0000 0.37515  0.41141  0.42032  Biso   1.000  Cu
  Cu2      1.0000 0.62485  0.58859  0.57968  Biso   1.000  Cu
  O1       1.0000 0.52510  0.21630  0.43304  Biso   1.000  O
  O2       1.0000 0.47490  0.78370  0.56696  Biso   1.000  O
  O3       1.0000 0.73190  0.36390  0.57124  Biso   1.000  O
  O4       1.0000 0.26810  0.63610  0.42876  Biso   1.000  O
  O5       1.0000 0.27020  0.37800  0.53109  Biso   1.000  O
  O6       1.0000 0.72980  0.62200  0.46891  Biso   1.000  O
  O7       1.0000 0.47940  0.52810  0.66642  Biso   1.000  O
  O8       1.0000 0.52060  0.47190  0.33358  Biso   1.000  O
  N1       1.0000 0.13140  0.28110  0.30510  Biso   1.000  N
  N2       1.0000 0.86860  0.71890  0.69490  Biso   1.000  N
  N3       1.0000 0.11890  0.27460  0.20707  Biso   1.000  N
  N4       1.0000 0.88110  0.72540  0.79293  Biso   1.000  N
  C1       1.0000 0.96720  0.21050  0.13900  Biso   1.000  C
  C2       1.0000 0.03280  0.78950  0.86100  Biso   1.000  C
  H1       1.0000 0.96030  0.20860  0.07110  Biso   1.000  H
  H2       1.0000 0.03970  0.79140  0.92890  Biso   1.000  H
  C3       1.0000 0.81500  0.14460  0.16050  Biso   1.000  C
  C4       1.0000 0.18500  0.85540  0.83950  Biso   1.000  C
  C5       1.0000 0.83000  0.15860  0.26180  Biso   1.000  C
  C6       1.0000 0.17000  0.84140  0.73820  Biso   1.000  C
  H3       1.0000 0.73420  0.12190  0.28360  Biso   1.000  H
  H4       1.0000 0.26580  0.87810  0.71640  Biso   1.000  H
  C7       1.0000 0.99010  0.22800  0.33100  Biso   1.000  C
  C8       1.0000 0.00990  0.77200  0.66900  Biso   1.000  C
  H5       1.0000 0.99920  0.23820  0.40000  Biso   1.000  H
  H6       1.0000 0.00080  0.76180  0.60000  Biso   1.000  H
  C9       1.0000 0.65290  0.07070  0.07830  Biso   1.000  C
  C10      1.0000 0.34710  0.92930  0.92170  Biso   1.000  C
  C11      1.0000 0.48110  0.11080  0.09030  Biso   1.000  C
  C12      1.0000 0.51890  0.88920  0.90970  Biso   1.000  C
  H7       1.0000 0.46730  0.18530  0.15060  Biso   1.000  H
  H8       1.0000 0.53270  0.81470  0.84940  Biso   1.000  H
  C13      1.0000 0.66780  0.96000  0.98740  Biso   1.000  C
  C14      1.0000 0.33220  0.04000  0.01260  Biso   1.000  C
  H9       1.0000 0.78230  0.93270  0.97860  Biso   1.000  H
  H10      1.0000 0.21770  0.06730  0.02140  Biso   1.000  H
  C15      1.0000 0.66680  0.22840  0.50340  Biso   1.000  C
  C16      1.0000 0.33320  0.77160  0.49660  Biso   1.000  C
  C17      1.0000 0.76410  0.06760  0.50750  Biso   1.000  C
  C18      1.0000 0.23590  0.93240  0.49250  Biso   1.000  C
  H11      1.0000 0.76790  0.00560  0.43940  Biso   1.000  H
  H12      1.0000 0.23210  0.99440  0.56060  Biso   1.000  H
  H13      1.0000 0.88520  0.09780  0.54940  Biso   1.000  H
  H14      1.0000 0.11480  0.90220  0.45060  Biso   1.000  H
  H15      1.0000 0.70160  0.99620  0.53610  Biso   1.000  H
  H16      1.0000 0.29840  0.00380  0.46390  Biso   1.000  H
  C19      1.0000 0.33430  0.43600  0.62570  Biso   1.000  C
  C20      1.0000 0.66570  0.56400  0.37430  Biso   1.000  C
  C21      1.0000 0.23000  0.38950  0.69480  Biso   1.000  C
  C22      1.0000 0.77000  0.61050  0.30520  Biso   1.000  C
  H17      1.0000 0.26440  0.47090  0.76090  Biso   1.000  H
  H18      1.0000 0.73560  0.52910  0.23910  Biso   1.000  H
  H19      1.0000 0.10280  0.39240  0.66580  Biso   1.000  H
  H20      1.0000 0.89720  0.60760  0.33420  Biso   1.000  H
  H21      1.0000 0.25610  0.27560  0.70190  Biso   1.000  H
  H22      1.0000 0.74390  0.72440  0.29810  Biso   1.000  H
  C23      1.0000 0.25780  0.67170  0.17920  Biso   1.000  C
  C24      1.0000 0.74220  0.32830  0.82080  Biso   1.000  C
  H23      1.0000 0.27150  0.58810  0.22070  Biso   1.000  H
  H24      1.0000 0.72850  0.41190  0.77930  Biso   1.000  H
  Cl1      1.0000 0.02744  0.69281  0.13244  Biso   1.000  Cl
  Cl2      1.0000 0.97256  0.30719  0.86756  Biso   1.000  Cl
  Cl3      1.0000 0.35719  0.59579  0.07766  Biso   1.000  Cl
  Cl4      1.0000 0.64281  0.40421  0.92234  Biso   1.000  Cl
  Cl5      1.0000 0.36454  0.87143  0.25682  Biso   1.000  Cl
  Cl6      1.0000 0.63546  0.12857  0.74318  Biso   1.000  Cl
