data_image0
_cell_length_a       16.127
_cell_length_b       5.1535
_cell_length_c       13.405
_cell_angle_alpha    90
_cell_angle_beta     92.76
_cell_angle_gamma    90

_symmetry_space_group_name_H-M    "P 1"
_symmetry_int_tables_number       1

loop_
  _symmetry_equiv_pos_as_xyz
  'x, y, z'

loop_
  _atom_site_label
  _atom_site_occupancy
  _atom_site_fract_x
  _atom_site_fract_y
  _atom_site_fract_z
  _atom_site_thermal_displace_type
  _atom_site_B_iso_or_equiv
  _atom_site_type_symbol
  C1       1.0000 0.63113  0.12320  0.89860  Biso   1.000  C
  C2       1.0000 0.36887  0.12320  0.60140  Biso   1.000  C
  C3       1.0000 0.36887  0.87680  0.10140  Biso   1.000  C
  C4       1.0000 0.63113  0.87680  0.39860  Biso   1.000  C
  C5       1.0000 0.69938  0.12940  0.82720  Biso   1.000  C
  C6       1.0000 0.30062  0.12940  0.67280  Biso   1.000  C
  C7       1.0000 0.30062  0.87060  0.17280  Biso   1.000  C
  C8       1.0000 0.69938  0.87060  0.32720  Biso   1.000  C
  C9       1.0000 0.69767  0.95070  0.74800  Biso   1.000  C
  C10      1.0000 0.30233  0.95070  0.75200  Biso   1.000  C
  C11      1.0000 0.30233  0.04930  0.25200  Biso   1.000  C
  C12      1.0000 0.69767  0.04930  0.24800  Biso   1.000  C
  H1       1.0000 0.65420  0.83240  0.74190  Biso   1.000  H
  H2       1.0000 0.34580  0.83240  0.75810  Biso   1.000  H
  H3       1.0000 0.34580  0.16760  0.25810  Biso   1.000  H
  H4       1.0000 0.65420  0.16760  0.24190  Biso   1.000  H
  C13      1.0000 0.75830  0.94480  0.67900  Biso   1.000  C
  C14      1.0000 0.24170  0.94480  0.82100  Biso   1.000  C
  C15      1.0000 0.24170  0.05520  0.32100  Biso   1.000  C
  C16      1.0000 0.75830  0.05520  0.17900  Biso   1.000  C
  H5       1.0000 0.75540  0.82710  0.62640  Biso   1.000  H
  H6       1.0000 0.24460  0.82710  0.87360  Biso   1.000  H
  H7       1.0000 0.24460  0.17290  0.37360  Biso   1.000  H
  H8       1.0000 0.75540  0.17290  0.12640  Biso   1.000  H
  C17      1.0000 0.82372  0.11760  0.68980  Biso   1.000  C
  C18      1.0000 0.17628  0.11760  0.81020  Biso   1.000  C
  C19      1.0000 0.17628  0.88240  0.31020  Biso   1.000  C
  C20      1.0000 0.82372  0.88240  0.18980  Biso   1.000  C
  H9       1.0000 0.86530  0.11430  0.64410  Biso   1.000  H
  H10      1.0000 0.13470  0.11430  0.85590  Biso   1.000  H
  H11      1.0000 0.13470  0.88570  0.35590  Biso   1.000  H
  H12      1.0000 0.86530  0.88570  0.14410  Biso   1.000  H
  C21      1.0000 0.82859  0.29440  0.76680  Biso   1.000  C
  C22      1.0000 0.17141  0.29440  0.73320  Biso   1.000  C
  C23      1.0000 0.17141  0.70560  0.23320  Biso   1.000  C
  C24      1.0000 0.82859  0.70560  0.26680  Biso   1.000  C
  H13      1.0000 0.87330  0.40830  0.77240  Biso   1.000  H
  H14      1.0000 0.12670  0.40830  0.72760  Biso   1.000  H
  H15      1.0000 0.12670  0.59170  0.22760  Biso   1.000  H
  H16      1.0000 0.87330  0.59170  0.27240  Biso   1.000  H
  C25      1.0000 0.76652  0.30500  0.83760  Biso   1.000  C
  C26      1.0000 0.23348  0.30500  0.66240  Biso   1.000  C
  C27      1.0000 0.23348  0.69500  0.16240  Biso   1.000  C
  C28      1.0000 0.76652  0.69500  0.33760  Biso   1.000  C
  C29      1.0000 0.83674  0.67890  0.92380  Biso   1.000  C
  C30      1.0000 0.16326  0.67890  0.57620  Biso   1.000  C
  C31      1.0000 0.16326  0.32110  0.07620  Biso   1.000  C
  C32      1.0000 0.83674  0.32110  0.42380  Biso   1.000  C
  H17      1.0000 0.81860  0.81260  0.96870  Biso   1.000  H
  H18      1.0000 0.18140  0.81260  0.53130  Biso   1.000  H
  H19      1.0000 0.18140  0.18740  0.03130  Biso   1.000  H
  H20      1.0000 0.81860  0.18740  0.46870  Biso   1.000  H
  H21      1.0000 0.84270  0.75840  0.85900  Biso   1.000  H
  H22      1.0000 0.15730  0.75840  0.64100  Biso   1.000  H
  H23      1.0000 0.15730  0.24160  0.14100  Biso   1.000  H
  H24      1.0000 0.84270  0.24160  0.35900  Biso   1.000  H
  C33      1.0000 0.92123  0.58030  0.96230  Biso   1.000  C
  C34      1.0000 0.07877  0.58030  0.53770  Biso   1.000  C
  C35      1.0000 0.07877  0.41970  0.03770  Biso   1.000  C
  C36      1.0000 0.92123  0.41970  0.46230  Biso   1.000  C
  C37      1.0000 0.92990  0.38420  0.03100  Biso   1.000  C
  C38      1.0000 0.07010  0.38420  0.46900  Biso   1.000  C
  C39      1.0000 0.07010  0.61580  0.96900  Biso   1.000  C
  C40      1.0000 0.92990  0.61580  0.53100  Biso   1.000  C
  H25      1.0000 0.88260  0.30310  0.05300  Biso   1.000  H
  H26      1.0000 0.11740  0.30310  0.44700  Biso   1.000  H
  H27      1.0000 0.11740  0.69690  0.94700  Biso   1.000  H
  H28      1.0000 0.88260  0.69690  0.55300  Biso   1.000  H
  C41      1.0000 0.99260  0.69650  0.93140  Biso   1.000  C
  C42      1.0000 0.00740  0.69650  0.56860  Biso   1.000  C
  C43      1.0000 0.00740  0.30350  0.06860  Biso   1.000  C
  C44      1.0000 0.99260  0.30350  0.43140  Biso   1.000  C
  H29      1.0000 0.98880  0.83030  0.88480  Biso   1.000  H
  H30      1.0000 0.01120  0.83030  0.61520  Biso   1.000  H
  H31      1.0000 0.01120  0.16970  0.11520  Biso   1.000  H
  H32      1.0000 0.98880  0.16970  0.38480  Biso   1.000  H
  Cu1      1.0000 0.50000  0.00000  0.00000  Biso   1.000  Cu
  Cu2      1.0000 0.50000  0.00000  0.50000  Biso   1.000  Cu
  N1       1.0000 0.77292  0.48090  0.91439  Biso   1.000  N
  N2       1.0000 0.22708  0.48090  0.58561  Biso   1.000  N
  N3       1.0000 0.22708  0.51910  0.08561  Biso   1.000  N
  N4       1.0000 0.77292  0.51910  0.41439  Biso   1.000  N
  H33      1.0000 0.73050  0.49130  0.94840  Biso   1.000  H
  H34      1.0000 0.26950  0.49130  0.55160  Biso   1.000  H
  H35      1.0000 0.26950  0.50870  0.05160  Biso   1.000  H
  H36      1.0000 0.73050  0.50870  0.44840  Biso   1.000  H
  O1       1.0000 0.56996  0.74890  0.07956  Biso   1.000  O
  O2       1.0000 0.43004  0.74890  0.42044  Biso   1.000  O
  O3       1.0000 0.43004  0.25110  0.92044  Biso   1.000  O
  O4       1.0000 0.56996  0.25110  0.57956  Biso   1.000  O
  H37      1.0000 0.58680  0.62350  0.04470  Biso   1.000  H
  H38      1.0000 0.41320  0.62350  0.45530  Biso   1.000  H
  H39      1.0000 0.41320  0.37650  0.95530  Biso   1.000  H
  H40      1.0000 0.58680  0.37650  0.54470  Biso   1.000  H
  H41      1.0000 0.54460  0.68640  0.12820  Biso   1.000  H
  H42      1.0000 0.45540  0.68640  0.37180  Biso   1.000  H
  H43      1.0000 0.45540  0.31360  0.87180  Biso   1.000  H
  H44      1.0000 0.54460  0.31360  0.62820  Biso   1.000  H
  O5       1.0000 0.57429  0.95020  0.88572  Biso   1.000  O
  O6       1.0000 0.42571  0.95020  0.61428  Biso   1.000  O
  O7       1.0000 0.42571  0.04980  0.11428  Biso   1.000  O
  O8       1.0000 0.57429  0.04980  0.38572  Biso   1.000  O
  O9       1.0000 0.62970  0.27850  0.97072  Biso   1.000  O
  O10      1.0000 0.37030  0.27850  0.52928  Biso   1.000  O
  O11      1.0000 0.37030  0.72150  0.02928  Biso   1.000  O
  O12      1.0000 0.62970  0.72150  0.47072  Biso   1.000  O
  O13      1.0000 0.50000  0.58110  0.75000  Biso   1.000  O
  O14      1.0000 0.50000  0.41890  0.25000  Biso   1.000  O
  H45      1.0000 0.52840  0.69940  0.77980  Biso   1.000  H
  H46      1.0000 0.47160  0.69940  0.72020  Biso   1.000  H
  H47      1.0000 0.47160  0.30060  0.22020  Biso   1.000  H
  H48      1.0000 0.52840  0.30060  0.27980  Biso   1.000  H
