data_image0
_cell_length_a       8.7708
_cell_length_b       9.6018
_cell_length_c       10.1839
_cell_angle_alpha    73.706
_cell_angle_beta     70.852
_cell_angle_gamma    63.928

_symmetry_space_group_name_H-M    "P 1"
_symmetry_int_tables_number       1

loop_
  _symmetry_equiv_pos_as_xyz
  'x, y, z'

loop_
  _atom_site_label
  _atom_site_occupancy
  _atom_site_fract_x
  _atom_site_fract_y
  _atom_site_fract_z
  _atom_site_thermal_displace_type
  _atom_site_B_iso_or_equiv
  _atom_site_type_symbol
  Br1      1.0000 0.12154  0.22298  0.70734  Biso   1.000  Br
  Br2      1.0000 0.87846  0.77702  0.29266  Biso   1.000  Br
  Br3      1.0000 0.76970  0.19011  0.00202  Biso   1.000  Br
  Br4      1.0000 0.23030  0.80989  0.99798  Biso   1.000  Br
  Br5      1.0000 0.57965  0.99477  0.65263  Biso   1.000  Br
  Br6      1.0000 0.42035  0.00523  0.34737  Biso   1.000  Br
  Cu1      1.0000 0.32811  0.96542  0.64120  Biso   1.000  Cu
  Cu2      1.0000 0.67189  0.03458  0.35880  Biso   1.000  Cu
  Cu3      1.0000 0.96634  0.04405  0.82256  Biso   1.000  Cu
  Cu4      1.0000 0.03366  0.95595  0.17744  Biso   1.000  Cu
  O1       1.0000 0.11010  0.94590  0.65750  Biso   1.000  O
  O2       1.0000 0.88990  0.05410  0.34250  Biso   1.000  O
  O3       1.0000 0.10050  0.78550  0.53023  Biso   1.000  O
  O4       1.0000 0.89950  0.21450  0.46977  Biso   1.000  O
  H1       1.0000 0.00270  0.85130  0.51680  Biso   1.000  H
  H2       1.0000 0.99730  0.14870  0.48320  Biso   1.000  H
  N1       1.0000 0.42030  0.73400  0.65620  Biso   1.000  N
  N2       1.0000 0.57970  0.26600  0.34380  Biso   1.000  N
  C1       1.0000 0.11920  0.79660  0.65880  Biso   1.000  C
  C2       1.0000 0.88080  0.20340  0.34120  Biso   1.000  C
  N3       1.0000 0.88220  0.87190  0.86720  Biso   1.000  N
  N4       1.0000 0.11780  0.12810  0.13280  Biso   1.000  N
  C3       1.0000 0.97170  0.76490  0.77980  Biso   1.000  C
  C4       1.0000 0.02830  0.23510  0.22020  Biso   1.000  C
  C5       1.0000 0.30270  0.67430  0.66830  Biso   1.000  C
  C6       1.0000 0.69730  0.32570  0.33170  Biso   1.000  C
  C7       1.0000 0.35120  0.51410  0.67830  Biso   1.000  C
  C8       1.0000 0.64880  0.48590  0.32170  Biso   1.000  C
  H3       1.0000 0.26700  0.47260  0.68800  Biso   1.000  H
  H4       1.0000 0.73300  0.52740  0.31200  Biso   1.000  H
  C9       1.0000 0.52480  0.41510  0.67390  Biso   1.000  C
  C10      1.0000 0.47520  0.58490  0.32610  Biso   1.000  C
  H5       1.0000 0.56030  0.30510  0.68010  Biso   1.000  H
  H6       1.0000 0.43970  0.69490  0.31990  Biso   1.000  H
  C11      1.0000 0.74600  0.85730  0.97090  Biso   1.000  C
  C12      1.0000 0.25400  0.14270  0.02910  Biso   1.000  C
  H7       1.0000 0.68180  0.93450  0.03100  Biso   1.000  H
  H8       1.0000 0.31820  0.06550  0.96900  Biso   1.000  H
  C13      1.0000 0.58800  0.63750  0.65190  Biso   1.000  C
  C14      1.0000 0.41200  0.36250  0.34810  Biso   1.000  C
  H9       1.0000 0.67020  0.68120  0.64260  Biso   1.000  H
  H10      1.0000 0.32980  0.31880  0.35740  Biso   1.000  H
  C15      1.0000 0.69660  0.73210  0.99240  Biso   1.000  C
  C16      1.0000 0.30340  0.26790  0.00760  Biso   1.000  C
  H11      1.0000 0.60020  0.72320  0.06670  Biso   1.000  H
  H12      1.0000 0.39980  0.27680  0.93330  Biso   1.000  H
  C17      1.0000 0.78970  0.62090  0.90420  Biso   1.000  C
  C18      1.0000 0.21030  0.37910  0.09580  Biso   1.000  C
  H13      1.0000 0.76000  0.53280  0.91870  Biso   1.000  H
  H14      1.0000 0.24000  0.46720  0.08130  Biso   1.000  H
  C19      1.0000 0.64490  0.47670  0.66060  Biso   1.000  C
  C20      1.0000 0.35510  0.52330  0.33940  Biso   1.000  C
  H15      1.0000 0.76410  0.41060  0.65750  Biso   1.000  H
  H16      1.0000 0.23590  0.58940  0.34250  Biso   1.000  H
  C21      1.0000 0.92630  0.63900  0.79480  Biso   1.000  C
  C22      1.0000 0.07370  0.36100  0.20520  Biso   1.000  C
  H17      1.0000 0.98840  0.56610  0.73050  Biso   1.000  H
  H18      1.0000 0.01160  0.43390  0.26950  Biso   1.000  H
