data_image0
_cell_length_a       8.7842
_cell_length_b       9.62
_cell_length_c       10.223
_cell_angle_alpha    73.771
_cell_angle_beta     70.816
_cell_angle_gamma    63.987

_symmetry_space_group_name_H-M    "P 1"
_symmetry_int_tables_number       1

loop_
  _symmetry_equiv_pos_as_xyz
  'x, y, z'

loop_
  _atom_site_label
  _atom_site_occupancy
  _atom_site_fract_x
  _atom_site_fract_y
  _atom_site_fract_z
  _atom_site_thermal_displace_type
  _atom_site_B_iso_or_equiv
  _atom_site_type_symbol
  Cu1      1.0000 0.67209  0.53460  0.85848  Biso   1.000  Cu
  Cu2      1.0000 0.32791  0.46540  0.14152  Biso   1.000  Cu
  Cu3      1.0000 0.03376  0.45585  0.67803  Biso   1.000  Cu
  Cu4      1.0000 0.96624  0.54415  0.32197  Biso   1.000  Cu
  Br1      1.0000 0.57875  0.49545  0.15252  Biso   1.000  Br
  Br2      1.0000 0.42125  0.50455  0.84748  Biso   1.000  Br
  Br3      1.0000 0.87854  0.27736  0.79269  Biso   1.000  Br
  Br4      1.0000 0.12146  0.72264  0.20731  Biso   1.000  Br
  Br5      1.0000 0.23010  0.30964  0.49910  Biso   1.000  Br
  Br6      1.0000 0.76990  0.69036  0.50090  Biso   1.000  Br
  N1       1.0000 0.58020  0.76540  0.84370  Biso   1.000  N
  N2       1.0000 0.41980  0.23460  0.15630  Biso   1.000  N
  N3       1.0000 0.11800  0.62760  0.63310  Biso   1.000  N
  N4       1.0000 0.88200  0.37240  0.36690  Biso   1.000  N
  O1       1.0000 0.88950  0.55460  0.84176  Biso   1.000  O
  O2       1.0000 0.11050  0.44540  0.15824  Biso   1.000  O
  O3       1.0000 0.89940  0.71490  0.96870  Biso   1.000  O
  O4       1.0000 0.10060  0.28510  0.03130  Biso   1.000  O
  C1       1.0000 0.41310  0.86200  0.84720  Biso   1.000  C
  C2       1.0000 0.58690  0.13800  0.15280  Biso   1.000  C
  C3       1.0000 0.35680  0.02210  0.83850  Biso   1.000  C
  C4       1.0000 0.64320  0.97790  0.16150  Biso   1.000  C
  C5       1.0000 0.47630  0.08400  0.82570  Biso   1.000  C
  C6       1.0000 0.52370  0.91600  0.17430  Biso   1.000  C
  C7       1.0000 0.64810  0.98530  0.82120  Biso   1.000  C
  C8       1.0000 0.35190  0.01470  0.17880  Biso   1.000  C
  C9       1.0000 0.69730  0.82570  0.83100  Biso   1.000  C
  C10      1.0000 0.30270  0.17430  0.16900  Biso   1.000  C
  C11      1.0000 0.88140  0.70310  0.84020  Biso   1.000  C
  C12      1.0000 0.11860  0.29690  0.15980  Biso   1.000  C
  C13      1.0000 0.02840  0.73450  0.71970  Biso   1.000  C
  C14      1.0000 0.97160  0.26550  0.28030  Biso   1.000  C
  C15      1.0000 0.07250  0.86130  0.70340  Biso   1.000  C
  C16      1.0000 0.92750  0.13870  0.29660  Biso   1.000  C
  C17      1.0000 0.20950  0.87850  0.59550  Biso   1.000  C
  C18      1.0000 0.79050  0.12150  0.40450  Biso   1.000  C
  C19      1.0000 0.30220  0.76720  0.50830  Biso   1.000  C
  C20      1.0000 0.69780  0.23280  0.49170  Biso   1.000  C
  C21      1.0000 0.25310  0.64350  0.53000  Biso   1.000  C
  C22      1.0000 0.74690  0.35650  0.47000  Biso   1.000  C
  H1       1.0000 0.98200  0.65300  0.98600  Biso   1.000  H
  H2       1.0000 0.01800  0.34700  0.01400  Biso   1.000  H
  H3       1.0000 0.32500  0.81600  0.85900  Biso   1.000  H
  H4       1.0000 0.67500  0.18400  0.14100  Biso   1.000  H
  H5       1.0000 0.24700  0.08200  0.84200  Biso   1.000  H
  H6       1.0000 0.75300  0.91800  0.15800  Biso   1.000  H
  H7       1.0000 0.44500  0.18000  0.82100  Biso   1.000  H
  H8       1.0000 0.55500  0.82000  0.17900  Biso   1.000  H
  H9       1.0000 0.72700  0.02300  0.81700  Biso   1.000  H
  H10      1.0000 0.27300  0.97700  0.18300  Biso   1.000  H
  H11      1.0000 0.02000  0.91900  0.76500  Biso   1.000  H
  H12      1.0000 0.98000  0.08100  0.23500  Biso   1.000  H
  H13      1.0000 0.23700  0.96100  0.58600  Biso   1.000  H
  H14      1.0000 0.76300  0.03900  0.41400  Biso   1.000  H
  H15      1.0000 0.39200  0.77800  0.43100  Biso   1.000  H
  H16      1.0000 0.60800  0.22200  0.56900  Biso   1.000  H
  H17      1.0000 0.31200  0.57200  0.47100  Biso   1.000  H
  H18      1.0000 0.68800  0.42800  0.52900  Biso   1.000  H
