data_image0
_cell_length_a       7.2012
_cell_length_b       10.095
_cell_length_c       11.581
_cell_angle_alpha    69.15
_cell_angle_beta     89.73
_cell_angle_gamma    89.95

_symmetry_space_group_name_H-M    "P 1"
_symmetry_int_tables_number       1

loop_
  _symmetry_equiv_pos_as_xyz
  'x, y, z'

loop_
  _atom_site_label
  _atom_site_occupancy
  _atom_site_fract_x
  _atom_site_fract_y
  _atom_site_fract_z
  _atom_site_thermal_displace_type
  _atom_site_B_iso_or_equiv
  _atom_site_type_symbol
  Cu1      1.0000 0.72893  0.60509  0.61951  Biso   1.000  Cu
  Cu2      1.0000 0.27107  0.39491  0.38049  Biso   1.000  Cu
  C1       1.0000 0.75560  0.99680  0.17370  Biso   1.000  C
  C2       1.0000 0.24440  0.00320  0.82630  Biso   1.000  C
  C3       1.0000 0.76060  0.10620  0.22120  Biso   1.000  C
  C4       1.0000 0.23940  0.89380  0.77880  Biso   1.000  C
  H1       1.0000 0.76750  0.20010  0.16820  Biso   1.000  H
  H2       1.0000 0.23250  0.79990  0.83180  Biso   1.000  H
  C5       1.0000 0.75510  0.07370  0.34700  Biso   1.000  C
  C6       1.0000 0.24490  0.92630  0.65300  Biso   1.000  C
  H3       1.0000 0.75940  0.14750  0.37720  Biso   1.000  H
  H4       1.0000 0.24060  0.85250  0.62280  Biso   1.000  H
  C7       1.0000 0.74340  0.93360  0.43230  Biso   1.000  C
  C8       1.0000 0.25660  0.06640  0.56770  Biso   1.000  C
  C9       1.0000 0.72810  0.82400  0.38250  Biso   1.000  C
  C10      1.0000 0.27190  0.17600  0.61750  Biso   1.000  C
  C11      1.0000 0.73870  0.86200  0.25110  Biso   1.000  C
  C12      1.0000 0.26130  0.13800  0.74890  Biso   1.000  C
  H5       1.0000 0.73370  0.79050  0.21810  Biso   1.000  H
  H6       1.0000 0.26630  0.20950  0.78190  Biso   1.000  H
  C13      1.0000 0.73880  0.91170  0.56460  Biso   1.000  C
  C14      1.0000 0.26120  0.08830  0.43540  Biso   1.000  C
  C15      1.0000 0.75160  0.03770  0.60510  Biso   1.000  C
  C16      1.0000 0.24840  0.96230  0.39490  Biso   1.000  C
  H7       1.0000 0.65180  0.03420  0.66140  Biso   1.000  H
  H8       1.0000 0.34820  0.96580  0.33860  Biso   1.000  H
  H9       1.0000 0.74280  0.12350  0.53420  Biso   1.000  H
  H10      1.0000 0.25720  0.87650  0.46580  Biso   1.000  H
  H11      1.0000 0.86820  0.03570  0.64550  Biso   1.000  H
  H12      1.0000 0.13180  0.96430  0.35450  Biso   1.000  H
  C17      1.0000 0.73030  0.76150  0.78210  Biso   1.000  C
  C18      1.0000 0.26970  0.23850  0.21790  Biso   1.000  C
  H13      1.0000 0.65460  0.83070  0.80110  Biso   1.000  H
  H14      1.0000 0.34540  0.16930  0.19890  Biso   1.000  H
  H15      1.0000 0.85770  0.77160  0.80460  Biso   1.000  H
  H16      1.0000 0.14230  0.22840  0.19540  Biso   1.000  H
  C19      1.0000 0.65980  0.61170  0.85350  Biso   1.000  C
  C20      1.0000 0.34020  0.38830  0.14650  Biso   1.000  C
  H17      1.0000 0.68950  0.58500  0.94040  Biso   1.000  H
  H18      1.0000 0.31050  0.41500  0.05960  Biso   1.000  H
  H19      1.0000 0.52600  0.60790  0.84560  Biso   1.000  H
  H20      1.0000 0.47400  0.39210  0.15440  Biso   1.000  H
  C21      1.0000 0.67720  0.37100  0.84050  Biso   1.000  C
  C22      1.0000 0.32280  0.62900  0.15950  Biso   1.000  C
  H21      1.0000 0.54260  0.37190  0.84410  Biso   1.000  H
  H22      1.0000 0.45740  0.62810  0.15590  Biso   1.000  H
  H23      1.0000 0.72330  0.31520  0.92190  Biso   1.000  H
  H24      1.0000 0.27670  0.68480  0.07810  Biso   1.000  H
  C23      1.0000 0.74060  0.30680  0.74740  Biso   1.000  C
  C24      1.0000 0.25940  0.69320  0.25260  Biso   1.000  C
  H25      1.0000 0.87290  0.28810  0.75570  Biso   1.000  H
  H26      1.0000 0.12710  0.71190  0.24430  Biso   1.000  H
  H27      1.0000 0.67660  0.21770  0.76200  Biso   1.000  H
  H28      1.0000 0.32340  0.78230  0.23800  Biso   1.000  H
  N1       1.0000 0.71870  0.78440  0.64770  Biso   1.000  N
  N2       1.0000 0.28130  0.21560  0.35230  Biso   1.000  N
  N3       1.0000 0.74850  0.51470  0.80290  Biso   1.000  N
  N4       1.0000 0.25150  0.48530  0.19710  Biso   1.000  N
  H29      1.0000 0.87100  0.51700  0.81600  Biso   1.000  H
  H30      1.0000 0.12900  0.48300  0.18400  Biso   1.000  H
  N5       1.0000 0.20050  0.55700  0.68660  Biso   1.000  N
  N6       1.0000 0.79950  0.44300  0.31340  Biso   1.000  N
  N7       1.0000 0.69910  0.40700  0.62140  Biso   1.000  N
  N8       1.0000 0.30090  0.59300  0.37860  Biso   1.000  N
  H31      1.0000 0.58220  0.39370  0.60060  Biso   1.000  H
  H32      1.0000 0.41780  0.60630  0.39940  Biso   1.000  H
  H33      1.0000 0.77730  0.39210  0.56640  Biso   1.000  H
  H34      1.0000 0.22270  0.60790  0.43360  Biso   1.000  H
  O1       1.0000 0.75930  0.03870  0.04930  Biso   1.000  O
  O2       1.0000 0.24070  0.96130  0.95070  Biso   1.000  O
  O3       1.0000 0.71290  0.69140  0.44680  Biso   1.000  O
  O4       1.0000 0.28710  0.30860  0.55320  Biso   1.000  O
  O5       1.0000 0.08050  0.59390  0.61460  Biso   1.000  O
  O6       1.0000 0.91950  0.40610  0.38540  Biso   1.000  O
  O7       1.0000 0.36040  0.58710  0.65190  Biso   1.000  O
  O8       1.0000 0.63960  0.41290  0.34810  Biso   1.000  O
  O9       1.0000 0.16560  0.49350  0.79840  Biso   1.000  O
  O10      1.0000 0.83440  0.50650  0.20160  Biso   1.000  O
  C25      1.0000 0.74760  0.93030  0.99460  Biso   1.000  C
  C26      1.0000 0.25240  0.06970  0.00540  Biso   1.000  C
  H35      1.0000 0.85180  0.86740  0.02060  Biso   1.000  H
  H36      1.0000 0.14820  0.13260  0.97940  Biso   1.000  H
  H37      1.0000 0.74880  0.97410  0.90620  Biso   1.000  H
  H38      1.0000 0.25120  0.02590  0.09380  Biso   1.000  H
  H39      1.0000 0.63460  0.87760  0.02070  Biso   1.000  H
  H40      1.0000 0.36540  0.12240  0.97930  Biso   1.000  H
