data_image0
_cell_length_a       10.023
_cell_length_b       11.708
_cell_length_c       16.219
_cell_angle_alpha    97.22
_cell_angle_beta     107.05
_cell_angle_gamma    105

_symmetry_space_group_name_H-M    "P 1"
_symmetry_int_tables_number       1

loop_
  _symmetry_equiv_pos_as_xyz
  'x, y, z'

loop_
  _atom_site_label
  _atom_site_occupancy
  _atom_site_fract_x
  _atom_site_fract_y
  _atom_site_fract_z
  _atom_site_thermal_displace_type
  _atom_site_B_iso_or_equiv
  _atom_site_type_symbol
  Cu1      1.0000 0.90729  0.04270  0.21869  Biso   1.000  Cu
  Cu2      1.0000 0.09271  0.95730  0.78131  Biso   1.000  Cu
  C1       1.0000 0.69750  0.00190  0.31520  Biso   1.000  C
  C2       1.0000 0.30250  0.99810  0.68480  Biso   1.000  C
  C3       1.0000 0.78560  0.93710  0.37060  Biso   1.000  C
  C4       1.0000 0.21440  0.06290  0.62940  Biso   1.000  C
  C5       1.0000 0.91190  0.91220  0.35930  Biso   1.000  C
  C6       1.0000 0.08810  0.08780  0.64070  Biso   1.000  C
  C7       1.0000 0.97880  0.84400  0.41700  Biso   1.000  C
  C8       1.0000 0.02120  0.15600  0.58300  Biso   1.000  C
  C9       1.0000 0.09840  0.80960  0.40730  Biso   1.000  C
  C10      1.0000 0.90160  0.19040  0.59270  Biso   1.000  C
  H1       1.0000 0.13680  0.83310  0.36420  Biso   1.000  H
  H2       1.0000 0.86320  0.16690  0.63580  Biso   1.000  H
  C11      1.0000 0.15800  0.74310  0.46010  Biso   1.000  C
  C12      1.0000 0.84200  0.25690  0.53990  Biso   1.000  C
  C13      1.0000 0.11200  0.70820  0.53070  Biso   1.000  C
  C14      1.0000 0.88800  0.29180  0.46930  Biso   1.000  C
  C15      1.0000 0.99520  0.74430  0.54070  Biso   1.000  C
  C16      1.0000 0.00480  0.25570  0.45930  Biso   1.000  C
  H3       1.0000 0.96170  0.72520  0.58660  Biso   1.000  H
  H4       1.0000 0.03830  0.27480  0.41340  Biso   1.000  H
  C17      1.0000 0.92620  0.80830  0.48420  Biso   1.000  C
  C18      1.0000 0.07380  0.19170  0.51580  Biso   1.000  C
  C19      1.0000 0.74050  0.90000  0.43760  Biso   1.000  C
  C20      1.0000 0.25950  0.10000  0.56240  Biso   1.000  C
  H5       1.0000 0.65900  0.91810  0.44480  Biso   1.000  H
  H6       1.0000 0.34100  0.08190  0.55520  Biso   1.000  H
  C21      1.0000 0.74150  0.80430  0.56140  Biso   1.000  C
  C22      1.0000 0.25850  0.19570  0.43860  Biso   1.000  C
  H7       1.0000 0.68050  0.85410  0.56930  Biso   1.000  H
  H8       1.0000 0.31950  0.14590  0.43070  Biso   1.000  H
  H9       1.0000 0.82030  0.81990  0.61720  Biso   1.000  H
  H10      1.0000 0.17970  0.18010  0.38280  Biso   1.000  H
  C23      1.0000 0.65110  0.67340  0.53760  Biso   1.000  C
  C24      1.0000 0.34890  0.32660  0.46240  Biso   1.000  C
  H11      1.0000 0.57170  0.65780  0.48300  Biso   1.000  H
  H12      1.0000 0.42830  0.34220  0.51700  Biso   1.000  H
  H13      1.0000 0.61220  0.65480  0.58350  Biso   1.000  H
  H14      1.0000 0.38780  0.34520  0.41650  Biso   1.000  H
  H15      1.0000 0.71150  0.62370  0.53090  Biso   1.000  H
  H16      1.0000 0.28850  0.37630  0.46910  Biso   1.000  H
  C25      1.0000 0.33880  0.68810  0.62690  Biso   1.000  C
  C26      1.0000 0.66120  0.31190  0.37310  Biso   1.000  C
  H17      1.0000 0.36260  0.75750  0.67420  Biso   1.000  H
  H18      1.0000 0.63740  0.24250  0.32580  Biso   1.000  H
  H19      1.0000 0.38450  0.71490  0.58470  Biso   1.000  H
  H20      1.0000 0.61550  0.28510  0.41530  Biso   1.000  H
  C27      1.0000 0.39800  0.59160  0.66420  Biso   1.000  C
  C28      1.0000 0.60200  0.40840  0.33580  Biso   1.000  C
  H21      1.0000 0.38190  0.52610  0.61570  Biso   1.000  H
  H22      1.0000 0.61810  0.47390  0.38430  Biso   1.000  H
  H23      1.0000 0.50310  0.62620  0.69440  Biso   1.000  H
  H24      1.0000 0.49690  0.37380  0.30560  Biso   1.000  H
  C29      1.0000 0.17170  0.49820  0.68190  Biso   1.000  C
  C30      1.0000 0.82830  0.50180  0.31810  Biso   1.000  C
  H25      1.0000 0.12670  0.47090  0.72440  Biso   1.000  H
  H26      1.0000 0.87330  0.52910  0.27560  Biso   1.000  H
  H27      1.0000 0.14740  0.42850  0.63480  Biso   1.000  H
  H28      1.0000 0.85260  0.57150  0.36520  Biso   1.000  H
  C31      1.0000 0.10550  0.59020  0.64370  Biso   1.000  C
  C32      1.0000 0.89450  0.40980  0.35630  Biso   1.000  C
  H29      1.0000 0.00110  0.55240  0.61240  Biso   1.000  H
  H30      1.0000 0.99890  0.44760  0.38760  Biso   1.000  H
  H31      1.0000 0.11800  0.65580  0.69100  Biso   1.000  H
  H32      1.0000 0.88200  0.34420  0.30900  Biso   1.000  H
  C33      1.0000 0.18460  0.16720  0.19650  Biso   1.000  C
  C34      1.0000 0.81540  0.83280  0.80350  Biso   1.000  C
  C35      1.0000 0.12480  0.26820  0.17210  Biso   1.000  C
  C36      1.0000 0.87520  0.73180  0.82790  Biso   1.000  C
  C37      1.0000 0.97420  0.26130  0.15320  Biso   1.000  C
  C38      1.0000 0.02580  0.73870  0.84680  Biso   1.000  C
  C39      1.0000 0.93560  0.36450  0.12620  Biso   1.000  C
  C40      1.0000 0.06440  0.63550  0.87380  Biso   1.000  C
  C41      1.0000 0.78790  0.36130  0.10070  Biso   1.000  C
  C42      1.0000 0.21210  0.63870  0.89930  Biso   1.000  C
  H33      1.0000 0.71490  0.29120  0.09730  Biso   1.000  H
  H34      1.0000 0.28510  0.70880  0.90270  Biso   1.000  H
  C43      1.0000 0.75270  0.46100  0.08110  Biso   1.000  C
  C44      1.0000 0.24730  0.53900  0.91890  Biso   1.000  C
  C45      1.0000 0.85750  0.57320  0.09000  Biso   1.000  C
  C46      1.0000 0.14250  0.42680  0.91000  Biso   1.000  C
  C47      1.0000 0.00260  0.57480  0.11130  Biso   1.000  C
  C48      1.0000 0.99740  0.42520  0.88870  Biso   1.000  C
  H35      1.0000 0.07490  0.64560  0.11520  Biso   1.000  H
  H36      1.0000 0.92510  0.35440  0.88480  Biso   1.000  H
  C49      1.0000 0.04140  0.47030  0.12690  Biso   1.000  C
  C50      1.0000 0.95860  0.52970  0.87310  Biso   1.000  C
  C51      1.0000 0.22120  0.37120  0.16610  Biso   1.000  C
  C52      1.0000 0.77880  0.62880  0.83390  Biso   1.000  C
  H37      1.0000 0.31800  0.37260  0.17670  Biso   1.000  H
  H38      1.0000 0.68200  0.62740  0.82330  Biso   1.000  H
  C53      1.0000 0.37800  0.65500  0.24440  Biso   1.000  C
  C54      1.0000 0.62200  0.34500  0.75560  Biso   1.000  C
  H39      1.0000 0.30500  0.68090  0.26180  Biso   1.000  H
  H40      1.0000 0.69500  0.31910  0.73820  Biso   1.000  H
  H41      1.0000 0.45520  0.72470  0.24590  Biso   1.000  H
  H42      1.0000 0.54480  0.27530  0.75410  Biso   1.000  H
  H43      1.0000 0.41790  0.60880  0.28440  Biso   1.000  H
  H44      1.0000 0.58210  0.39120  0.71560  Biso   1.000  H
  C55      1.0000 0.30880  0.57750  0.15180  Biso   1.000  C
  C56      1.0000 0.69120  0.42250  0.84820  Biso   1.000  C
  H45      1.0000 0.27170  0.62520  0.11120  Biso   1.000  H
  H46      1.0000 0.72830  0.37480  0.88880  Biso   1.000  H
  H47      1.0000 0.38260  0.55110  0.13440  Biso   1.000  H
  H48      1.0000 0.61740  0.44890  0.86560  Biso   1.000  H
  C57      1.0000 0.72510  0.70810  0.12760  Biso   1.000  C
  C58      1.0000 0.27490  0.29190  0.87240  Biso   1.000  C
  H49      1.0000 0.78850  0.74240  0.18850  Biso   1.000  H
  H50      1.0000 0.21150  0.25760  0.81150  Biso   1.000  H
  H51      1.0000 0.64950  0.63620  0.12650  Biso   1.000  H
  H52      1.0000 0.35050  0.36380  0.87350  Biso   1.000  H
  C59      1.0000 0.65510  0.79870  0.09150  Biso   1.000  C
  C60      1.0000 0.34490  0.20130  0.90850  Biso   1.000  C
  H53      1.0000 0.58730  0.76270  0.03170  Biso   1.000  H
  H54      1.0000 0.41270  0.23730  0.96830  Biso   1.000  H
  H55      1.0000 0.60010  0.82120  0.12750  Biso   1.000  H
  H56      1.0000 0.39990  0.17880  0.87250  Biso   1.000  H
  C61      1.0000 0.84980  0.87200  0.03590  Biso   1.000  C
  C62      1.0000 0.15020  0.12800  0.96410  Biso   1.000  C
  H57      1.0000 0.92400  0.94300  0.03440  Biso   1.000  H
  H58      1.0000 0.07600  0.05700  0.96560  Biso   1.000  H
  H59      1.0000 0.78290  0.83600  0.97600  Biso   1.000  H
  H60      1.0000 0.21710  0.16400  0.02400  Biso   1.000  H
  C63      1.0000 0.92250  0.78180  0.07190  Biso   1.000  C
  C64      1.0000 0.07750  0.21820  0.92810  Biso   1.000  C
  H61      1.0000 0.97560  0.75890  0.03480  Biso   1.000  H
  H62      1.0000 0.02440  0.24110  0.96520  Biso   1.000  H
  H63      1.0000 0.99230  0.81880  0.13100  Biso   1.000  H
  H64      1.0000 0.00770  0.18120  0.86900  Biso   1.000  H
  F1       1.0000 0.26440  0.70230  0.44330  Biso   1.000  F
  F2       1.0000 0.73560  0.29770  0.55670  Biso   1.000  F
  F3       1.0000 0.60770  0.45240  0.05141  Biso   1.000  F
  F4       1.0000 0.39230  0.54760  0.94859  Biso   1.000  F
  N1       1.0000 0.80500  0.83950  0.49350  Biso   1.000  N
  N2       1.0000 0.19500  0.16050  0.50650  Biso   1.000  N
  N3       1.0000 0.17670  0.63890  0.58270  Biso   1.000  N
  N4       1.0000 0.82330  0.36110  0.41730  Biso   1.000  N
  N5       1.0000 0.33010  0.54250  0.72520  Biso   1.000  N
  N6       1.0000 0.66990  0.45750  0.27480  Biso   1.000  N
  H65      1.0000 0.37510  0.55900  0.78420  Biso   1.000  H
  H66      1.0000 0.62490  0.44100  0.21580  Biso   1.000  H
  N7       1.0000 0.18670  0.46990  0.14620  Biso   1.000  N
  N8       1.0000 0.81330  0.53010  0.85380  Biso   1.000  N
  N9       1.0000 0.81240  0.67430  0.07450  Biso   1.000  N
  N10      1.0000 0.18760  0.32570  0.92550  Biso   1.000  N
  N11      1.0000 0.76900  0.90810  0.09110  Biso   1.000  N
  N12      1.0000 0.23100  0.09190  0.90890  Biso   1.000  N
  H67      1.0000 0.72300  0.97470  0.06900  Biso   1.000  H
  H68      1.0000 0.27700  0.02530  0.93100  Biso   1.000  H
  O1       1.0000 0.74120  0.04690  0.25580  Biso   1.000  O
  O2       1.0000 0.25880  0.95310  0.74420  Biso   1.000  O
  O3       1.0000 0.58650  0.01200  0.32910  Biso   1.000  O
  O4       1.0000 0.41350  0.98800  0.67090  Biso   1.000  O
  O5       1.0000 0.96940  0.94610  0.30210  Biso   1.000  O
  O6       1.0000 0.03060  0.05390  0.69790  Biso   1.000  O
  O7       1.0000 0.10270  0.07460  0.21050  Biso   1.000  O
  O8       1.0000 0.89730  0.92540  0.78950  Biso   1.000  O
  O9       1.0000 0.87530  0.17420  0.16030  Biso   1.000  O
  O10      1.0000 0.12470  0.82580  0.83970  Biso   1.000  O
  O11      1.0000 0.31390  0.17960  0.20320  Biso   1.000  O
  O12      1.0000 0.68610  0.82040  0.79680  Biso   1.000  O
  O13      1.0000 0.28030  0.92490  0.27130  Biso   1.000  O
  O14      1.0000 0.71970  0.07510  0.72870  Biso   1.000  O
  H69      1.0000 0.30900  0.97400  0.31900  Biso   1.000  H
  H70      1.0000 0.69100  0.02600  0.68100  Biso   1.000  H
  H71      1.0000 0.24000  0.85500  0.27400  Biso   1.000  H
  H72      1.0000 0.76000  0.14500  0.72600  Biso   1.000  H
  O15      1.0000 0.53500  0.14030  0.14440  Biso   1.000  O
  O16      1.0000 0.46500  0.85970  0.85560  Biso   1.000  O
  H73      1.0000 0.47200  0.06900  0.13800  Biso   1.000  H
  H74      1.0000 0.52800  0.93100  0.86200  Biso   1.000  H
  H75      1.0000 0.61500  0.14300  0.18000  Biso   1.000  H
  H76      1.0000 0.38500  0.85700  0.82000  Biso   1.000  H
  O17      1.0000 0.27050  0.83030  0.09350  Biso   1.000  O
  O18      1.0000 0.72950  0.16970  0.90650  Biso   1.000  O
  H77      1.0000 0.35100  0.81900  0.10000  Biso   1.000  H
  H78      1.0000 0.64900  0.18100  0.90000  Biso   1.000  H
  H79      1.0000 0.26500  0.88800  0.06200  Biso   1.000  H
  H80      1.0000 0.73500  0.11200  0.93800  Biso   1.000  H
  O19      1.0000 0.43760  0.96060  0.01020  Biso   1.000  O
  O20      1.0000 0.56240  0.03940  0.98980  Biso   1.000  O
  H81      1.0000 0.36500  0.90300  0.00600  Biso   1.000  H
  H82      1.0000 0.63500  0.09700  0.99400  Biso   1.000  H
  H83      1.0000 0.47300  0.00800  0.05900  Biso   1.000  H
  H84      1.0000 0.52700  0.99200  0.94100  Biso   1.000  H
