data_image0
_cell_length_a       22.161
_cell_length_b       10.334
_cell_length_c       14.366
_cell_angle_alpha    90
_cell_angle_beta     126.375
_cell_angle_gamma    90

_symmetry_space_group_name_H-M    "P 1"
_symmetry_int_tables_number       1

loop_
  _symmetry_equiv_pos_as_xyz
  'x, y, z'

loop_
  _atom_site_label
  _atom_site_occupancy
  _atom_site_fract_x
  _atom_site_fract_y
  _atom_site_fract_z
  _atom_site_thermal_displace_type
  _atom_site_B_iso_or_equiv
  _atom_site_type_symbol
  C1       1.0000 0.43494  0.56670  0.87357  Biso   1.000  C
  C2       1.0000 0.93494  0.06670  0.87357  Biso   1.000  C
  C3       1.0000 0.56506  0.56670  0.62643  Biso   1.000  C
  C4       1.0000 0.06506  0.06670  0.62643  Biso   1.000  C
  C5       1.0000 0.56506  0.43330  0.12643  Biso   1.000  C
  C6       1.0000 0.06506  0.93330  0.12643  Biso   1.000  C
  C7       1.0000 0.43494  0.43330  0.37357  Biso   1.000  C
  C8       1.0000 0.93494  0.93330  0.37357  Biso   1.000  C
  H1       1.0000 0.43870  0.48020  0.86000  Biso   1.000  H
  H2       1.0000 0.93870  0.98020  0.86000  Biso   1.000  H
  H3       1.0000 0.56130  0.48020  0.64000  Biso   1.000  H
  H4       1.0000 0.06130  0.98020  0.64000  Biso   1.000  H
  H5       1.0000 0.56130  0.51980  0.14000  Biso   1.000  H
  H6       1.0000 0.06130  0.01980  0.14000  Biso   1.000  H
  H7       1.0000 0.43870  0.51980  0.36000  Biso   1.000  H
  H8       1.0000 0.93870  0.01980  0.36000  Biso   1.000  H
  C9       1.0000 0.40800  0.61080  0.93100  Biso   1.000  C
  C10      1.0000 0.90800  0.11080  0.93100  Biso   1.000  C
  C11      1.0000 0.59200  0.61080  0.56900  Biso   1.000  C
  C12      1.0000 0.09200  0.11080  0.56900  Biso   1.000  C
  C13      1.0000 0.59200  0.38920  0.06900  Biso   1.000  C
  C14      1.0000 0.09200  0.88920  0.06900  Biso   1.000  C
  C15      1.0000 0.40800  0.38920  0.43100  Biso   1.000  C
  C16      1.0000 0.90800  0.88920  0.43100  Biso   1.000  C
  H9       1.0000 0.39010  0.56110  0.96380  Biso   1.000  H
  H10      1.0000 0.89010  0.06110  0.96380  Biso   1.000  H
  H11      1.0000 0.60990  0.56110  0.53620  Biso   1.000  H
  H12      1.0000 0.10990  0.06110  0.53620  Biso   1.000  H
  H13      1.0000 0.60990  0.43890  0.03620  Biso   1.000  H
  H14      1.0000 0.10990  0.93890  0.03620  Biso   1.000  H
  H15      1.0000 0.39010  0.43890  0.46380  Biso   1.000  H
  H16      1.0000 0.89010  0.93890  0.46380  Biso   1.000  H
  C17      1.0000 0.44106  0.77490  0.87476  Biso   1.000  C
  C18      1.0000 0.94106  0.27490  0.87476  Biso   1.000  C
  C19      1.0000 0.55894  0.77490  0.62524  Biso   1.000  C
  C20      1.0000 0.05894  0.27490  0.62524  Biso   1.000  C
  C21      1.0000 0.55894  0.22510  0.12524  Biso   1.000  C
  C22      1.0000 0.05894  0.72510  0.12524  Biso   1.000  C
  C23      1.0000 0.44106  0.22510  0.37476  Biso   1.000  C
  C24      1.0000 0.94106  0.72510  0.37476  Biso   1.000  C
  H17      1.0000 0.44950  0.85930  0.86270  Biso   1.000  H
  H18      1.0000 0.94950  0.35930  0.86270  Biso   1.000  H
  H19      1.0000 0.55050  0.85930  0.63730  Biso   1.000  H
  H20      1.0000 0.05050  0.35930  0.63730  Biso   1.000  H
  H21      1.0000 0.55050  0.14070  0.13730  Biso   1.000  H
  H22      1.0000 0.05050  0.64070  0.13730  Biso   1.000  H
  H23      1.0000 0.44950  0.14070  0.36270  Biso   1.000  H
  H24      1.0000 0.94950  0.64070  0.36270  Biso   1.000  H
  C25      1.0000 0.38590  0.83270  0.97870  Biso   1.000  C
  C26      1.0000 0.88590  0.33270  0.97870  Biso   1.000  C
  C27      1.0000 0.61410  0.83270  0.52130  Biso   1.000  C
  C28      1.0000 0.11410  0.33270  0.52130  Biso   1.000  C
  C29      1.0000 0.61410  0.16730  0.02130  Biso   1.000  C
  C30      1.0000 0.11410  0.66730  0.02130  Biso   1.000  C
  C31      1.0000 0.38590  0.16730  0.47870  Biso   1.000  C
  C32      1.0000 0.88590  0.66730  0.47870  Biso   1.000  C
  H25      1.0000 0.40390  0.91900  0.98070  Biso   1.000  H
  H26      1.0000 0.90390  0.41900  0.98070  Biso   1.000  H
  H27      1.0000 0.59610  0.91900  0.51930  Biso   1.000  H
  H28      1.0000 0.09610  0.41900  0.51930  Biso   1.000  H
  H29      1.0000 0.59610  0.08100  0.01930  Biso   1.000  H
  H30      1.0000 0.09610  0.58100  0.01930  Biso   1.000  H
  H31      1.0000 0.40390  0.08100  0.48070  Biso   1.000  H
  H32      1.0000 0.90390  0.58100  0.48070  Biso   1.000  H
  H33      1.0000 0.40690  0.80780  0.05760  Biso   1.000  H
  H34      1.0000 0.90690  0.30780  0.05760  Biso   1.000  H
  H35      1.0000 0.59310  0.80780  0.44240  Biso   1.000  H
  H36      1.0000 0.09310  0.30780  0.44240  Biso   1.000  H
  H37      1.0000 0.59310  0.19220  0.94240  Biso   1.000  H
  H38      1.0000 0.09310  0.69220  0.94240  Biso   1.000  H
  H39      1.0000 0.40690  0.19220  0.55760  Biso   1.000  H
  H40      1.0000 0.90690  0.69220  0.55760  Biso   1.000  H
  C33      1.0000 0.30100  0.83550  0.90860  Biso   1.000  C
  C34      1.0000 0.80100  0.33550  0.90860  Biso   1.000  C
  C35      1.0000 0.69900  0.83550  0.59140  Biso   1.000  C
  C36      1.0000 0.19900  0.33550  0.59140  Biso   1.000  C
  C37      1.0000 0.69900  0.16450  0.09140  Biso   1.000  C
  C38      1.0000 0.19900  0.66450  0.09140  Biso   1.000  C
  C39      1.0000 0.30100  0.16450  0.40860  Biso   1.000  C
  C40      1.0000 0.80100  0.66450  0.40860  Biso   1.000  C
  H41      1.0000 0.28720  0.89260  0.94670  Biso   1.000  H
  H42      1.0000 0.78720  0.39260  0.94670  Biso   1.000  H
  H43      1.0000 0.71280  0.89260  0.55330  Biso   1.000  H
  H44      1.0000 0.21280  0.39260  0.55330  Biso   1.000  H
  H45      1.0000 0.71280  0.10740  0.05330  Biso   1.000  H
  H46      1.0000 0.21280  0.60740  0.05330  Biso   1.000  H
  H47      1.0000 0.28720  0.10740  0.44670  Biso   1.000  H
  H48      1.0000 0.78720  0.60740  0.44670  Biso   1.000  H
  H49      1.0000 0.28360  0.74930  0.90840  Biso   1.000  H
  H50      1.0000 0.78360  0.24930  0.90840  Biso   1.000  H
  H51      1.0000 0.71640  0.74930  0.59160  Biso   1.000  H
  H52      1.0000 0.21640  0.24930  0.59160  Biso   1.000  H
  H53      1.0000 0.71640  0.25070  0.09160  Biso   1.000  H
  H54      1.0000 0.21640  0.75070  0.09160  Biso   1.000  H
  H55      1.0000 0.28360  0.25070  0.40840  Biso   1.000  H
  H56      1.0000 0.78360  0.75070  0.40840  Biso   1.000  H
  C41      1.0000 0.26042  0.88030  0.78300  Biso   1.000  C
  C42      1.0000 0.76042  0.38030  0.78300  Biso   1.000  C
  C43      1.0000 0.73958  0.88030  0.71700  Biso   1.000  C
  C44      1.0000 0.23958  0.38030  0.71700  Biso   1.000  C
  C45      1.0000 0.73958  0.11970  0.21700  Biso   1.000  C
  C46      1.0000 0.23958  0.61970  0.21700  Biso   1.000  C
  C47      1.0000 0.26042  0.11970  0.28300  Biso   1.000  C
  C48      1.0000 0.76042  0.61970  0.28300  Biso   1.000  C
  H57      1.0000 0.21280  0.91860  0.75690  Biso   1.000  H
  H58      1.0000 0.71280  0.41860  0.75690  Biso   1.000  H
  H59      1.0000 0.78720  0.91860  0.74310  Biso   1.000  H
  H60      1.0000 0.28720  0.41860  0.74310  Biso   1.000  H
  H61      1.0000 0.78720  0.08140  0.24310  Biso   1.000  H
  H62      1.0000 0.28720  0.58140  0.24310  Biso   1.000  H
  H63      1.0000 0.21280  0.08140  0.25690  Biso   1.000  H
  H64      1.0000 0.71280  0.58140  0.25690  Biso   1.000  H
  H65      1.0000 0.29020  0.94700  0.78040  Biso   1.000  H
  H66      1.0000 0.79020  0.44700  0.78040  Biso   1.000  H
  H67      1.0000 0.70980  0.94700  0.71960  Biso   1.000  H
  H68      1.0000 0.20980  0.44700  0.71960  Biso   1.000  H
  H69      1.0000 0.70980  0.05300  0.21960  Biso   1.000  H
  H70      1.0000 0.20980  0.55300  0.21960  Biso   1.000  H
  H71      1.0000 0.29020  0.05300  0.28040  Biso   1.000  H
  H72      1.0000 0.79020  0.55300  0.28040  Biso   1.000  H
  C49      1.0000 0.24623  0.77300  0.70083  Biso   1.000  C
  C50      1.0000 0.74623  0.27300  0.70083  Biso   1.000  C
  C51      1.0000 0.75377  0.77300  0.79917  Biso   1.000  C
  C52      1.0000 0.25377  0.27300  0.79917  Biso   1.000  C
  C53      1.0000 0.75377  0.22700  0.29917  Biso   1.000  C
  C54      1.0000 0.25377  0.72700  0.29917  Biso   1.000  C
  C55      1.0000 0.24623  0.22700  0.20083  Biso   1.000  C
  C56      1.0000 0.74623  0.72700  0.20083  Biso   1.000  C
  H73      1.0000 0.29380  0.74050  0.72140  Biso   1.000  H
  H74      1.0000 0.79380  0.24050  0.72140  Biso   1.000  H
  H75      1.0000 0.70620  0.74050  0.77860  Biso   1.000  H
  H76      1.0000 0.20620  0.24050  0.77860  Biso   1.000  H
  H77      1.0000 0.70620  0.25950  0.27860  Biso   1.000  H
  H78      1.0000 0.20620  0.75950  0.27860  Biso   1.000  H
  H79      1.0000 0.29380  0.25950  0.22140  Biso   1.000  H
  H80      1.0000 0.79380  0.75950  0.22140  Biso   1.000  H
  H81      1.0000 0.22050  0.70230  0.70820  Biso   1.000  H
  H82      1.0000 0.72050  0.20230  0.70820  Biso   1.000  H
  H83      1.0000 0.77950  0.70230  0.79180  Biso   1.000  H
  H84      1.0000 0.27950  0.20230  0.79180  Biso   1.000  H
  H85      1.0000 0.77950  0.29770  0.29180  Biso   1.000  H
  H86      1.0000 0.27950  0.79770  0.29180  Biso   1.000  H
  H87      1.0000 0.22050  0.29770  0.20820  Biso   1.000  H
  H88      1.0000 0.72050  0.79770  0.20820  Biso   1.000  H
  C57      1.0000 0.22282  0.90380  0.53300  Biso   1.000  C
  C58      1.0000 0.72282  0.40380  0.53300  Biso   1.000  C
  C59      1.0000 0.77718  0.90380  0.96700  Biso   1.000  C
  C60      1.0000 0.27718  0.40380  0.96700  Biso   1.000  C
  C61      1.0000 0.77718  0.09620  0.46700  Biso   1.000  C
  C62      1.0000 0.27718  0.59620  0.46700  Biso   1.000  C
  C63      1.0000 0.22282  0.09620  0.03300  Biso   1.000  C
  C64      1.0000 0.72282  0.59620  0.03300  Biso   1.000  C
  H89      1.0000 0.26960  0.94270  0.56990  Biso   1.000  H
  H90      1.0000 0.76960  0.44270  0.56990  Biso   1.000  H
  H91      1.0000 0.73040  0.94270  0.93010  Biso   1.000  H
  H92      1.0000 0.23040  0.44270  0.93010  Biso   1.000  H
  H93      1.0000 0.73040  0.05730  0.43010  Biso   1.000  H
  H94      1.0000 0.23040  0.55730  0.43010  Biso   1.000  H
  H95      1.0000 0.26960  0.05730  0.06990  Biso   1.000  H
  H96      1.0000 0.76960  0.55730  0.06990  Biso   1.000  H
  C65      1.0000 0.16308  0.92010  0.42203  Biso   1.000  C
  C66      1.0000 0.66308  0.42010  0.42203  Biso   1.000  C
  C67      1.0000 0.83692  0.92010  0.07797  Biso   1.000  C
  C68      1.0000 0.33692  0.42010  0.07797  Biso   1.000  C
  C69      1.0000 0.83692  0.07990  0.57797  Biso   1.000  C
  C70      1.0000 0.33692  0.57990  0.57797  Biso   1.000  C
  C71      1.0000 0.16308  0.07990  0.92203  Biso   1.000  C
  C72      1.0000 0.66308  0.57990  0.92203  Biso   1.000  C
  H97      1.0000 0.16190  0.97310  0.36870  Biso   1.000  H
  H98      1.0000 0.66190  0.47310  0.36870  Biso   1.000  H
  H99      1.0000 0.83810  0.97310  0.13130  Biso   1.000  H
  H100     1.0000 0.33810  0.47310  0.13130  Biso   1.000  H
  H101     1.0000 0.83810  0.02690  0.63130  Biso   1.000  H
  H102     1.0000 0.33810  0.52690  0.63130  Biso   1.000  H
  H103     1.0000 0.16190  0.02690  0.86870  Biso   1.000  H
  H104     1.0000 0.66190  0.52690  0.86870  Biso   1.000  H
  C73      1.0000 0.12939  0.78740  0.49805  Biso   1.000  C
  C74      1.0000 0.62939  0.28740  0.49805  Biso   1.000  C
  C75      1.0000 0.87061  0.78740  0.00195  Biso   1.000  C
  C76      1.0000 0.37061  0.28740  0.00195  Biso   1.000  C
  C77      1.0000 0.87061  0.21260  0.50195  Biso   1.000  C
  C78      1.0000 0.37061  0.71260  0.50195  Biso   1.000  C
  C79      1.0000 0.12939  0.21260  0.99805  Biso   1.000  C
  C80      1.0000 0.62939  0.71260  0.99805  Biso   1.000  C
  H105     1.0000 0.10100  0.73150  0.50860  Biso   1.000  H
  H106     1.0000 0.60100  0.23150  0.50860  Biso   1.000  H
  H107     1.0000 0.89900  0.73150  0.99140  Biso   1.000  H
  H108     1.0000 0.39900  0.23150  0.99140  Biso   1.000  H
  H109     1.0000 0.89900  0.26850  0.49140  Biso   1.000  H
  H110     1.0000 0.39900  0.76850  0.49140  Biso   1.000  H
  H111     1.0000 0.10100  0.26850  0.00860  Biso   1.000  H
  H112     1.0000 0.60100  0.76850  0.00860  Biso   1.000  H
  Cu1      1.0000 0.50000  0.66433  0.75000  Biso   1.000  Cu
  Cu2      1.0000 0.00000  0.16433  0.75000  Biso   1.000  Cu
  Cu3      1.0000 0.50000  0.33567  0.25000  Biso   1.000  Cu
  Cu4      1.0000 0.00000  0.83567  0.25000  Biso   1.000  Cu
  N1       1.0000 0.45588  0.67011  0.83845  Biso   1.000  N
  N2       1.0000 0.95588  0.17011  0.83845  Biso   1.000  N
  N3       1.0000 0.54412  0.67011  0.66155  Biso   1.000  N
  N4       1.0000 0.04412  0.17011  0.66155  Biso   1.000  N
  N5       1.0000 0.54412  0.32989  0.16155  Biso   1.000  N
  N6       1.0000 0.04412  0.82989  0.16155  Biso   1.000  N
  N7       1.0000 0.45588  0.32989  0.33845  Biso   1.000  N
  N8       1.0000 0.95588  0.82989  0.33845  Biso   1.000  N
  N9       1.0000 0.41221  0.74259  0.93120  Biso   1.000  N
  N10      1.0000 0.91221  0.24259  0.93120  Biso   1.000  N
  N11      1.0000 0.58779  0.74259  0.56880  Biso   1.000  N
  N12      1.0000 0.08779  0.24259  0.56880  Biso   1.000  N
  N13      1.0000 0.58779  0.25741  0.06880  Biso   1.000  N
  N14      1.0000 0.08779  0.75741  0.06880  Biso   1.000  N
  N15      1.0000 0.41221  0.25741  0.43120  Biso   1.000  N
  N16      1.0000 0.91221  0.75741  0.43120  Biso   1.000  N
  N17      1.0000 0.20075  0.81828  0.58036  Biso   1.000  N
  N18      1.0000 0.70075  0.31828  0.58036  Biso   1.000  N
  N19      1.0000 0.79925  0.81828  0.91964  Biso   1.000  N
  N20      1.0000 0.29925  0.31828  0.91964  Biso   1.000  N
  N21      1.0000 0.79925  0.18172  0.41964  Biso   1.000  N
  N22      1.0000 0.29925  0.68172  0.41964  Biso   1.000  N
  N23      1.0000 0.20075  0.18172  0.08036  Biso   1.000  N
  N24      1.0000 0.70075  0.68172  0.08036  Biso   1.000  N
  N25      1.0000 0.10424  0.84658  0.39970  Biso   1.000  N
  N26      1.0000 0.60424  0.34658  0.39970  Biso   1.000  N
  N27      1.0000 0.89576  0.84658  0.10030  Biso   1.000  N
  N28      1.0000 0.39576  0.34658  0.10030  Biso   1.000  N
  N29      1.0000 0.89576  0.15342  0.60030  Biso   1.000  N
  N30      1.0000 0.39576  0.65342  0.60030  Biso   1.000  N
  N31      1.0000 0.10424  0.15342  0.89970  Biso   1.000  N
  N32      1.0000 0.60424  0.65342  0.89970  Biso   1.000  N
  N33      1.0000 0.59796  0.15010  0.72590  Biso   1.000  N
  N34      1.0000 0.09796  0.65010  0.72590  Biso   1.000  N
  N35      1.0000 0.40204  0.15010  0.77410  Biso   1.000  N
  N36      1.0000 0.90204  0.65010  0.77410  Biso   1.000  N
  N37      1.0000 0.40204  0.84990  0.27410  Biso   1.000  N
  N38      1.0000 0.90204  0.34990  0.27410  Biso   1.000  N
  N39      1.0000 0.59796  0.84990  0.22590  Biso   1.000  N
  N40      1.0000 0.09796  0.34990  0.22590  Biso   1.000  N
  O1       1.0000 0.50000  0.90270  0.75000  Biso   1.000  O
  O2       1.0000 0.00000  0.40270  0.75000  Biso   1.000  O
  O3       1.0000 0.50000  0.09730  0.25000  Biso   1.000  O
  O4       1.0000 0.00000  0.59730  0.25000  Biso   1.000  O
  H113     1.0000 0.46280  0.95230  0.72540  Biso   1.000  H
  H114     1.0000 0.96280  0.45230  0.72540  Biso   1.000  H
  H115     1.0000 0.53720  0.95230  0.77460  Biso   1.000  H
  H116     1.0000 0.03720  0.45230  0.77460  Biso   1.000  H
  H117     1.0000 0.53720  0.04770  0.27460  Biso   1.000  H
  H118     1.0000 0.03720  0.54770  0.27460  Biso   1.000  H
  H119     1.0000 0.46280  0.04770  0.22540  Biso   1.000  H
  H120     1.0000 0.96280  0.54770  0.22540  Biso   1.000  H
  O5       1.0000 0.58250  0.09780  0.63660  Biso   1.000  O
  O6       1.0000 0.08250  0.59780  0.63660  Biso   1.000  O
  O7       1.0000 0.41750  0.09780  0.86340  Biso   1.000  O
  O8       1.0000 0.91750  0.59780  0.86340  Biso   1.000  O
  O9       1.0000 0.41750  0.90220  0.36340  Biso   1.000  O
  O10      1.0000 0.91750  0.40220  0.36340  Biso   1.000  O
  O11      1.0000 0.58250  0.90220  0.13660  Biso   1.000  O
  O12      1.0000 0.08250  0.40220  0.13660  Biso   1.000  O
  O13      1.0000 0.58940  0.26620  0.70110  Biso   1.000  O
  O14      1.0000 0.08940  0.76620  0.70110  Biso   1.000  O
  O15      1.0000 0.41060  0.26620  0.79890  Biso   1.000  O
  O16      1.0000 0.91060  0.76620  0.79890  Biso   1.000  O
  O17      1.0000 0.41060  0.73380  0.29890  Biso   1.000  O
  O18      1.0000 0.91060  0.23380  0.29890  Biso   1.000  O
  O19      1.0000 0.58940  0.73380  0.20110  Biso   1.000  O
  O20      1.0000 0.08940  0.23380  0.20110  Biso   1.000  O
  O21      1.0000 0.61485  0.07230  0.80250  Biso   1.000  O
  O22      1.0000 0.11485  0.57230  0.80250  Biso   1.000  O
  O23      1.0000 0.38515  0.07230  0.69750  Biso   1.000  O
  O24      1.0000 0.88515  0.57230  0.69750  Biso   1.000  O
  O25      1.0000 0.38515  0.92770  0.19750  Biso   1.000  O
  O26      1.0000 0.88515  0.42770  0.19750  Biso   1.000  O
  O27      1.0000 0.61485  0.92770  0.30250  Biso   1.000  O
  O28      1.0000 0.11485  0.42770  0.30250  Biso   1.000  O
  O29      1.0000 0.50000  0.41200  0.75000  Biso   1.000  O
  O30      1.0000 0.00000  0.91200  0.75000  Biso   1.000  O
  O31      1.0000 0.50000  0.58800  0.25000  Biso   1.000  O
  O32      1.0000 0.00000  0.08800  0.25000  Biso   1.000  O
  H121     1.0000 0.46900  0.35730  0.74330  Biso   1.000  H
  H122     1.0000 0.96900  0.85730  0.74330  Biso   1.000  H
  H123     1.0000 0.53100  0.35730  0.75670  Biso   1.000  H
  H124     1.0000 0.03100  0.85730  0.75670  Biso   1.000  H
  H125     1.0000 0.53100  0.64270  0.25670  Biso   1.000  H
  H126     1.0000 0.03100  0.14270  0.25670  Biso   1.000  H
  H127     1.0000 0.46900  0.64270  0.24330  Biso   1.000  H
  H128     1.0000 0.96900  0.14270  0.24330  Biso   1.000  H
  O33      1.0000 0.61400  0.25920  0.77530  Biso   1.000  O
  O34      1.0000 0.11400  0.75920  0.77530  Biso   1.000  O
  O35      1.0000 0.38600  0.25920  0.72470  Biso   1.000  O
  O36      1.0000 0.88600  0.75920  0.72470  Biso   1.000  O
  O37      1.0000 0.38600  0.74080  0.22470  Biso   1.000  O
  O38      1.0000 0.88600  0.24080  0.22470  Biso   1.000  O
  O39      1.0000 0.61400  0.74080  0.27530  Biso   1.000  O
  O40      1.0000 0.11400  0.24080  0.27530  Biso   1.000  O
