data_image0
_cell_length_a       8.9373
_cell_length_b       12.8647
_cell_length_c       31.145
_cell_angle_alpha    90
_cell_angle_beta     90
_cell_angle_gamma    90

_symmetry_space_group_name_H-M    "P 1"
_symmetry_int_tables_number       1

loop_
  _symmetry_equiv_pos_as_xyz
  'x, y, z'

loop_
  _atom_site_label
  _atom_site_occupancy
  _atom_site_fract_x
  _atom_site_fract_y
  _atom_site_fract_z
  _atom_site_thermal_displace_type
  _atom_site_B_iso_or_equiv
  _atom_site_type_symbol
  Cu1      1.0000 0.01093  0.19813  0.43151  Biso   1.000  Cu
  Cu2      1.0000 0.48907  0.80187  0.93151  Biso   1.000  Cu
  Cu3      1.0000 0.51093  0.30187  0.56849  Biso   1.000  Cu
  Cu4      1.0000 0.98907  0.69813  0.06849  Biso   1.000  Cu
  Cu5      1.0000 0.98907  0.80187  0.56849  Biso   1.000  Cu
  Cu6      1.0000 0.51093  0.19813  0.06849  Biso   1.000  Cu
  Cu7      1.0000 0.48907  0.69813  0.43151  Biso   1.000  Cu
  Cu8      1.0000 0.01093  0.30187  0.93151  Biso   1.000  Cu
  O1       1.0000 0.10330  0.30730  0.46681  Biso   1.000  O
  O2       1.0000 0.39670  0.69270  0.96681  Biso   1.000  O
  O3       1.0000 0.60330  0.19270  0.53319  Biso   1.000  O
  O4       1.0000 0.89670  0.80730  0.03319  Biso   1.000  O
  O5       1.0000 0.89670  0.69270  0.53319  Biso   1.000  O
  O6       1.0000 0.60330  0.30730  0.03319  Biso   1.000  O
  O7       1.0000 0.39670  0.80730  0.46681  Biso   1.000  O
  O8       1.0000 0.10330  0.19270  0.96681  Biso   1.000  O
  H1       1.0000 0.15810  0.25810  0.48300  Biso   1.000  H
  H2       1.0000 0.34190  0.74190  0.98300  Biso   1.000  H
  H3       1.0000 0.65810  0.24190  0.51700  Biso   1.000  H
  H4       1.0000 0.84190  0.75810  0.01700  Biso   1.000  H
  H5       1.0000 0.84190  0.74190  0.51700  Biso   1.000  H
  H6       1.0000 0.65810  0.25810  0.01700  Biso   1.000  H
  H7       1.0000 0.34190  0.75810  0.48300  Biso   1.000  H
  H8       1.0000 0.15810  0.24190  0.98300  Biso   1.000  H
  H9       1.0000 0.02810  0.34190  0.49000  Biso   1.000  H
  H10      1.0000 0.47190  0.65810  0.99000  Biso   1.000  H
  H11      1.0000 0.52810  0.15810  0.51000  Biso   1.000  H
  H12      1.0000 0.97190  0.84190  0.01000  Biso   1.000  H
  H13      1.0000 0.97190  0.65810  0.51000  Biso   1.000  H
  H14      1.0000 0.52810  0.34190  0.01000  Biso   1.000  H
  H15      1.0000 0.47190  0.84190  0.49000  Biso   1.000  H
  H16      1.0000 0.02810  0.15810  0.99000  Biso   1.000  H
  O9       1.0000 0.96630  0.11410  0.48305  Biso   1.000  O
  O10      1.0000 0.53370  0.88590  0.98305  Biso   1.000  O
  O11      1.0000 0.46630  0.38590  0.51695  Biso   1.000  O
  O12      1.0000 0.03370  0.61410  0.01695  Biso   1.000  O
  O13      1.0000 0.03370  0.88590  0.51695  Biso   1.000  O
  O14      1.0000 0.46630  0.11410  0.01695  Biso   1.000  O
  O15      1.0000 0.53370  0.61410  0.48305  Biso   1.000  O
  O16      1.0000 0.96630  0.38590  0.98305  Biso   1.000  O
  H17      1.0000 0.90300  0.06530  0.48200  Biso   1.000  H
  H18      1.0000 0.59700  0.93470  0.98200  Biso   1.000  H
  H19      1.0000 0.40300  0.43470  0.51800  Biso   1.000  H
  H20      1.0000 0.09700  0.56530  0.01800  Biso   1.000  H
  H21      1.0000 0.09700  0.93470  0.51800  Biso   1.000  H
  H22      1.0000 0.40300  0.06530  0.01800  Biso   1.000  H
  H23      1.0000 0.59700  0.56530  0.48200  Biso   1.000  H
  H24      1.0000 0.90300  0.43470  0.98200  Biso   1.000  H
  H25      1.0000 0.92870  0.14820  0.50850  Biso   1.000  H
  H26      1.0000 0.57130  0.85180  0.00850  Biso   1.000  H
  H27      1.0000 0.42870  0.35180  0.49150  Biso   1.000  H
  H28      1.0000 0.07130  0.64820  0.99150  Biso   1.000  H
  H29      1.0000 0.07130  0.85180  0.49150  Biso   1.000  H
  H30      1.0000 0.42870  0.14820  0.99150  Biso   1.000  H
  H31      1.0000 0.57130  0.64820  0.50850  Biso   1.000  H
  H32      1.0000 0.92870  0.35180  0.00850  Biso   1.000  H
  O17      1.0000 0.78490  0.28420  0.43431  Biso   1.000  O
  O18      1.0000 0.71510  0.71580  0.93431  Biso   1.000  O
  O19      1.0000 0.28490  0.21580  0.56569  Biso   1.000  O
  O20      1.0000 0.21510  0.78420  0.06569  Biso   1.000  O
  O21      1.0000 0.21510  0.71580  0.56569  Biso   1.000  O
  O22      1.0000 0.28490  0.28420  0.06569  Biso   1.000  O
  O23      1.0000 0.71510  0.78420  0.43431  Biso   1.000  O
  O24      1.0000 0.78490  0.21580  0.93431  Biso   1.000  O
  H33      1.0000 0.75540  0.33820  0.44990  Biso   1.000  H
  H34      1.0000 0.74460  0.66180  0.94990  Biso   1.000  H
  H35      1.0000 0.25540  0.16180  0.55010  Biso   1.000  H
  H36      1.0000 0.24460  0.83820  0.05010  Biso   1.000  H
  H37      1.0000 0.24460  0.66180  0.55010  Biso   1.000  H
  H38      1.0000 0.25540  0.33820  0.05010  Biso   1.000  H
  H39      1.0000 0.74460  0.83820  0.44990  Biso   1.000  H
  H40      1.0000 0.75540  0.16180  0.94990  Biso   1.000  H
  H41      1.0000 0.68640  0.25830  0.43200  Biso   1.000  H
  H42      1.0000 0.81360  0.74170  0.93200  Biso   1.000  H
  H43      1.0000 0.18640  0.24170  0.56800  Biso   1.000  H
  H44      1.0000 0.31360  0.75830  0.06800  Biso   1.000  H
  H45      1.0000 0.31360  0.74170  0.56800  Biso   1.000  H
  H46      1.0000 0.18640  0.25830  0.06800  Biso   1.000  H
  H47      1.0000 0.81360  0.75830  0.43200  Biso   1.000  H
  H48      1.0000 0.68640  0.24170  0.93200  Biso   1.000  H
  O25      1.0000 0.23180  0.52500  0.52070  Biso   1.000  O
  O26      1.0000 0.26820  0.47500  0.02070  Biso   1.000  O
  O27      1.0000 0.73180  0.97500  0.47930  Biso   1.000  O
  O28      1.0000 0.76820  0.02500  0.97930  Biso   1.000  O
  O29      1.0000 0.76820  0.47500  0.47930  Biso   1.000  O
  O30      1.0000 0.73180  0.52500  0.97930  Biso   1.000  O
  O31      1.0000 0.26820  0.02500  0.52070  Biso   1.000  O
  O32      1.0000 0.23180  0.97500  0.02070  Biso   1.000  O
  H49      1.0000 0.20770  0.57220  0.49780  Biso   1.000  H
  H50      1.0000 0.29230  0.42780  0.99780  Biso   1.000  H
  H51      1.0000 0.70770  0.92780  0.50220  Biso   1.000  H
  H52      1.0000 0.79230  0.07220  0.00220  Biso   1.000  H
  H53      1.0000 0.79230  0.42780  0.50220  Biso   1.000  H
  H54      1.0000 0.70770  0.57220  0.00220  Biso   1.000  H
  H55      1.0000 0.29230  0.07220  0.49780  Biso   1.000  H
  H56      1.0000 0.20770  0.92780  0.99780  Biso   1.000  H
  H57      1.0000 0.14700  0.48690  0.52290  Biso   1.000  H
  H58      1.0000 0.35300  0.51310  0.02290  Biso   1.000  H
  H59      1.0000 0.64700  0.01310  0.47710  Biso   1.000  H
  H60      1.0000 0.85300  0.98690  0.97710  Biso   1.000  H
  H61      1.0000 0.85300  0.51310  0.47710  Biso   1.000  H
  H62      1.0000 0.64700  0.48690  0.97710  Biso   1.000  H
  H63      1.0000 0.35300  0.98690  0.52290  Biso   1.000  H
  H64      1.0000 0.14700  0.01310  0.02290  Biso   1.000  H
  S1       1.0000 0.22560  0.33993  0.20008  Biso   1.000  S
  S2       1.0000 0.27440  0.66007  0.70008  Biso   1.000  S
  S3       1.0000 0.72560  0.16007  0.79992  Biso   1.000  S
  S4       1.0000 0.77440  0.83993  0.29992  Biso   1.000  S
  S5       1.0000 0.77440  0.66007  0.79992  Biso   1.000  S
  S6       1.0000 0.72560  0.33993  0.29992  Biso   1.000  S
  S7       1.0000 0.27440  0.83993  0.20008  Biso   1.000  S
  S8       1.0000 0.22560  0.16007  0.70008  Biso   1.000  S
  C1       1.0000 0.35390  0.40310  0.23589  Biso   1.000  C
  C2       1.0000 0.14610  0.59690  0.73589  Biso   1.000  C
  C3       1.0000 0.85390  0.09690  0.76411  Biso   1.000  C
  C4       1.0000 0.64610  0.90310  0.26411  Biso   1.000  C
  C5       1.0000 0.64610  0.59690  0.76411  Biso   1.000  C
  C6       1.0000 0.85390  0.40310  0.26411  Biso   1.000  C
  C7       1.0000 0.14610  0.90310  0.23589  Biso   1.000  C
  C8       1.0000 0.35390  0.09690  0.73589  Biso   1.000  C
  H65      1.0000 0.41090  0.34980  0.25060  Biso   1.000  H
  H66      1.0000 0.08910  0.65020  0.75060  Biso   1.000  H
  H67      1.0000 0.91090  0.15020  0.74940  Biso   1.000  H
  H68      1.0000 0.58910  0.84980  0.24940  Biso   1.000  H
  H69      1.0000 0.58910  0.65020  0.74940  Biso   1.000  H
  H70      1.0000 0.91090  0.34980  0.24940  Biso   1.000  H
  H71      1.0000 0.08910  0.84980  0.25060  Biso   1.000  H
  H72      1.0000 0.41090  0.15020  0.75060  Biso   1.000  H
  H73      1.0000 0.42380  0.44300  0.21870  Biso   1.000  H
  H74      1.0000 0.07620  0.55700  0.71870  Biso   1.000  H
  H75      1.0000 0.92380  0.05700  0.78130  Biso   1.000  H
  H76      1.0000 0.57620  0.94300  0.28130  Biso   1.000  H
  H77      1.0000 0.57620  0.55700  0.78130  Biso   1.000  H
  H78      1.0000 0.92380  0.44300  0.28130  Biso   1.000  H
  H79      1.0000 0.07620  0.94300  0.21870  Biso   1.000  H
  H80      1.0000 0.42380  0.05700  0.71870  Biso   1.000  H
  N1       1.0000 0.07800  0.28220  0.38023  Biso   1.000  N
  N2       1.0000 0.42200  0.71780  0.88023  Biso   1.000  N
  N3       1.0000 0.57800  0.21780  0.61977  Biso   1.000  N
  N4       1.0000 0.92200  0.78220  0.11977  Biso   1.000  N
  N5       1.0000 0.92200  0.71780  0.61977  Biso   1.000  N
  N6       1.0000 0.57800  0.28220  0.11977  Biso   1.000  N
  N7       1.0000 0.42200  0.78220  0.38023  Biso   1.000  N
  N8       1.0000 0.07800  0.21780  0.88023  Biso   1.000  N
  S9       1.0000 0.41406  0.17595  0.42882  Biso   1.000  S
  S10      1.0000 0.08594  0.82405  0.92882  Biso   1.000  S
  S11      1.0000 0.91406  0.32405  0.57118  Biso   1.000  S
  S12      1.0000 0.58594  0.67595  0.07118  Biso   1.000  S
  S13      1.0000 0.58594  0.82405  0.57118  Biso   1.000  S
  S14      1.0000 0.91406  0.17595  0.07118  Biso   1.000  S
  S15      1.0000 0.08594  0.67595  0.42882  Biso   1.000  S
  S16      1.0000 0.41406  0.32405  0.92882  Biso   1.000  S
  S17      1.0000 0.27625  0.48784  0.27560  Biso   1.000  S
  S18      1.0000 0.22375  0.51216  0.77560  Biso   1.000  S
  S19      1.0000 0.77625  0.01216  0.72440  Biso   1.000  S
  S20      1.0000 0.72375  0.98784  0.22440  Biso   1.000  S
  S21      1.0000 0.72375  0.51216  0.72440  Biso   1.000  S
  S22      1.0000 0.77625  0.48784  0.22440  Biso   1.000  S
  S23      1.0000 0.22375  0.98784  0.27560  Biso   1.000  S
  S24      1.0000 0.27625  0.01216  0.77560  Biso   1.000  S
  O33      1.0000 0.53910  0.13330  0.45404  Biso   1.000  O
  O34      1.0000 0.96090  0.86670  0.95404  Biso   1.000  O
  O35      1.0000 0.03910  0.36670  0.54596  Biso   1.000  O
  O36      1.0000 0.46090  0.63330  0.04596  Biso   1.000  O
  O37      1.0000 0.46090  0.86670  0.54596  Biso   1.000  O
  O38      1.0000 0.03910  0.13330  0.04596  Biso   1.000  O
  O39      1.0000 0.96090  0.63330  0.45404  Biso   1.000  O
  O40      1.0000 0.53910  0.36670  0.95404  Biso   1.000  O
  O41      1.0000 0.38740  0.28380  0.44482  Biso   1.000  O
  O42      1.0000 0.11260  0.71620  0.94482  Biso   1.000  O
  O43      1.0000 0.88740  0.21620  0.55518  Biso   1.000  O
  O44      1.0000 0.61260  0.78380  0.05518  Biso   1.000  O
  O45      1.0000 0.61260  0.71620  0.55518  Biso   1.000  O
  O46      1.0000 0.88740  0.28380  0.05518  Biso   1.000  O
  O47      1.0000 0.11260  0.78380  0.44482  Biso   1.000  O
  O48      1.0000 0.38740  0.21620  0.94482  Biso   1.000  O
  O49      1.0000 0.45710  0.17800  0.38353  Biso   1.000  O
  O50      1.0000 0.04290  0.82200  0.88353  Biso   1.000  O
  O51      1.0000 0.95710  0.32200  0.61647  Biso   1.000  O
  O52      1.0000 0.54290  0.67800  0.11647  Biso   1.000  O
  O53      1.0000 0.54290  0.82200  0.61647  Biso   1.000  O
  O54      1.0000 0.95710  0.17800  0.11647  Biso   1.000  O
  O55      1.0000 0.04290  0.67800  0.38353  Biso   1.000  O
  O56      1.0000 0.45710  0.32200  0.88353  Biso   1.000  O
  O57      1.0000 0.27970  0.11440  0.43518  Biso   1.000  O
  O58      1.0000 0.22030  0.88560  0.93518  Biso   1.000  O
  O59      1.0000 0.77970  0.38560  0.56482  Biso   1.000  O
  O60      1.0000 0.72030  0.61440  0.06482  Biso   1.000  O
  O61      1.0000 0.72030  0.88560  0.56482  Biso   1.000  O
  O62      1.0000 0.77970  0.11440  0.06482  Biso   1.000  O
  O63      1.0000 0.22030  0.61440  0.43518  Biso   1.000  O
  O64      1.0000 0.27970  0.38560  0.93518  Biso   1.000  O
  C9       1.0000 0.07300  0.38690  0.38059  Biso   1.000  C
  C10      1.0000 0.42700  0.61310  0.88059  Biso   1.000  C
  C11      1.0000 0.57300  0.11310  0.61941  Biso   1.000  C
  C12      1.0000 0.92700  0.88690  0.11941  Biso   1.000  C
  C13      1.0000 0.92700  0.61310  0.61941  Biso   1.000  C
  C14      1.0000 0.57300  0.38690  0.11941  Biso   1.000  C
  C15      1.0000 0.42700  0.88690  0.38059  Biso   1.000  C
  C16      1.0000 0.07300  0.11310  0.88059  Biso   1.000  C
  H81      1.0000 0.02740  0.41910  0.40390  Biso   1.000  H
  H82      1.0000 0.47260  0.58090  0.90390  Biso   1.000  H
  H83      1.0000 0.52740  0.08090  0.59610  Biso   1.000  H
  H84      1.0000 0.97260  0.91910  0.09610  Biso   1.000  H
  H85      1.0000 0.97260  0.58090  0.59610  Biso   1.000  H
  H86      1.0000 0.52740  0.41910  0.09610  Biso   1.000  H
  H87      1.0000 0.47260  0.91910  0.40390  Biso   1.000  H
  H88      1.0000 0.02740  0.08090  0.90390  Biso   1.000  H
  C17      1.0000 0.13020  0.44890  0.34920  Biso   1.000  C
  C18      1.0000 0.36980  0.55110  0.84920  Biso   1.000  C
  C19      1.0000 0.63020  0.05110  0.65080  Biso   1.000  C
  C20      1.0000 0.86980  0.94890  0.15080  Biso   1.000  C
  C21      1.0000 0.86980  0.55110  0.65080  Biso   1.000  C
  C22      1.0000 0.63020  0.44890  0.15080  Biso   1.000  C
  C23      1.0000 0.36980  0.94890  0.34920  Biso   1.000  C
  C24      1.0000 0.13020  0.05110  0.84920  Biso   1.000  C
  H89      1.0000 0.12260  0.52080  0.35120  Biso   1.000  H
  H90      1.0000 0.37740  0.47920  0.85120  Biso   1.000  H
  H91      1.0000 0.62260  0.97920  0.64880  Biso   1.000  H
  H92      1.0000 0.87740  0.02080  0.14880  Biso   1.000  H
  H93      1.0000 0.87740  0.47920  0.64880  Biso   1.000  H
  H94      1.0000 0.62260  0.52080  0.14880  Biso   1.000  H
  H95      1.0000 0.37740  0.02080  0.35120  Biso   1.000  H
  H96      1.0000 0.12260  0.97920  0.85120  Biso   1.000  H
  C25      1.0000 0.20040  0.40270  0.31409  Biso   1.000  C
  C26      1.0000 0.29960  0.59730  0.81409  Biso   1.000  C
  C27      1.0000 0.70040  0.09730  0.68591  Biso   1.000  C
  C28      1.0000 0.79960  0.90270  0.18591  Biso   1.000  C
  C29      1.0000 0.79960  0.59730  0.68591  Biso   1.000  C
  C30      1.0000 0.70040  0.40270  0.18591  Biso   1.000  C
  C31      1.0000 0.29960  0.90270  0.31409  Biso   1.000  C
  C32      1.0000 0.20040  0.09730  0.81409  Biso   1.000  C
  C33      1.0000 0.20370  0.29530  0.31232  Biso   1.000  C
  C34      1.0000 0.29630  0.70470  0.81232  Biso   1.000  C
  C35      1.0000 0.70370  0.20470  0.68768  Biso   1.000  C
  C36      1.0000 0.79630  0.79530  0.18768  Biso   1.000  C
  C37      1.0000 0.79630  0.70470  0.68768  Biso   1.000  C
  C38      1.0000 0.70370  0.29530  0.18768  Biso   1.000  C
  C39      1.0000 0.29630  0.79530  0.31232  Biso   1.000  C
  C40      1.0000 0.20370  0.20470  0.81232  Biso   1.000  C
  H97      1.0000 0.24550  0.26130  0.28890  Biso   1.000  H
  H98      1.0000 0.25450  0.73870  0.78890  Biso   1.000  H
  H99      1.0000 0.74550  0.23870  0.71110  Biso   1.000  H
  H100     1.0000 0.75450  0.76130  0.21110  Biso   1.000  H
  H101     1.0000 0.75450  0.73870  0.71110  Biso   1.000  H
  H102     1.0000 0.74550  0.26130  0.21110  Biso   1.000  H
  H103     1.0000 0.25450  0.76130  0.28890  Biso   1.000  H
  H104     1.0000 0.24550  0.23870  0.78890  Biso   1.000  H
  C41      1.0000 0.14380  0.23940  0.34611  Biso   1.000  C
  C42      1.0000 0.35620  0.76060  0.84611  Biso   1.000  C
  C43      1.0000 0.64380  0.26060  0.65389  Biso   1.000  C
  C44      1.0000 0.85620  0.73940  0.15389  Biso   1.000  C
  C45      1.0000 0.85620  0.76060  0.65389  Biso   1.000  C
  C46      1.0000 0.64380  0.23940  0.15389  Biso   1.000  C
  C47      1.0000 0.35620  0.73940  0.34611  Biso   1.000  C
  C48      1.0000 0.14380  0.26060  0.84611  Biso   1.000  C
  H105     1.0000 0.14970  0.16730  0.34500  Biso   1.000  H
  H106     1.0000 0.35030  0.83270  0.84500  Biso   1.000  H
  H107     1.0000 0.64970  0.33270  0.65500  Biso   1.000  H
  H108     1.0000 0.85030  0.66730  0.15500  Biso   1.000  H
  H109     1.0000 0.85030  0.83270  0.65500  Biso   1.000  H
  H110     1.0000 0.64970  0.16730  0.15500  Biso   1.000  H
  H111     1.0000 0.35030  0.66730  0.34500  Biso   1.000  H
  H112     1.0000 0.14970  0.33270  0.84500  Biso   1.000  H
  N9       1.0000 0.06840  0.58650  0.10628  Biso   1.000  N
  N10      1.0000 0.43160  0.41350  0.60628  Biso   1.000  N
  N11      1.0000 0.56840  0.91350  0.89372  Biso   1.000  N
  N12      1.0000 0.93160  0.08650  0.39372  Biso   1.000  N
  N13      1.0000 0.93160  0.41350  0.89372  Biso   1.000  N
  N14      1.0000 0.56840  0.58650  0.39372  Biso   1.000  N
  N15      1.0000 0.43160  0.08650  0.10628  Biso   1.000  N
  N16      1.0000 0.06840  0.91350  0.60628  Biso   1.000  N
  C49      1.0000 0.01020  0.49030  0.10727  Biso   1.000  C
  C50      1.0000 0.48980  0.50970  0.60727  Biso   1.000  C
  C51      1.0000 0.51020  0.00970  0.89273  Biso   1.000  C
  C52      1.0000 0.98980  0.99030  0.39273  Biso   1.000  C
  C53      1.0000 0.98980  0.50970  0.89273  Biso   1.000  C
  C54      1.0000 0.51020  0.49030  0.39273  Biso   1.000  C
  C55      1.0000 0.48980  0.99030  0.10727  Biso   1.000  C
  C56      1.0000 0.01020  0.00970  0.60727  Biso   1.000  C
  H113     1.0000 0.93420  0.47370  0.08810  Biso   1.000  H
  H114     1.0000 0.56580  0.52630  0.58810  Biso   1.000  H
  H115     1.0000 0.43420  0.02630  0.91190  Biso   1.000  H
  H116     1.0000 0.06580  0.97370  0.41190  Biso   1.000  H
  H117     1.0000 0.06580  0.52630  0.91190  Biso   1.000  H
  H118     1.0000 0.43420  0.47370  0.41190  Biso   1.000  H
  H119     1.0000 0.56580  0.97370  0.08810  Biso   1.000  H
  H120     1.0000 0.93420  0.02630  0.58810  Biso   1.000  H
  C57      1.0000 0.05820  0.41540  0.13543  Biso   1.000  C
  C58      1.0000 0.44180  0.58460  0.63543  Biso   1.000  C
  C59      1.0000 0.55820  0.08460  0.86457  Biso   1.000  C
  C60      1.0000 0.94180  0.91540  0.36457  Biso   1.000  C
  C61      1.0000 0.94180  0.58460  0.86457  Biso   1.000  C
  C62      1.0000 0.55820  0.41540  0.36457  Biso   1.000  C
  C63      1.0000 0.44180  0.91540  0.13543  Biso   1.000  C
  C64      1.0000 0.05820  0.08460  0.63543  Biso   1.000  C
  H121     1.0000 0.01640  0.34920  0.13480  Biso   1.000  H
  H122     1.0000 0.48360  0.65080  0.63480  Biso   1.000  H
  H123     1.0000 0.51640  0.15080  0.86520  Biso   1.000  H
  H124     1.0000 0.98360  0.84920  0.36520  Biso   1.000  H
  H125     1.0000 0.98360  0.65080  0.86520  Biso   1.000  H
  H126     1.0000 0.51640  0.34920  0.36520  Biso   1.000  H
  H127     1.0000 0.48360  0.84920  0.13480  Biso   1.000  H
  H128     1.0000 0.01640  0.15080  0.63480  Biso   1.000  H
  C65      1.0000 0.16950  0.43940  0.16477  Biso   1.000  C
  C66      1.0000 0.33050  0.56060  0.66477  Biso   1.000  C
  C67      1.0000 0.66950  0.06060  0.83523  Biso   1.000  C
  C68      1.0000 0.83050  0.93940  0.33523  Biso   1.000  C
  C69      1.0000 0.83050  0.56060  0.83523  Biso   1.000  C
  C70      1.0000 0.66950  0.43940  0.33523  Biso   1.000  C
  C71      1.0000 0.33050  0.93940  0.16477  Biso   1.000  C
  C72      1.0000 0.16950  0.06060  0.66477  Biso   1.000  C
  C73      1.0000 0.23180  0.53730  0.16324  Biso   1.000  C
  C74      1.0000 0.26820  0.46270  0.66324  Biso   1.000  C
  C75      1.0000 0.73180  0.96270  0.83676  Biso   1.000  C
  C76      1.0000 0.76820  0.03730  0.33676  Biso   1.000  C
  C77      1.0000 0.76820  0.46270  0.83676  Biso   1.000  C
  C78      1.0000 0.73180  0.53730  0.33676  Biso   1.000  C
  C79      1.0000 0.26820  0.03730  0.16324  Biso   1.000  C
  C80      1.0000 0.23180  0.96270  0.66324  Biso   1.000  C
  H129     1.0000 0.30890  0.55530  0.18180  Biso   1.000  H
  H130     1.0000 0.19110  0.44470  0.68180  Biso   1.000  H
  H131     1.0000 0.80890  0.94470  0.81820  Biso   1.000  H
  H132     1.0000 0.69110  0.05530  0.31820  Biso   1.000  H
  H133     1.0000 0.69110  0.44470  0.81820  Biso   1.000  H
  H134     1.0000 0.80890  0.55530  0.31820  Biso   1.000  H
  H135     1.0000 0.19110  0.05530  0.18180  Biso   1.000  H
  H136     1.0000 0.30890  0.94470  0.68180  Biso   1.000  H
  C81      1.0000 0.17830  0.60810  0.13381  Biso   1.000  C
  C82      1.0000 0.32170  0.39190  0.63381  Biso   1.000  C
  C83      1.0000 0.67830  0.89190  0.86619  Biso   1.000  C
  C84      1.0000 0.82170  0.10810  0.36619  Biso   1.000  C
  C85      1.0000 0.82170  0.39190  0.86619  Biso   1.000  C
  C86      1.0000 0.67830  0.60810  0.36619  Biso   1.000  C
  C87      1.0000 0.32170  0.10810  0.13381  Biso   1.000  C
  C88      1.0000 0.17830  0.89190  0.63381  Biso   1.000  C
  H137     1.0000 0.22090  0.67400  0.13310  Biso   1.000  H
  H138     1.0000 0.27910  0.32600  0.63310  Biso   1.000  H
  H139     1.0000 0.72090  0.82600  0.86690  Biso   1.000  H
  H140     1.0000 0.77910  0.17400  0.36690  Biso   1.000  H
  H141     1.0000 0.77910  0.32600  0.86690  Biso   1.000  H
  H142     1.0000 0.72090  0.67400  0.36690  Biso   1.000  H
  H143     1.0000 0.27910  0.17400  0.13310  Biso   1.000  H
  H144     1.0000 0.22090  0.82600  0.63310  Biso   1.000  H
