data_image0
_cell_length_a       16.13
_cell_length_b       17.431
_cell_length_c       16.333
_cell_angle_alpha    90
_cell_angle_beta     111.758
_cell_angle_gamma    90

_symmetry_space_group_name_H-M    "P 1"
_symmetry_int_tables_number       1

loop_
  _symmetry_equiv_pos_as_xyz
  'x, y, z'

loop_
  _atom_site_label
  _atom_site_occupancy
  _atom_site_fract_x
  _atom_site_fract_y
  _atom_site_fract_z
  _atom_site_thermal_displace_type
  _atom_site_B_iso_or_equiv
  _atom_site_type_symbol
  Cu1      1.0000 0.28475  0.67148  0.83656  Biso   1.000  Cu
  Cu2      1.0000 0.71525  0.17148  0.66344  Biso   1.000  Cu
  Cu3      1.0000 0.71525  0.32852  0.16344  Biso   1.000  Cu
  Cu4      1.0000 0.28475  0.82852  0.33656  Biso   1.000  Cu
  S1       1.0000 0.40505  0.30960  0.85963  Biso   1.000  S
  S2       1.0000 0.59495  0.80960  0.64037  Biso   1.000  S
  S3       1.0000 0.59495  0.69040  0.14037  Biso   1.000  S
  S4       1.0000 0.40505  0.19040  0.35963  Biso   1.000  S
  S5       1.0000 0.32615  0.27917  0.66171  Biso   1.000  S
  S6       1.0000 0.67385  0.77917  0.83829  Biso   1.000  S
  S7       1.0000 0.67385  0.72083  0.33829  Biso   1.000  S
  S8       1.0000 0.32615  0.22083  0.16171  Biso   1.000  S
  S9       1.0000 0.91218  0.54667  0.86503  Biso   1.000  S
  S10      1.0000 0.08782  0.04667  0.63497  Biso   1.000  S
  S11      1.0000 0.08782  0.45333  0.13497  Biso   1.000  S
  S12      1.0000 0.91218  0.95333  0.36503  Biso   1.000  S
  S13      1.0000 0.82000  0.53523  0.66419  Biso   1.000  S
  S14      1.0000 0.18000  0.03523  0.83581  Biso   1.000  S
  S15      1.0000 0.18000  0.46477  0.33581  Biso   1.000  S
  S16      1.0000 0.82000  0.96477  0.16419  Biso   1.000  S
  N1       1.0000 0.32150  0.56020  0.83380  Biso   1.000  N
  N2       1.0000 0.67850  0.06020  0.66620  Biso   1.000  N
  N3       1.0000 0.67850  0.43980  0.16620  Biso   1.000  N
  N4       1.0000 0.32150  0.93980  0.33380  Biso   1.000  N
  N5       1.0000 0.59620  0.20460  0.66530  Biso   1.000  N
  N6       1.0000 0.40380  0.70460  0.83470  Biso   1.000  N
  N7       1.0000 0.40380  0.79540  0.33470  Biso   1.000  N
  N8       1.0000 0.59620  0.29540  0.16530  Biso   1.000  N
  N9       1.0000 0.16920  0.64000  0.84730  Biso   1.000  N
  N10      1.0000 0.83080  0.14000  0.65270  Biso   1.000  N
  N11      1.0000 0.83080  0.36000  0.15270  Biso   1.000  N
  N12      1.0000 0.16920  0.86000  0.34730  Biso   1.000  N
  N13      1.0000 0.75000  0.28310  0.66590  Biso   1.000  N
  N14      1.0000 0.25000  0.78310  0.83410  Biso   1.000  N
  N15      1.0000 0.25000  0.71690  0.33410  Biso   1.000  N
  N16      1.0000 0.75000  0.21690  0.16590  Biso   1.000  N
  C1       1.0000 0.26200  0.50640  0.78660  Biso   1.000  C
  C2       1.0000 0.73800  0.00640  0.71340  Biso   1.000  C
  C3       1.0000 0.73800  0.49360  0.21340  Biso   1.000  C
  C4       1.0000 0.26200  0.99360  0.28660  Biso   1.000  C
  H1       1.0000 0.20460  0.52210  0.75160  Biso   1.000  H
  H2       1.0000 0.79540  0.02210  0.74840  Biso   1.000  H
  H3       1.0000 0.79540  0.47790  0.24840  Biso   1.000  H
  H4       1.0000 0.20460  0.97790  0.25160  Biso   1.000  H
  C5       1.0000 0.28300  0.42920  0.78840  Biso   1.000  C
  C6       1.0000 0.71700  0.92920  0.71160  Biso   1.000  C
  C7       1.0000 0.71700  0.57080  0.21160  Biso   1.000  C
  C8       1.0000 0.28300  0.07080  0.28840  Biso   1.000  C
  H5       1.0000 0.24060  0.39410  0.75480  Biso   1.000  H
  H6       1.0000 0.75940  0.89410  0.74520  Biso   1.000  H
  H7       1.0000 0.75940  0.60590  0.24520  Biso   1.000  H
  H8       1.0000 0.24060  0.10590  0.25480  Biso   1.000  H
  C9       1.0000 0.36790  0.40480  0.84070  Biso   1.000  C
  C10      1.0000 0.63210  0.90480  0.65930  Biso   1.000  C
  C11      1.0000 0.63210  0.59520  0.15930  Biso   1.000  C
  C12      1.0000 0.36790  0.09520  0.34070  Biso   1.000  C
  C13      1.0000 0.43080  0.45980  0.88680  Biso   1.000  C
  C14      1.0000 0.56920  0.95980  0.61320  Biso   1.000  C
  C15      1.0000 0.56920  0.54020  0.11320  Biso   1.000  C
  C16      1.0000 0.43080  0.04020  0.38680  Biso   1.000  C
  H9       1.0000 0.48930  0.44620  0.92050  Biso   1.000  H
  H10      1.0000 0.51070  0.94620  0.57950  Biso   1.000  H
  H11      1.0000 0.51070  0.55380  0.07950  Biso   1.000  H
  H12      1.0000 0.48930  0.05380  0.42050  Biso   1.000  H
  C17      1.0000 0.40250  0.53610  0.88050  Biso   1.000  C
  C18      1.0000 0.59750  0.03610  0.61950  Biso   1.000  C
  C19      1.0000 0.59750  0.46390  0.11950  Biso   1.000  C
  C20      1.0000 0.40250  0.96390  0.38050  Biso   1.000  C
  H13      1.0000 0.44420  0.57270  0.91190  Biso   1.000  H
  H14      1.0000 0.55580  0.07270  0.58810  Biso   1.000  H
  H15      1.0000 0.55580  0.42730  0.08810  Biso   1.000  H
  H16      1.0000 0.44420  0.92730  0.41190  Biso   1.000  H
  C21      1.0000 0.32530  0.25850  0.76870  Biso   1.000  C
  C22      1.0000 0.67470  0.75850  0.73130  Biso   1.000  C
  C23      1.0000 0.67470  0.74150  0.23130  Biso   1.000  C
  C24      1.0000 0.32530  0.24150  0.26870  Biso   1.000  C
  H17      1.0000 0.33570  0.20400  0.77950  Biso   1.000  H
  H18      1.0000 0.66430  0.70400  0.72050  Biso   1.000  H
  H19      1.0000 0.66430  0.79600  0.22050  Biso   1.000  H
  H20      1.0000 0.33570  0.29600  0.27950  Biso   1.000  H
  H21      1.0000 0.26610  0.26950  0.76790  Biso   1.000  H
  H22      1.0000 0.73390  0.76950  0.73210  Biso   1.000  H
  H23      1.0000 0.73390  0.73050  0.23210  Biso   1.000  H
  H24      1.0000 0.26610  0.23050  0.26790  Biso   1.000  H
  C25      1.0000 0.43250  0.24880  0.66810  Biso   1.000  C
  C26      1.0000 0.56750  0.74880  0.83190  Biso   1.000  C
  C27      1.0000 0.56750  0.75120  0.33190  Biso   1.000  C
  C28      1.0000 0.43250  0.25120  0.16810  Biso   1.000  C
  C29      1.0000 0.49300  0.20890  0.73740  Biso   1.000  C
  C30      1.0000 0.50700  0.70890  0.76260  Biso   1.000  C
  C31      1.0000 0.50700  0.79110  0.26260  Biso   1.000  C
  C32      1.0000 0.49300  0.29110  0.23740  Biso   1.000  C
  H25      1.0000 0.47870  0.19520  0.78570  Biso   1.000  H
  H26      1.0000 0.52130  0.69520  0.71430  Biso   1.000  H
  H27      1.0000 0.52130  0.80480  0.21430  Biso   1.000  H
  H28      1.0000 0.47870  0.30480  0.28570  Biso   1.000  H
  C33      1.0000 0.57360  0.18950  0.73460  Biso   1.000  C
  C34      1.0000 0.42640  0.68950  0.76540  Biso   1.000  C
  C35      1.0000 0.42640  0.81050  0.26540  Biso   1.000  C
  C36      1.0000 0.57360  0.31050  0.23460  Biso   1.000  C
  H29      1.0000 0.61490  0.16470  0.78300  Biso   1.000  H
  H30      1.0000 0.38510  0.66470  0.71700  Biso   1.000  H
  H31      1.0000 0.38510  0.83530  0.21700  Biso   1.000  H
  H32      1.0000 0.61490  0.33530  0.28300  Biso   1.000  H
  C37      1.0000 0.53500  0.24310  0.59730  Biso   1.000  C
  C38      1.0000 0.46500  0.74310  0.90270  Biso   1.000  C
  C39      1.0000 0.46500  0.75690  0.40270  Biso   1.000  C
  C40      1.0000 0.53500  0.25690  0.09730  Biso   1.000  C
  H33      1.0000 0.54900  0.25460  0.54840  Biso   1.000  H
  H34      1.0000 0.45100  0.75460  0.95160  Biso   1.000  H
  H35      1.0000 0.45100  0.74540  0.45160  Biso   1.000  H
  H36      1.0000 0.54900  0.24540  0.04840  Biso   1.000  H
  C41      1.0000 0.45580  0.26500  0.59720  Biso   1.000  C
  C42      1.0000 0.54420  0.76500  0.90280  Biso   1.000  C
  C43      1.0000 0.54420  0.73500  0.40280  Biso   1.000  C
  C44      1.0000 0.45580  0.23500  0.09720  Biso   1.000  C
  H37      1.0000 0.41620  0.29130  0.54900  Biso   1.000  H
  H38      1.0000 0.58380  0.79130  0.95100  Biso   1.000  H
  H39      1.0000 0.58380  0.70870  0.45100  Biso   1.000  H
  H40      1.0000 0.41620  0.20870  0.04900  Biso   1.000  H
  C45      1.0000 0.09040  0.65740  0.78850  Biso   1.000  C
  C46      1.0000 0.90960  0.15740  0.71150  Biso   1.000  C
  C47      1.0000 0.90960  0.34260  0.21150  Biso   1.000  C
  C48      1.0000 0.09040  0.84260  0.28850  Biso   1.000  C
  H41      1.0000 0.08950  0.68950  0.74280  Biso   1.000  H
  H42      1.0000 0.91050  0.18950  0.75720  Biso   1.000  H
  H43      1.0000 0.91050  0.31050  0.25720  Biso   1.000  H
  H44      1.0000 0.08950  0.81050  0.24280  Biso   1.000  H
  C49      1.0000 0.01000  0.63310  0.78770  Biso   1.000  C
  C50      1.0000 0.99000  0.13310  0.71230  Biso   1.000  C
  C51      1.0000 0.99000  0.36690  0.21230  Biso   1.000  C
  C52      1.0000 0.01000  0.86690  0.28770  Biso   1.000  C
  H45      1.0000 0.95720  0.64810  0.74300  Biso   1.000  H
  H46      1.0000 0.04280  0.14810  0.75700  Biso   1.000  H
  H47      1.0000 0.04280  0.35190  0.25700  Biso   1.000  H
  H48      1.0000 0.95720  0.85190  0.24300  Biso   1.000  H
  C53      1.0000 0.00870  0.58640  0.85410  Biso   1.000  C
  C54      1.0000 0.99130  0.08640  0.64590  Biso   1.000  C
  C55      1.0000 0.99130  0.41360  0.14590  Biso   1.000  C
  C56      1.0000 0.00870  0.91360  0.35410  Biso   1.000  C
  C57      1.0000 0.08860  0.56640  0.91720  Biso   1.000  C
  C58      1.0000 0.91140  0.06640  0.58280  Biso   1.000  C
  C59      1.0000 0.91140  0.43360  0.08280  Biso   1.000  C
  C60      1.0000 0.08860  0.93360  0.41720  Biso   1.000  C
  H49      1.0000 0.08980  0.53400  0.96290  Biso   1.000  H
  H50      1.0000 0.91020  0.03400  0.53710  Biso   1.000  H
  H51      1.0000 0.91020  0.46600  0.03710  Biso   1.000  H
  H52      1.0000 0.08980  0.96600  0.46290  Biso   1.000  H
  C61      1.0000 0.16830  0.59410  0.91410  Biso   1.000  C
  C62      1.0000 0.83170  0.09410  0.58590  Biso   1.000  C
  C63      1.0000 0.83170  0.40590  0.08590  Biso   1.000  C
  C64      1.0000 0.16830  0.90590  0.41410  Biso   1.000  C
  H53      1.0000 0.22200  0.58090  0.95860  Biso   1.000  H
  H54      1.0000 0.77800  0.08090  0.54140  Biso   1.000  H
  H55      1.0000 0.77800  0.41910  0.04140  Biso   1.000  H
  H56      1.0000 0.22200  0.91910  0.45860  Biso   1.000  H
  C65      1.0000 0.82420  0.57480  0.76650  Biso   1.000  C
  C66      1.0000 0.17580  0.07480  0.73350  Biso   1.000  C
  C67      1.0000 0.17580  0.42520  0.23350  Biso   1.000  C
  C68      1.0000 0.82420  0.92520  0.26650  Biso   1.000  C
  H57      1.0000 0.82650  0.63020  0.76200  Biso   1.000  H
  H58      1.0000 0.17350  0.13020  0.73800  Biso   1.000  H
  H59      1.0000 0.17350  0.36980  0.23800  Biso   1.000  H
  H60      1.0000 0.82650  0.86980  0.26200  Biso   1.000  H
  H61      1.0000 0.76830  0.56250  0.77300  Biso   1.000  H
  H62      1.0000 0.23170  0.06250  0.72700  Biso   1.000  H
  H63      1.0000 0.23170  0.43750  0.22700  Biso   1.000  H
  H64      1.0000 0.76830  0.93750  0.27300  Biso   1.000  H
  C69      1.0000 0.79300  0.43860  0.67150  Biso   1.000  C
  C70      1.0000 0.20700  0.93860  0.82850  Biso   1.000  C
  C71      1.0000 0.20700  0.56140  0.32850  Biso   1.000  C
  C72      1.0000 0.79300  0.06140  0.17150  Biso   1.000  C
  C73      1.0000 0.76590  0.40680  0.73450  Biso   1.000  C
  C74      1.0000 0.23410  0.90680  0.76550  Biso   1.000  C
  C75      1.0000 0.23410  0.59320  0.26550  Biso   1.000  C
  C76      1.0000 0.76590  0.09320  0.23450  Biso   1.000  C
  H65      1.0000 0.76270  0.43670  0.78040  Biso   1.000  H
  H66      1.0000 0.23730  0.93670  0.71960  Biso   1.000  H
  H67      1.0000 0.23730  0.56330  0.21960  Biso   1.000  H
  H68      1.0000 0.76270  0.06330  0.28040  Biso   1.000  H
  C77      1.0000 0.74340  0.32960  0.72860  Biso   1.000  C
  C78      1.0000 0.25660  0.82960  0.77140  Biso   1.000  C
  C79      1.0000 0.25660  0.67040  0.27140  Biso   1.000  C
  C80      1.0000 0.74340  0.17040  0.22860  Biso   1.000  C
  H69      1.0000 0.72290  0.30910  0.77010  Biso   1.000  H
  H70      1.0000 0.27710  0.80910  0.72990  Biso   1.000  H
  H71      1.0000 0.27710  0.69090  0.22990  Biso   1.000  H
  H72      1.0000 0.72290  0.19090  0.27010  Biso   1.000  H
  C81      1.0000 0.77730  0.31120  0.60690  Biso   1.000  C
  C82      1.0000 0.22270  0.81120  0.89310  Biso   1.000  C
  C83      1.0000 0.22270  0.68880  0.39310  Biso   1.000  C
  C84      1.0000 0.77730  0.18880  0.10690  Biso   1.000  C
  H73      1.0000 0.78250  0.27880  0.56380  Biso   1.000  H
  H74      1.0000 0.21750  0.77880  0.93620  Biso   1.000  H
  H75      1.0000 0.21750  0.72120  0.43620  Biso   1.000  H
  H76      1.0000 0.78250  0.22120  0.06380  Biso   1.000  H
  C85      1.0000 0.79950  0.39020  0.60580  Biso   1.000  C
  C86      1.0000 0.20050  0.89020  0.89420  Biso   1.000  C
  C87      1.0000 0.20050  0.60980  0.39420  Biso   1.000  C
  C88      1.0000 0.79950  0.10980  0.10580  Biso   1.000  C
  H77      1.0000 0.81800  0.40920  0.56220  Biso   1.000  H
  H78      1.0000 0.18200  0.90920  0.93780  Biso   1.000  H
  H79      1.0000 0.18200  0.59080  0.43780  Biso   1.000  H
  H80      1.0000 0.81800  0.09080  0.06220  Biso   1.000  H
  N17      1.0000 0.36330  0.67910  0.06800  Biso   1.000  N
  N18      1.0000 0.63670  0.17910  0.43200  Biso   1.000  N
  N19      1.0000 0.63670  0.32090  0.93200  Biso   1.000  N
  N20      1.0000 0.36330  0.82090  0.56800  Biso   1.000  N
  O1       1.0000 0.36500  0.64220  0.00390  Biso   1.000  O
  O2       1.0000 0.63500  0.14220  0.49610  Biso   1.000  O
  O3       1.0000 0.63500  0.35780  0.99610  Biso   1.000  O
  O4       1.0000 0.36500  0.85780  0.50390  Biso   1.000  O
  O5       1.0000 0.36920  0.75130  0.06670  Biso   1.000  O
  O6       1.0000 0.63080  0.25130  0.43330  Biso   1.000  O
  O7       1.0000 0.63080  0.24870  0.93330  Biso   1.000  O
  O8       1.0000 0.36920  0.74870  0.56670  Biso   1.000  O
  O9       1.0000 0.36500  0.64620  0.13510  Biso   1.000  O
  O10      1.0000 0.63500  0.14620  0.36490  Biso   1.000  O
  O11      1.0000 0.63500  0.35380  0.86490  Biso   1.000  O
  O12      1.0000 0.36500  0.85380  0.63510  Biso   1.000  O
  N21      1.0000 0.18830  0.64710  0.61700  Biso   1.000  N
  N22      1.0000 0.81170  0.14710  0.88300  Biso   1.000  N
  N23      1.0000 0.81170  0.35290  0.38300  Biso   1.000  N
  N24      1.0000 0.18830  0.85290  0.11700  Biso   1.000  N
  O13      1.0000 0.20860  0.67860  0.68200  Biso   1.000  O
  O14      1.0000 0.79140  0.17860  0.81800  Biso   1.000  O
  O15      1.0000 0.79140  0.32140  0.31800  Biso   1.000  O
  O16      1.0000 0.20860  0.82140  0.18200  Biso   1.000  O
  O17      1.0000 0.23550  0.59450  0.60910  Biso   1.000  O
  O18      1.0000 0.76450  0.09450  0.89090  Biso   1.000  O
  O19      1.0000 0.76450  0.40550  0.39090  Biso   1.000  O
  O20      1.0000 0.23550  0.90550  0.10910  Biso   1.000  O
  O21      1.0000 0.12830  0.65120  0.55280  Biso   1.000  O
  O22      1.0000 0.87170  0.15120  0.94720  Biso   1.000  O
  O23      1.0000 0.87170  0.34880  0.44720  Biso   1.000  O
  O24      1.0000 0.12830  0.84880  0.05280  Biso   1.000  O
