data_image0
_cell_length_a       7.8575
_cell_length_b       12.817
_cell_length_c       19.047
_cell_angle_alpha    90
_cell_angle_beta     90
_cell_angle_gamma    90

_symmetry_space_group_name_H-M    "P 1"
_symmetry_int_tables_number       1

loop_
  _symmetry_equiv_pos_as_xyz
  'x, y, z'

loop_
  _atom_site_label
  _atom_site_occupancy
  _atom_site_fract_x
  _atom_site_fract_y
  _atom_site_fract_z
  _atom_site_thermal_displace_type
  _atom_site_B_iso_or_equiv
  _atom_site_type_symbol
  Cu1      1.0000 0.68587  0.38642  0.01924  Biso   1.000  Cu
  Cu2      1.0000 0.81413  0.61358  0.51924  Biso   1.000  Cu
  Cu3      1.0000 0.31413  0.88642  0.48076  Biso   1.000  Cu
  Cu4      1.0000 0.18587  0.11358  0.98076  Biso   1.000  Cu
  N1       1.0000 0.45980  0.44070  0.04747  Biso   1.000  N
  N2       1.0000 0.04020  0.55930  0.54747  Biso   1.000  N
  N3       1.0000 0.54020  0.94070  0.45253  Biso   1.000  N
  N4       1.0000 0.95980  0.05930  0.95253  Biso   1.000  N
  N5       1.0000 0.63200  0.27310  0.08825  Biso   1.000  N
  N6       1.0000 0.86800  0.72690  0.58825  Biso   1.000  N
  N7       1.0000 0.36800  0.77310  0.41175  Biso   1.000  N
  N8       1.0000 0.13200  0.22690  0.91175  Biso   1.000  N
  O1       1.0000 0.90910  0.32010  0.01788  Biso   1.000  O
  O2       1.0000 0.59090  0.67990  0.51788  Biso   1.000  O
  O3       1.0000 0.09090  0.82010  0.48212  Biso   1.000  O
  O4       1.0000 0.40910  0.17990  0.98212  Biso   1.000  O
  O5       1.0000 0.06880  0.20460  0.07369  Biso   1.000  O
  O6       1.0000 0.43120  0.79540  0.57369  Biso   1.000  O
  O7       1.0000 0.93120  0.70460  0.42631  Biso   1.000  O
  O8       1.0000 0.56880  0.29540  0.92631  Biso   1.000  O
  O9       1.0000 0.75400  0.50450  0.96256  Biso   1.000  O
  O10      1.0000 0.74600  0.49550  0.46256  Biso   1.000  O
  O11      1.0000 0.24600  0.00450  0.53744  Biso   1.000  O
  O12      1.0000 0.25400  0.99550  0.03744  Biso   1.000  O
  O13      1.0000 0.76690  0.61850  0.04904  Biso   1.000  O
  O14      1.0000 0.73310  0.38150  0.54904  Biso   1.000  O
  O15      1.0000 0.23310  0.11850  0.45096  Biso   1.000  O
  O16      1.0000 0.26690  0.88150  0.95096  Biso   1.000  O
  O17      1.0000 0.24590  0.02420  0.32756  Biso   1.000  O
  O18      1.0000 0.25410  0.97580  0.82756  Biso   1.000  O
  O19      1.0000 0.75410  0.52420  0.17244  Biso   1.000  O
  O20      1.0000 0.74590  0.47580  0.67244  Biso   1.000  O
  H1       1.0000 0.24430  0.05990  0.36330  Biso   1.000  H
  H2       1.0000 0.25570  0.94010  0.86330  Biso   1.000  H
  H3       1.0000 0.75570  0.55990  0.13670  Biso   1.000  H
  H4       1.0000 0.74430  0.44010  0.63670  Biso   1.000  H
  C1       1.0000 0.37170  0.51730  0.01530  Biso   1.000  C
  C2       1.0000 0.12830  0.48270  0.51530  Biso   1.000  C
  C3       1.0000 0.62830  0.01730  0.48470  Biso   1.000  C
  C4       1.0000 0.87170  0.98270  0.98470  Biso   1.000  C
  H5       1.0000 0.41930  0.55090  0.97670  Biso   1.000  H
  H6       1.0000 0.08070  0.44910  0.47670  Biso   1.000  H
  H7       1.0000 0.58070  0.05090  0.52330  Biso   1.000  H
  H8       1.0000 0.91930  0.94910  0.02330  Biso   1.000  H
  C5       1.0000 0.21420  0.54640  0.03810  Biso   1.000  C
  C6       1.0000 0.28580  0.45360  0.53810  Biso   1.000  C
  C7       1.0000 0.78580  0.04640  0.46190  Biso   1.000  C
  C8       1.0000 0.71420  0.95360  0.96190  Biso   1.000  C
  H9       1.0000 0.15470  0.59890  0.01500  Biso   1.000  H
  H10      1.0000 0.34530  0.40110  0.51500  Biso   1.000  H
  H11      1.0000 0.84530  0.09890  0.48500  Biso   1.000  H
  H12      1.0000 0.65470  0.90110  0.98500  Biso   1.000  H
  C9       1.0000 0.14380  0.49740  0.09570  Biso   1.000  C
  C10      1.0000 0.35620  0.50260  0.59570  Biso   1.000  C
  C11      1.0000 0.85620  0.99740  0.40430  Biso   1.000  C
  C12      1.0000 0.64380  0.00260  0.90430  Biso   1.000  C
  H13      1.0000 0.03770  0.51760  0.11240  Biso   1.000  H
  H14      1.0000 0.46230  0.48240  0.61240  Biso   1.000  H
  H15      1.0000 0.96230  0.01760  0.38760  Biso   1.000  H
  H16      1.0000 0.53770  0.98240  0.88760  Biso   1.000  H
  C13      1.0000 0.23220  0.41830  0.12810  Biso   1.000  C
  C14      1.0000 0.26780  0.58170  0.62810  Biso   1.000  C
  C15      1.0000 0.76780  0.91830  0.37190  Biso   1.000  C
  C16      1.0000 0.73220  0.08170  0.87190  Biso   1.000  C
  H17      1.0000 0.18580  0.38330  0.16630  Biso   1.000  H
  H18      1.0000 0.31420  0.61670  0.66630  Biso   1.000  H
  H19      1.0000 0.81420  0.88330  0.33370  Biso   1.000  H
  H20      1.0000 0.68580  0.11670  0.83370  Biso   1.000  H
  C17      1.0000 0.39100  0.39200  0.10289  Biso   1.000  C
  C18      1.0000 0.10900  0.60800  0.60289  Biso   1.000  C
  C19      1.0000 0.60900  0.89200  0.39711  Biso   1.000  C
  C20      1.0000 0.89100  0.10800  0.89711  Biso   1.000  C
  C21      1.0000 0.49730  0.30820  0.13660  Biso   1.000  C
  C22      1.0000 0.00270  0.69180  0.63660  Biso   1.000  C
  C23      1.0000 0.50270  0.80820  0.36340  Biso   1.000  C
  C24      1.0000 0.99730  0.19180  0.86340  Biso   1.000  C
  H21      1.0000 0.54840  0.33500  0.17930  Biso   1.000  H
  H22      1.0000 0.95160  0.66500  0.67930  Biso   1.000  H
  H23      1.0000 0.45160  0.83500  0.32070  Biso   1.000  H
  H24      1.0000 0.04840  0.16500  0.82070  Biso   1.000  H
  H25      1.0000 0.42540  0.24950  0.14900  Biso   1.000  H
  H26      1.0000 0.07460  0.75050  0.64900  Biso   1.000  H
  H27      1.0000 0.57460  0.74950  0.35100  Biso   1.000  H
  H28      1.0000 0.92540  0.25050  0.85100  Biso   1.000  H
  C25      1.0000 0.79420  0.24090  0.12104  Biso   1.000  C
  C26      1.0000 0.70580  0.75910  0.62104  Biso   1.000  C
  C27      1.0000 0.20580  0.74090  0.37896  Biso   1.000  C
  C28      1.0000 0.29420  0.25910  0.87896  Biso   1.000  C
  H29      1.0000 0.81710  0.28820  0.16040  Biso   1.000  H
  H30      1.0000 0.68290  0.71180  0.66040  Biso   1.000  H
  H31      1.0000 0.18290  0.78820  0.33960  Biso   1.000  H
  H32      1.0000 0.31710  0.21180  0.83960  Biso   1.000  H
  C29      1.0000 0.93680  0.25470  0.06693  Biso   1.000  C
  C30      1.0000 0.56320  0.74530  0.56693  Biso   1.000  C
  C31      1.0000 0.06320  0.75470  0.43307  Biso   1.000  C
  C32      1.0000 0.43680  0.24530  0.93307  Biso   1.000  C
  C33      1.0000 0.79410  0.12850  0.14960  Biso   1.000  C
  C34      1.0000 0.70590  0.87150  0.64960  Biso   1.000  C
  C35      1.0000 0.20590  0.62850  0.35040  Biso   1.000  C
  C36      1.0000 0.29410  0.37150  0.85040  Biso   1.000  C
  H33      1.0000 0.79020  0.08060  0.11010  Biso   1.000  H
  H34      1.0000 0.70980  0.91940  0.61010  Biso   1.000  H
  H35      1.0000 0.20980  0.58060  0.38990  Biso   1.000  H
  H36      1.0000 0.29020  0.41940  0.88990  Biso   1.000  H
  H37      1.0000 0.90040  0.11650  0.17420  Biso   1.000  H
  H38      1.0000 0.59960  0.88350  0.67420  Biso   1.000  H
  H39      1.0000 0.09960  0.61650  0.32580  Biso   1.000  H
  H40      1.0000 0.40040  0.38350  0.82580  Biso   1.000  H
  C37      1.0000 0.64850  0.10290  0.19865  Biso   1.000  C
  C38      1.0000 0.85150  0.89710  0.69865  Biso   1.000  C
  C39      1.0000 0.35150  0.60290  0.30135  Biso   1.000  C
  C40      1.0000 0.14850  0.39710  0.80135  Biso   1.000  C
  C41      1.0000 0.64350  0.13810  0.26668  Biso   1.000  C
  C42      1.0000 0.85650  0.86190  0.76668  Biso   1.000  C
  C43      1.0000 0.35650  0.63810  0.23332  Biso   1.000  C
  C44      1.0000 0.14350  0.36190  0.73332  Biso   1.000  C
  H41      1.0000 0.73320  0.17800  0.28370  Biso   1.000  H
  H42      1.0000 0.76680  0.82200  0.78370  Biso   1.000  H
  H43      1.0000 0.26680  0.67800  0.21630  Biso   1.000  H
  H44      1.0000 0.23320  0.32200  0.71630  Biso   1.000  H
  C45      1.0000 0.50860  0.11550  0.31019  Biso   1.000  C
  C46      1.0000 0.99140  0.88450  0.81019  Biso   1.000  C
  C47      1.0000 0.49140  0.61550  0.18981  Biso   1.000  C
  C48      1.0000 0.00860  0.38450  0.68981  Biso   1.000  C
  H45      1.0000 0.50690  0.14120  0.35580  Biso   1.000  H
  H46      1.0000 0.99310  0.85880  0.85580  Biso   1.000  H
  H47      1.0000 0.49310  0.64120  0.14420  Biso   1.000  H
  H48      1.0000 0.00690  0.35880  0.64420  Biso   1.000  H
  C49      1.0000 0.37610  0.05480  0.28630  Biso   1.000  C
  C50      1.0000 0.12390  0.94520  0.78630  Biso   1.000  C
  C51      1.0000 0.62390  0.55480  0.21370  Biso   1.000  C
  C52      1.0000 0.87610  0.44520  0.71370  Biso   1.000  C
  C53      1.0000 0.37610  0.02230  0.21740  Biso   1.000  C
  C54      1.0000 0.12390  0.97770  0.71740  Biso   1.000  C
  C55      1.0000 0.62390  0.52230  0.28260  Biso   1.000  C
  C56      1.0000 0.87610  0.47770  0.78260  Biso   1.000  C
  H49      1.0000 0.28450  0.98470  0.19960  Biso   1.000  H
  H50      1.0000 0.21550  0.01530  0.69960  Biso   1.000  H
  H51      1.0000 0.71550  0.48470  0.30040  Biso   1.000  H
  H52      1.0000 0.78450  0.51530  0.80040  Biso   1.000  H
  C57      1.0000 0.51240  0.04580  0.17530  Biso   1.000  C
  C58      1.0000 0.98760  0.95420  0.67530  Biso   1.000  C
  C59      1.0000 0.48760  0.54580  0.32470  Biso   1.000  C
  C60      1.0000 0.01240  0.45420  0.82470  Biso   1.000  C
  H53      1.0000 0.51240  0.02210  0.12910  Biso   1.000  H
  H54      1.0000 0.98760  0.97790  0.62910  Biso   1.000  H
  H55      1.0000 0.48760  0.52210  0.37090  Biso   1.000  H
  H56      1.0000 0.01240  0.47790  0.87090  Biso   1.000  H
  C61      1.0000 0.77980  0.59420  0.98650  Biso   1.000  C
  C62      1.0000 0.72020  0.40580  0.48650  Biso   1.000  C
  C63      1.0000 0.22020  0.09420  0.51350  Biso   1.000  C
  C64      1.0000 0.27980  0.90580  0.01350  Biso   1.000  C
  C65      1.0000 0.83060  0.67710  0.93500  Biso   1.000  C
  C66      1.0000 0.66940  0.32290  0.43500  Biso   1.000  C
  C67      1.0000 0.16940  0.17710  0.56500  Biso   1.000  C
  C68      1.0000 0.33060  0.82290  0.06500  Biso   1.000  C
  H57      1.0000 0.73120  0.70270  0.91130  Biso   1.000  H
  H58      1.0000 0.76880  0.29730  0.41130  Biso   1.000  H
  H59      1.0000 0.26880  0.20270  0.58870  Biso   1.000  H
  H60      1.0000 0.23120  0.79730  0.08870  Biso   1.000  H
  H61      1.0000 0.90820  0.64820  0.90130  Biso   1.000  H
  H62      1.0000 0.59180  0.35180  0.40130  Biso   1.000  H
  H63      1.0000 0.09180  0.14820  0.59870  Biso   1.000  H
  H64      1.0000 0.40820  0.85180  0.09870  Biso   1.000  H
  H65      1.0000 0.88490  0.73340  0.95950  Biso   1.000  H
  H66      1.0000 0.61510  0.26660  0.45950  Biso   1.000  H
  H67      1.0000 0.11510  0.23340  0.54050  Biso   1.000  H
  H68      1.0000 0.38490  0.76660  0.04050  Biso   1.000  H
  O21      1.0000 0.86370  0.80810  0.10500  Biso   1.000  O
  O22      1.0000 0.63630  0.19190  0.60500  Biso   1.000  O
  O23      1.0000 0.13630  0.30810  0.39500  Biso   1.000  O
  O24      1.0000 0.36370  0.69190  0.89500  Biso   1.000  O
  H69      1.0000 0.86150  0.74660  0.09330  Biso   1.000  H
  H70      1.0000 0.63850  0.25340  0.59330  Biso   1.000  H
  H71      1.0000 0.13850  0.24660  0.40670  Biso   1.000  H
  H72      1.0000 0.36150  0.75340  0.90670  Biso   1.000  H
  C69      1.0000 0.86670  0.81470  0.17440  Biso   1.000  C
  C70      1.0000 0.63330  0.18530  0.67440  Biso   1.000  C
  C71      1.0000 0.13330  0.31470  0.32560  Biso   1.000  C
  C72      1.0000 0.36670  0.68530  0.82560  Biso   1.000  C
  H73      1.0000 0.90160  0.88350  0.18800  Biso   1.000  H
  H74      1.0000 0.59840  0.11650  0.68800  Biso   1.000  H
  H75      1.0000 0.09840  0.38350  0.31200  Biso   1.000  H
  H76      1.0000 0.40160  0.61650  0.81200  Biso   1.000  H
  H77      1.0000 0.94560  0.76440  0.19280  Biso   1.000  H
  H78      1.0000 0.55440  0.23560  0.69280  Biso   1.000  H
  H79      1.0000 0.05440  0.26440  0.30720  Biso   1.000  H
  H80      1.0000 0.44560  0.73560  0.80720  Biso   1.000  H
  H81      1.0000 0.75510  0.80080  0.19260  Biso   1.000  H
  H82      1.0000 0.74490  0.19920  0.69260  Biso   1.000  H
  H83      1.0000 0.24490  0.30080  0.30740  Biso   1.000  H
  H84      1.0000 0.25510  0.69920  0.80740  Biso   1.000  H
