data_image0
_cell_length_a       6.6609
_cell_length_b       18.389
_cell_length_c       14.523
_cell_angle_alpha    90
_cell_angle_beta     98.046
_cell_angle_gamma    90

_symmetry_space_group_name_H-M    "P 1"
_symmetry_int_tables_number       1

loop_
  _symmetry_equiv_pos_as_xyz
  'x, y, z'

loop_
  _atom_site_label
  _atom_site_occupancy
  _atom_site_fract_x
  _atom_site_fract_y
  _atom_site_fract_z
  _atom_site_thermal_displace_type
  _atom_site_B_iso_or_equiv
  _atom_site_type_symbol
  Cu1      1.0000 0.22222  0.19246  0.14039  Biso   1.000  Cu
  Cu2      1.0000 0.27778  0.69246  0.35961  Biso   1.000  Cu
  Cu3      1.0000 0.77778  0.80754  0.85961  Biso   1.000  Cu
  Cu4      1.0000 0.72222  0.30754  0.64039  Biso   1.000  Cu
  N1       1.0000 0.06690  0.09850  0.12000  Biso   1.000  N
  N2       1.0000 0.43310  0.59850  0.38000  Biso   1.000  N
  N3       1.0000 0.93310  0.90150  0.88000  Biso   1.000  N
  N4       1.0000 0.56690  0.40150  0.62000  Biso   1.000  N
  N5       1.0000 0.43700  0.12456  0.20370  Biso   1.000  N
  N6       1.0000 0.06300  0.62456  0.29630  Biso   1.000  N
  N7       1.0000 0.56300  0.87544  0.79630  Biso   1.000  N
  N8       1.0000 0.93700  0.37544  0.70370  Biso   1.000  N
  O1       1.0000 0.40550  0.27455  0.13280  Biso   1.000  O
  O2       1.0000 0.09450  0.77455  0.36720  Biso   1.000  O
  O3       1.0000 0.59450  0.72545  0.86720  Biso   1.000  O
  O4       1.0000 0.90550  0.22545  0.63280  Biso   1.000  O
  O5       1.0000 0.54140  0.21003  0.02756  Biso   1.000  O
  O6       1.0000 0.95860  0.71003  0.47244  Biso   1.000  O
  O7       1.0000 0.45860  0.78997  0.97244  Biso   1.000  O
  O8       1.0000 0.04140  0.28997  0.52756  Biso   1.000  O
  O9       1.0000 0.99320  0.25177  0.09006  Biso   1.000  O
  O10      1.0000 0.50680  0.75177  0.40994  Biso   1.000  O
  O11      1.0000 0.00680  0.74823  0.90994  Biso   1.000  O
  O12      1.0000 0.49320  0.24823  0.59006  Biso   1.000  O
  O13      1.0000 0.98170  0.24651  0.93501  Biso   1.000  O
  O14      1.0000 0.51830  0.74651  0.56499  Biso   1.000  O
  O15      1.0000 0.01830  0.75349  0.06499  Biso   1.000  O
  O16      1.0000 0.48170  0.25349  0.43501  Biso   1.000  O
  O17      1.0000 0.15020  0.21950  0.28480  Biso   1.000  O
  O18      1.0000 0.34980  0.71950  0.21520  Biso   1.000  O
  O19      1.0000 0.84980  0.78050  0.71520  Biso   1.000  O
  O20      1.0000 0.65020  0.28050  0.78480  Biso   1.000  O
  O21      1.0000 0.32800  0.20350  0.85090  Biso   1.000  O
  O22      1.0000 0.17200  0.70350  0.64910  Biso   1.000  O
  O23      1.0000 0.67200  0.79650  0.14910  Biso   1.000  O
  O24      1.0000 0.82800  0.29650  0.35090  Biso   1.000  O
  C1       1.0000 0.51580  0.26779  0.06810  Biso   1.000  C
  C2       1.0000 0.98420  0.76779  0.43190  Biso   1.000  C
  C3       1.0000 0.48420  0.73221  0.93190  Biso   1.000  C
  C4       1.0000 0.01580  0.23221  0.56810  Biso   1.000  C
  C5       1.0000 0.60770  0.33707  0.03710  Biso   1.000  C
  C6       1.0000 0.89230  0.83707  0.46290  Biso   1.000  C
  C7       1.0000 0.39230  0.66293  0.96290  Biso   1.000  C
  C8       1.0000 0.10770  0.16293  0.53710  Biso   1.000  C
  C9       1.0000 0.49670  0.40074  0.03640  Biso   1.000  C
  C10      1.0000 0.00330  0.90074  0.46360  Biso   1.000  C
  C11      1.0000 0.50330  0.59926  0.96360  Biso   1.000  C
  C12      1.0000 0.99670  0.09926  0.53640  Biso   1.000  C
  H1       1.0000 0.37550  0.40030  0.06130  Biso   1.000  H
  H2       1.0000 0.12450  0.90030  0.43870  Biso   1.000  H
  H3       1.0000 0.62450  0.59970  0.93870  Biso   1.000  H
  H4       1.0000 0.87550  0.09970  0.56130  Biso   1.000  H
  C13      1.0000 0.56030  0.46570  0.99950  Biso   1.000  C
  C14      1.0000 0.93970  0.96570  0.50050  Biso   1.000  C
  C15      1.0000 0.43970  0.53430  0.00050  Biso   1.000  C
  C16      1.0000 0.06030  0.03430  0.49950  Biso   1.000  C
  C17      1.0000 0.74100  0.46327  0.96190  Biso   1.000  C
  C18      1.0000 0.75900  0.96327  0.53810  Biso   1.000  C
  C19      1.0000 0.25900  0.53673  0.03810  Biso   1.000  C
  C20      1.0000 0.24100  0.03673  0.46190  Biso   1.000  C
  H5       1.0000 0.78640  0.50500  0.93500  Biso   1.000  H
  H6       1.0000 0.71360  0.00500  0.56500  Biso   1.000  H
  H7       1.0000 0.21360  0.49500  0.06500  Biso   1.000  H
  H8       1.0000 0.28640  0.99500  0.43500  Biso   1.000  H
  C21      1.0000 0.85470  0.40036  0.96350  Biso   1.000  C
  C22      1.0000 0.64530  0.90036  0.53650  Biso   1.000  C
  C23      1.0000 0.14530  0.59964  0.03650  Biso   1.000  C
  C24      1.0000 0.35470  0.09964  0.46350  Biso   1.000  C
  H9       1.0000 0.97580  0.40070  0.93860  Biso   1.000  H
  H10      1.0000 0.52420  0.90070  0.56140  Biso   1.000  H
  H11      1.0000 0.02420  0.59930  0.06140  Biso   1.000  H
  H12      1.0000 0.47580  0.09930  0.43860  Biso   1.000  H
  C25      1.0000 0.79140  0.33645  0.00190  Biso   1.000  C
  C26      1.0000 0.70860  0.83645  0.49810  Biso   1.000  C
  C27      1.0000 0.20860  0.66355  0.99810  Biso   1.000  C
  C28      1.0000 0.29140  0.16355  0.50190  Biso   1.000  C
  C29      1.0000 0.93190  0.27187  0.00790  Biso   1.000  C
  C30      1.0000 0.56810  0.77187  0.49210  Biso   1.000  C
  C31      1.0000 0.06810  0.72813  0.99210  Biso   1.000  C
  C32      1.0000 0.43190  0.22813  0.50790  Biso   1.000  C
  C33      1.0000 0.88370  0.08700  0.07360  Biso   1.000  C
  C34      1.0000 0.61630  0.58700  0.42640  Biso   1.000  C
  C35      1.0000 0.11630  0.91300  0.92640  Biso   1.000  C
  C36      1.0000 0.38370  0.41300  0.57360  Biso   1.000  C
  H13      1.0000 0.81280  0.12590  0.04380  Biso   1.000  H
  H14      1.0000 0.68720  0.62590  0.45620  Biso   1.000  H
  H15      1.0000 0.18720  0.87410  0.95620  Biso   1.000  H
  H16      1.0000 0.31280  0.37410  0.54380  Biso   1.000  H
  C37      1.0000 0.79480  0.01850  0.06840  Biso   1.000  C
  C38      1.0000 0.70520  0.51850  0.43160  Biso   1.000  C
  C39      1.0000 0.20520  0.98150  0.93160  Biso   1.000  C
  C40      1.0000 0.29480  0.48150  0.56840  Biso   1.000  C
  H17      1.0000 0.66720  0.01220  0.03420  Biso   1.000  H
  H18      1.0000 0.83280  0.51220  0.46580  Biso   1.000  H
  H19      1.0000 0.33280  0.98780  0.96580  Biso   1.000  H
  H20      1.0000 0.16720  0.48780  0.53420  Biso   1.000  H
  C41      1.0000 0.89180  0.96060  0.11260  Biso   1.000  C
  C42      1.0000 0.60820  0.46060  0.38740  Biso   1.000  C
  C43      1.0000 0.10820  0.03940  0.88740  Biso   1.000  C
  C44      1.0000 0.39180  0.53940  0.61260  Biso   1.000  C
  H21      1.0000 0.83020  0.91520  0.10980  Biso   1.000  H
  H22      1.0000 0.66980  0.41520  0.39020  Biso   1.000  H
  H23      1.0000 0.16980  0.08480  0.89020  Biso   1.000  H
  H24      1.0000 0.33020  0.58480  0.60980  Biso   1.000  H
  C45      1.0000 0.08670  0.97040  0.16260  Biso   1.000  C
  C46      1.0000 0.41330  0.47040  0.33740  Biso   1.000  C
  C47      1.0000 0.91330  0.02960  0.83740  Biso   1.000  C
  C48      1.0000 0.58670  0.52960  0.66260  Biso   1.000  C
  C49      1.0000 0.20930  0.91430  0.21170  Biso   1.000  C
  C50      1.0000 0.29070  0.41430  0.28830  Biso   1.000  C
  C51      1.0000 0.79070  0.08570  0.78830  Biso   1.000  C
  C52      1.0000 0.70930  0.58570  0.71170  Biso   1.000  C
  H25      1.0000 0.15700  0.86750  0.21340  Biso   1.000  H
  H26      1.0000 0.34300  0.36750  0.28660  Biso   1.000  H
  H27      1.0000 0.84300  0.13250  0.78660  Biso   1.000  H
  H28      1.0000 0.65700  0.63250  0.71340  Biso   1.000  H
  C53      1.0000 0.39720  0.92790  0.25520  Biso   1.000  C
  C54      1.0000 0.10280  0.42790  0.24480  Biso   1.000  C
  C55      1.0000 0.60280  0.07210  0.74480  Biso   1.000  C
  C56      1.0000 0.89720  0.57210  0.75520  Biso   1.000  C
  H29      1.0000 0.47160  0.89050  0.28680  Biso   1.000  H
  H30      1.0000 0.02840  0.39050  0.21320  Biso   1.000  H
  H31      1.0000 0.52840  0.10950  0.71320  Biso   1.000  H
  H32      1.0000 0.97160  0.60950  0.78680  Biso   1.000  H
  C57      1.0000 0.48530  0.99890  0.25390  Biso   1.000  C
  C58      1.0000 0.01470  0.49890  0.24610  Biso   1.000  C
  C59      1.0000 0.51470  0.00110  0.74610  Biso   1.000  C
  C60      1.0000 0.98530  0.50110  0.75390  Biso   1.000  C
  C61      1.0000 0.68110  0.01690  0.29470  Biso   1.000  C
  C62      1.0000 0.81890  0.51690  0.20530  Biso   1.000  C
  C63      1.0000 0.31890  0.98310  0.70530  Biso   1.000  C
  C64      1.0000 0.18110  0.48310  0.79470  Biso   1.000  C
  H33      1.0000 0.76550  0.98130  0.32460  Biso   1.000  H
  H34      1.0000 0.73450  0.48130  0.17540  Biso   1.000  H
  H35      1.0000 0.23450  0.01870  0.67540  Biso   1.000  H
  H36      1.0000 0.26550  0.51870  0.82460  Biso   1.000  H
  C65      1.0000 0.74950  0.08770  0.29060  Biso   1.000  C
  C66      1.0000 0.75050  0.58770  0.20940  Biso   1.000  C
  C67      1.0000 0.25050  0.91230  0.70940  Biso   1.000  C
  C68      1.0000 0.24950  0.41230  0.79060  Biso   1.000  C
  H37      1.0000 0.87920  0.10030  0.31850  Biso   1.000  H
  H38      1.0000 0.62080  0.60030  0.18150  Biso   1.000  H
  H39      1.0000 0.12080  0.89970  0.68150  Biso   1.000  H
  H40      1.0000 0.37920  0.39970  0.81850  Biso   1.000  H
  C69      1.0000 0.62260  0.13970  0.24460  Biso   1.000  C
  C70      1.0000 0.87740  0.63970  0.25540  Biso   1.000  C
  C71      1.0000 0.37740  0.86030  0.75540  Biso   1.000  C
  C72      1.0000 0.12260  0.36030  0.74460  Biso   1.000  C
  H41      1.0000 0.66970  0.18720  0.24230  Biso   1.000  H
  H42      1.0000 0.83030  0.68720  0.25770  Biso   1.000  H
  H43      1.0000 0.33030  0.81280  0.75770  Biso   1.000  H
  H44      1.0000 0.16970  0.31280  0.74230  Biso   1.000  H
  C73      1.0000 0.36740  0.05505  0.20840  Biso   1.000  C
  C74      1.0000 0.13260  0.55505  0.29160  Biso   1.000  C
  C75      1.0000 0.63260  0.94495  0.79160  Biso   1.000  C
  C76      1.0000 0.86740  0.44495  0.70840  Biso   1.000  C
  C77      1.0000 0.16850  0.04082  0.16290  Biso   1.000  C
  C78      1.0000 0.33150  0.54082  0.33710  Biso   1.000  C
  C79      1.0000 0.83150  0.95918  0.83710  Biso   1.000  C
  C80      1.0000 0.66850  0.45918  0.66290  Biso   1.000  C
  H45      1.0000 0.04500  0.24400  0.28800  Biso   1.000  H
  H46      1.0000 0.45500  0.74400  0.21200  Biso   1.000  H
  H47      1.0000 0.95500  0.75600  0.71200  Biso   1.000  H
  H48      1.0000 0.54500  0.25600  0.78800  Biso   1.000  H
  H49      1.0000 0.20900  0.21700  0.85800  Biso   1.000  H
  H50      1.0000 0.29100  0.71700  0.64200  Biso   1.000  H
  H51      1.0000 0.79100  0.78300  0.14200  Biso   1.000  H
  H52      1.0000 0.70900  0.28300  0.35800  Biso   1.000  H
  H53      1.0000 0.24700  0.22700  0.32900  Biso   1.000  H
  H54      1.0000 0.25300  0.72700  0.17100  Biso   1.000  H
  H55      1.0000 0.75300  0.77300  0.67100  Biso   1.000  H
  H56      1.0000 0.74700  0.27300  0.82900  Biso   1.000  H
  H57      1.0000 0.41000  0.20500  0.90200  Biso   1.000  H
  H58      1.0000 0.09000  0.70500  0.59800  Biso   1.000  H
  H59      1.0000 0.59000  0.79500  0.09800  Biso   1.000  H
  H60      1.0000 0.91000  0.29500  0.40200  Biso   1.000  H
