data_image0
_cell_length_a       6.6541
_cell_length_b       18.358
_cell_length_c       14.495
_cell_angle_alpha    90
_cell_angle_beta     98.063
_cell_angle_gamma    90

_symmetry_space_group_name_H-M    "P 1"
_symmetry_int_tables_number       1

loop_
  _symmetry_equiv_pos_as_xyz
  'x, y, z'

loop_
  _atom_site_label
  _atom_site_occupancy
  _atom_site_fract_x
  _atom_site_fract_y
  _atom_site_fract_z
  _atom_site_thermal_displace_type
  _atom_site_B_iso_or_equiv
  _atom_site_type_symbol
  Cu1      1.0000 0.22214  0.19248  0.64036  Biso   1.000  Cu
  Cu2      1.0000 0.27786  0.69247  0.85964  Biso   1.000  Cu
  Cu3      1.0000 0.77786  0.80752  0.35964  Biso   1.000  Cu
  Cu4      1.0000 0.72214  0.30752  0.14036  Biso   1.000  Cu
  C1       1.0000 0.62230  0.13946  0.74410  Biso   1.000  C
  C2       1.0000 0.87770  0.63946  0.75590  Biso   1.000  C
  C3       1.0000 0.37770  0.86054  0.25590  Biso   1.000  C
  C4       1.0000 0.12230  0.36054  0.24410  Biso   1.000  C
  H1       1.0000 0.66990  0.18690  0.74120  Biso   1.000  H
  H2       1.0000 0.83010  0.68690  0.75880  Biso   1.000  H
  H3       1.0000 0.33010  0.81310  0.25880  Biso   1.000  H
  H4       1.0000 0.16990  0.31310  0.24120  Biso   1.000  H
  C5       1.0000 0.74970  0.08710  0.79080  Biso   1.000  C
  C6       1.0000 0.75030  0.58710  0.70920  Biso   1.000  C
  C7       1.0000 0.25030  0.91290  0.20920  Biso   1.000  C
  C8       1.0000 0.24970  0.41290  0.29080  Biso   1.000  C
  H5       1.0000 0.87950  0.09960  0.81870  Biso   1.000  H
  H6       1.0000 0.62050  0.59960  0.68130  Biso   1.000  H
  H7       1.0000 0.12050  0.90040  0.18130  Biso   1.000  H
  H8       1.0000 0.37950  0.40040  0.31870  Biso   1.000  H
  C9       1.0000 0.68190  0.01750  0.79500  Biso   1.000  C
  C10      1.0000 0.81810  0.51750  0.70500  Biso   1.000  C
  C11      1.0000 0.31810  0.98250  0.20500  Biso   1.000  C
  C12      1.0000 0.18190  0.48250  0.29500  Biso   1.000  C
  H9       1.0000 0.76640  0.98210  0.82560  Biso   1.000  H
  H10      1.0000 0.73360  0.48210  0.67440  Biso   1.000  H
  H11      1.0000 0.23360  0.01790  0.17440  Biso   1.000  H
  H12      1.0000 0.26640  0.51790  0.32560  Biso   1.000  H
  C13      1.0000 0.48600  0.99867  0.75380  Biso   1.000  C
  C14      1.0000 0.01400  0.49867  0.74620  Biso   1.000  C
  C15      1.0000 0.51400  0.00133  0.24620  Biso   1.000  C
  C16      1.0000 0.98600  0.50133  0.25380  Biso   1.000  C
  C17      1.0000 0.39720  0.92761  0.75460  Biso   1.000  C
  C18      1.0000 0.10280  0.42761  0.74540  Biso   1.000  C
  C19      1.0000 0.60280  0.07239  0.24540  Biso   1.000  C
  C20      1.0000 0.89720  0.57239  0.25460  Biso   1.000  C
  H13      1.0000 0.47210  0.88990  0.78540  Biso   1.000  H
  H14      1.0000 0.02790  0.38990  0.71460  Biso   1.000  H
  H15      1.0000 0.52790  0.11010  0.21460  Biso   1.000  H
  H16      1.0000 0.97210  0.61010  0.28540  Biso   1.000  H
  C21      1.0000 0.20850  0.91407  0.71190  Biso   1.000  C
  C22      1.0000 0.29150  0.41407  0.78810  Biso   1.000  C
  C23      1.0000 0.79150  0.08593  0.28810  Biso   1.000  C
  C24      1.0000 0.70850  0.58593  0.21190  Biso   1.000  C
  H17      1.0000 0.15520  0.86740  0.71440  Biso   1.000  H
  H18      1.0000 0.34480  0.36740  0.78560  Biso   1.000  H
  H19      1.0000 0.84480  0.13260  0.28560  Biso   1.000  H
  H20      1.0000 0.65520  0.63260  0.21440  Biso   1.000  H
  C25      1.0000 0.08780  0.97000  0.66270  Biso   1.000  C
  C26      1.0000 0.41220  0.47000  0.83730  Biso   1.000  C
  C27      1.0000 0.91220  0.03000  0.33730  Biso   1.000  C
  C28      1.0000 0.58780  0.53000  0.16270  Biso   1.000  C
  C29      1.0000 0.89330  0.96050  0.61260  Biso   1.000  C
  C30      1.0000 0.60670  0.46050  0.88740  Biso   1.000  C
  C31      1.0000 0.10670  0.03950  0.38740  Biso   1.000  C
  C32      1.0000 0.39330  0.53950  0.11260  Biso   1.000  C
  H21      1.0000 0.83180  0.91490  0.60970  Biso   1.000  H
  H22      1.0000 0.66820  0.41490  0.89030  Biso   1.000  H
  H23      1.0000 0.16820  0.08510  0.39030  Biso   1.000  H
  H24      1.0000 0.33180  0.58510  0.10970  Biso   1.000  H
  C33      1.0000 0.79500  0.01860  0.56810  Biso   1.000  C
  C34      1.0000 0.70500  0.51860  0.93190  Biso   1.000  C
  C35      1.0000 0.20500  0.98140  0.43190  Biso   1.000  C
  C36      1.0000 0.29500  0.48140  0.06810  Biso   1.000  C
  H25      1.0000 0.66720  0.01230  0.53390  Biso   1.000  H
  H26      1.0000 0.83280  0.51230  0.96610  Biso   1.000  H
  H27      1.0000 0.33280  0.98770  0.46610  Biso   1.000  H
  H28      1.0000 0.16720  0.48770  0.03390  Biso   1.000  H
  C37      1.0000 0.88410  0.08700  0.57360  Biso   1.000  C
  C38      1.0000 0.61590  0.58700  0.92640  Biso   1.000  C
  C39      1.0000 0.11590  0.91300  0.42640  Biso   1.000  C
  C40      1.0000 0.38410  0.41300  0.07360  Biso   1.000  C
  H29      1.0000 0.81300  0.12600  0.54380  Biso   1.000  H
  H30      1.0000 0.68700  0.62600  0.95620  Biso   1.000  H
  H31      1.0000 0.18700  0.87400  0.45620  Biso   1.000  H
  H32      1.0000 0.31300  0.37400  0.04380  Biso   1.000  H
  C41      1.0000 0.16890  0.04052  0.66320  Biso   1.000  C
  C42      1.0000 0.33110  0.54052  0.83680  Biso   1.000  C
  C43      1.0000 0.83110  0.95948  0.33680  Biso   1.000  C
  C44      1.0000 0.66890  0.45948  0.16320  Biso   1.000  C
  C45      1.0000 0.36820  0.05495  0.70850  Biso   1.000  C
  C46      1.0000 0.13180  0.55495  0.79150  Biso   1.000  C
  C47      1.0000 0.63180  0.94505  0.29150  Biso   1.000  C
  C48      1.0000 0.86820  0.44505  0.20850  Biso   1.000  C
  C49      1.0000 0.79190  0.33668  0.50144  Biso   1.000  C
  C50      1.0000 0.70810  0.83668  0.99856  Biso   1.000  C
  C51      1.0000 0.20810  0.66332  0.49856  Biso   1.000  C
  C52      1.0000 0.29190  0.16332  0.00144  Biso   1.000  C
  C53      1.0000 0.60750  0.33712  0.53700  Biso   1.000  C
  C54      1.0000 0.89250  0.83712  0.96300  Biso   1.000  C
  C55      1.0000 0.39250  0.66288  0.46300  Biso   1.000  C
  C56      1.0000 0.10750  0.16288  0.03700  Biso   1.000  C
  C57      1.0000 0.49600  0.40066  0.53600  Biso   1.000  C
  C58      1.0000 0.00400  0.90066  0.96400  Biso   1.000  C
  C59      1.0000 0.50400  0.59934  0.46400  Biso   1.000  C
  C60      1.0000 0.99600  0.09934  0.03600  Biso   1.000  C
  H33      1.0000 0.37440  0.40020  0.56080  Biso   1.000  H
  H34      1.0000 0.12560  0.90020  0.93920  Biso   1.000  H
  H35      1.0000 0.62560  0.59980  0.43920  Biso   1.000  H
  H36      1.0000 0.87440  0.09980  0.06080  Biso   1.000  H
  C61      1.0000 0.55970  0.46561  0.49917  Biso   1.000  C
  C62      1.0000 0.94030  0.96561  0.00083  Biso   1.000  C
  C63      1.0000 0.44030  0.53439  0.50083  Biso   1.000  C
  C64      1.0000 0.05970  0.03439  0.99917  Biso   1.000  C
  C65      1.0000 0.74140  0.46349  0.46200  Biso   1.000  C
  C66      1.0000 0.75860  0.96349  0.03800  Biso   1.000  C
  C67      1.0000 0.25860  0.53651  0.53800  Biso   1.000  C
  C68      1.0000 0.24140  0.03651  0.96200  Biso   1.000  C
  H37      1.0000 0.78750  0.50550  0.43590  Biso   1.000  H
  H38      1.0000 0.71250  0.00550  0.06410  Biso   1.000  H
  H39      1.0000 0.21250  0.49450  0.56410  Biso   1.000  H
  H40      1.0000 0.28750  0.99450  0.93590  Biso   1.000  H
  C69      1.0000 0.85480  0.40034  0.46310  Biso   1.000  C
  C70      1.0000 0.64520  0.90034  0.03690  Biso   1.000  C
  C71      1.0000 0.14520  0.59966  0.53690  Biso   1.000  C
  C72      1.0000 0.35480  0.09966  0.96310  Biso   1.000  C
  H41      1.0000 0.97550  0.40060  0.43750  Biso   1.000  H
  H42      1.0000 0.52450  0.90060  0.06250  Biso   1.000  H
  H43      1.0000 0.02450  0.59940  0.56250  Biso   1.000  H
  H44      1.0000 0.47550  0.09940  0.93750  Biso   1.000  H
  C73      1.0000 0.93180  0.27179  0.50760  Biso   1.000  C
  C74      1.0000 0.56820  0.77179  0.99240  Biso   1.000  C
  C75      1.0000 0.06820  0.72821  0.49240  Biso   1.000  C
  C76      1.0000 0.43180  0.22821  0.00760  Biso   1.000  C
  C77      1.0000 0.51470  0.26786  0.56820  Biso   1.000  C
  C78      1.0000 0.98530  0.76786  0.93180  Biso   1.000  C
  C79      1.0000 0.48530  0.73214  0.43180  Biso   1.000  C
  C80      1.0000 0.01470  0.23214  0.06820  Biso   1.000  C
  N1       1.0000 0.43730  0.12440  0.70408  Biso   1.000  N
  N2       1.0000 0.06270  0.62440  0.79592  Biso   1.000  N
  N3       1.0000 0.56270  0.87560  0.29592  Biso   1.000  N
  N4       1.0000 0.93730  0.37560  0.20408  Biso   1.000  N
  N5       1.0000 0.06670  0.09843  0.61974  Biso   1.000  N
  N6       1.0000 0.43330  0.59843  0.88026  Biso   1.000  N
  N7       1.0000 0.93330  0.90157  0.38026  Biso   1.000  N
  N8       1.0000 0.56670  0.40157  0.11974  Biso   1.000  N
  O1       1.0000 0.99280  0.25175  0.59007  Biso   1.000  O
  O2       1.0000 0.50720  0.75175  0.90993  Biso   1.000  O
  O3       1.0000 0.00720  0.74825  0.40993  Biso   1.000  O
  O4       1.0000 0.49280  0.24825  0.09007  Biso   1.000  O
  O5       1.0000 0.98190  0.24636  0.43490  Biso   1.000  O
  O6       1.0000 0.51810  0.74636  0.06510  Biso   1.000  O
  O7       1.0000 0.01810  0.75364  0.56510  Biso   1.000  O
  O8       1.0000 0.48190  0.25364  0.93490  Biso   1.000  O
  O9       1.0000 0.54130  0.21019  0.52781  Biso   1.000  O
  O10      1.0000 0.95870  0.71019  0.97219  Biso   1.000  O
  O11      1.0000 0.45870  0.78981  0.47219  Biso   1.000  O
  O12      1.0000 0.04130  0.28981  0.02781  Biso   1.000  O
  O13      1.0000 0.40540  0.27451  0.63288  Biso   1.000  O
  O14      1.0000 0.09460  0.77451  0.86712  Biso   1.000  O
  O15      1.0000 0.59460  0.72549  0.36712  Biso   1.000  O
  O16      1.0000 0.90540  0.22549  0.13288  Biso   1.000  O
  O17      1.0000 0.15060  0.21956  0.78457  Biso   1.000  O
  O18      1.0000 0.34940  0.71956  0.71543  Biso   1.000  O
  O19      1.0000 0.84940  0.78044  0.21543  Biso   1.000  O
  O20      1.0000 0.65060  0.28044  0.28457  Biso   1.000  O
  O21      1.0000 0.32820  0.20338  0.35053  Biso   1.000  O
  O22      1.0000 0.17180  0.70338  0.14947  Biso   1.000  O
  O23      1.0000 0.67180  0.79662  0.64947  Biso   1.000  O
  O24      1.0000 0.82820  0.29662  0.85053  Biso   1.000  O
  H45      1.0000 0.04480  0.24600  0.78010  Biso   1.000  H
  H46      1.0000 0.45520  0.74600  0.71990  Biso   1.000  H
  H47      1.0000 0.95520  0.75400  0.21990  Biso   1.000  H
  H48      1.0000 0.54480  0.25400  0.28010  Biso   1.000  H
  H49      1.0000 0.40490  0.20130  0.40250  Biso   1.000  H
  H50      1.0000 0.09510  0.70130  0.09750  Biso   1.000  H
  H51      1.0000 0.59510  0.79870  0.59750  Biso   1.000  H
  H52      1.0000 0.90490  0.29870  0.90250  Biso   1.000  H
  H53      1.0000 0.25140  0.22600  0.82660  Biso   1.000  H
  H54      1.0000 0.24860  0.72600  0.67340  Biso   1.000  H
  H55      1.0000 0.74860  0.77400  0.17340  Biso   1.000  H
  H56      1.0000 0.75140  0.27400  0.32660  Biso   1.000  H
  H57      1.0000 0.20990  0.21760  0.35790  Biso   1.000  H
  H58      1.0000 0.29010  0.71760  0.14210  Biso   1.000  H
  H59      1.0000 0.79010  0.78240  0.64210  Biso   1.000  H
  H60      1.0000 0.70990  0.28240  0.85790  Biso   1.000  H
