data_image0
_cell_length_a       9.7494
_cell_length_b       9.693
_cell_length_c       21.815
_cell_angle_alpha    90
_cell_angle_beta     90
_cell_angle_gamma    90

_symmetry_space_group_name_H-M    "P 1"
_symmetry_int_tables_number       1

loop_
  _symmetry_equiv_pos_as_xyz
  'x, y, z'

loop_
  _atom_site_label
  _atom_site_occupancy
  _atom_site_fract_x
  _atom_site_fract_y
  _atom_site_fract_z
  _atom_site_thermal_displace_type
  _atom_site_B_iso_or_equiv
  _atom_site_type_symbol
  Cu1      1.0000 0.77145  0.09484  0.45724  Biso   1.000  Cu
  Cu2      1.0000 0.22855  0.90516  0.95724  Biso   1.000  Cu
  Cu3      1.0000 0.27145  0.40516  0.45724  Biso   1.000  Cu
  Cu4      1.0000 0.72855  0.59484  0.95724  Biso   1.000  Cu
  C1       1.0000 0.83570  0.93910  0.70800  Biso   1.000  C
  C2       1.0000 0.16430  0.06090  0.20800  Biso   1.000  C
  C3       1.0000 0.33570  0.56090  0.70800  Biso   1.000  C
  C4       1.0000 0.66430  0.43910  0.20800  Biso   1.000  C
  H1       1.0000 0.85280  0.00890  0.67970  Biso   1.000  H
  H2       1.0000 0.14720  0.99110  0.17970  Biso   1.000  H
  H3       1.0000 0.35280  0.49110  0.67970  Biso   1.000  H
  H4       1.0000 0.64720  0.50890  0.17970  Biso   1.000  H
  C5       1.0000 0.76040  0.83470  0.78290  Biso   1.000  C
  C6       1.0000 0.23960  0.16530  0.28290  Biso   1.000  C
  C7       1.0000 0.26040  0.66530  0.78290  Biso   1.000  C
  C8       1.0000 0.73960  0.33470  0.28290  Biso   1.000  C
  H5       1.0000 0.71860  0.81120  0.81970  Biso   1.000  H
  H6       1.0000 0.28140  0.18880  0.31970  Biso   1.000  H
  H7       1.0000 0.21860  0.68880  0.81970  Biso   1.000  H
  H8       1.0000 0.78140  0.31120  0.31970  Biso   1.000  H
  C9       1.0000 0.86470  0.60750  0.76520  Biso   1.000  C
  C10      1.0000 0.13530  0.39250  0.26520  Biso   1.000  C
  C11      1.0000 0.36470  0.89250  0.76520  Biso   1.000  C
  C12      1.0000 0.63530  0.10750  0.26520  Biso   1.000  C
  H9       1.0000 0.80670  0.57790  0.79890  Biso   1.000  H
  H10      1.0000 0.19330  0.42210  0.29890  Biso   1.000  H
  H11      1.0000 0.30670  0.92210  0.79890  Biso   1.000  H
  H12      1.0000 0.69330  0.07790  0.29890  Biso   1.000  H
  H13      1.0000 0.95890  0.60590  0.77960  Biso   1.000  H
  H14      1.0000 0.04110  0.39410  0.27960  Biso   1.000  H
  H15      1.0000 0.45890  0.89410  0.77960  Biso   1.000  H
  H16      1.0000 0.54110  0.10590  0.27960  Biso   1.000  H
  C13      1.0000 0.85020  0.50550  0.71310  Biso   1.000  C
  C14      1.0000 0.14980  0.49450  0.21310  Biso   1.000  C
  C15      1.0000 0.35020  0.99450  0.71310  Biso   1.000  C
  C16      1.0000 0.64980  0.00550  0.21310  Biso   1.000  C
  C17      1.0000 0.73770  0.50490  0.67450  Biso   1.000  C
  C18      1.0000 0.26230  0.49510  0.17450  Biso   1.000  C
  C19      1.0000 0.23770  0.99510  0.67450  Biso   1.000  C
  C20      1.0000 0.76230  0.00490  0.17450  Biso   1.000  C
  H17      1.0000 0.66730  0.56820  0.68050  Biso   1.000  H
  H18      1.0000 0.33270  0.43180  0.18050  Biso   1.000  H
  H19      1.0000 0.16730  0.93180  0.68050  Biso   1.000  H
  H20      1.0000 0.83270  0.06820  0.18050  Biso   1.000  H
  C21      1.0000 0.72900  0.40920  0.62630  Biso   1.000  C
  C22      1.0000 0.27100  0.59080  0.12630  Biso   1.000  C
  C23      1.0000 0.22900  0.09080  0.62630  Biso   1.000  C
  C24      1.0000 0.77100  0.90920  0.12630  Biso   1.000  C
  H21      1.0000 0.65500  0.41290  0.59950  Biso   1.000  H
  H22      1.0000 0.34500  0.58710  0.09950  Biso   1.000  H
  H23      1.0000 0.15500  0.08710  0.59950  Biso   1.000  H
  H24      1.0000 0.84500  0.91290  0.09950  Biso   1.000  H
  C25      1.0000 0.82880  0.30970  0.61820  Biso   1.000  C
  C26      1.0000 0.17120  0.69030  0.11820  Biso   1.000  C
  C27      1.0000 0.32880  0.19030  0.61820  Biso   1.000  C
  C28      1.0000 0.67120  0.80970  0.11820  Biso   1.000  C
  C29      1.0000 0.93820  0.31020  0.65900  Biso   1.000  C
  C30      1.0000 0.06180  0.68980  0.15900  Biso   1.000  C
  C31      1.0000 0.43820  0.18980  0.65900  Biso   1.000  C
  C32      1.0000 0.56180  0.81020  0.15900  Biso   1.000  C
  H25      1.0000 0.00450  0.24180  0.65550  Biso   1.000  H
  H26      1.0000 0.99550  0.75820  0.15550  Biso   1.000  H
  H27      1.0000 0.50450  0.25820  0.65550  Biso   1.000  H
  H28      1.0000 0.49550  0.74180  0.15550  Biso   1.000  H
  C33      1.0000 0.95250  0.40790  0.70450  Biso   1.000  C
  C34      1.0000 0.04750  0.59210  0.20450  Biso   1.000  C
  C35      1.0000 0.45250  0.09210  0.70450  Biso   1.000  C
  C36      1.0000 0.54750  0.90790  0.20450  Biso   1.000  C
  H29      1.0000 0.03020  0.40840  0.72930  Biso   1.000  H
  H30      1.0000 0.96980  0.59160  0.22930  Biso   1.000  H
  H31      1.0000 0.53020  0.09160  0.72930  Biso   1.000  H
  H32      1.0000 0.46980  0.90840  0.22930  Biso   1.000  H
  C37      1.0000 0.82710  0.20870  0.56700  Biso   1.000  C
  C38      1.0000 0.17290  0.79130  0.06700  Biso   1.000  C
  C39      1.0000 0.32710  0.29130  0.56700  Biso   1.000  C
  C40      1.0000 0.67290  0.70870  0.06700  Biso   1.000  C
  C41      1.0000 0.57700  0.95560  0.54400  Biso   1.000  C
  C42      1.0000 0.42300  0.04440  0.04400  Biso   1.000  C
  C43      1.0000 0.07700  0.54440  0.54400  Biso   1.000  C
  C44      1.0000 0.92300  0.45560  0.04400  Biso   1.000  C
  H33      1.0000 0.55570  0.04300  0.55880  Biso   1.000  H
  H34      1.0000 0.44430  0.95700  0.05880  Biso   1.000  H
  H35      1.0000 0.05570  0.45700  0.55880  Biso   1.000  H
  H36      1.0000 0.94430  0.54300  0.05880  Biso   1.000  H
  C45      1.0000 0.51260  0.84020  0.57060  Biso   1.000  C
  C46      1.0000 0.48740  0.15980  0.07060  Biso   1.000  C
  C47      1.0000 0.01260  0.65980  0.57060  Biso   1.000  C
  C48      1.0000 0.98740  0.34020  0.07060  Biso   1.000  C
  H37      1.0000 0.45060  0.85190  0.60260  Biso   1.000  H
  H38      1.0000 0.54940  0.14810  0.10260  Biso   1.000  H
  H39      1.0000 0.95060  0.64810  0.60260  Biso   1.000  H
  H40      1.0000 0.04940  0.35190  0.10260  Biso   1.000  H
  C49      1.0000 0.54150  0.71110  0.54920  Biso   1.000  C
  C50      1.0000 0.45850  0.28890  0.04920  Biso   1.000  C
  C51      1.0000 0.04150  0.78890  0.54920  Biso   1.000  C
  C52      1.0000 0.95850  0.21110  0.04920  Biso   1.000  C
  H41      1.0000 0.49670  0.63450  0.56520  Biso   1.000  H
  H42      1.0000 0.50330  0.36550  0.06520  Biso   1.000  H
  H43      1.0000 0.99670  0.86550  0.56520  Biso   1.000  H
  H44      1.0000 0.00330  0.13450  0.06520  Biso   1.000  H
  C53      1.0000 0.63800  0.69590  0.50340  Biso   1.000  C
  C54      1.0000 0.36200  0.30410  0.00340  Biso   1.000  C
  C55      1.0000 0.13800  0.80410  0.50340  Biso   1.000  C
  C56      1.0000 0.86200  0.19590  0.00340  Biso   1.000  C
  C57      1.0000 0.67920  0.56520  0.47840  Biso   1.000  C
  C58      1.0000 0.32080  0.43480  0.97840  Biso   1.000  C
  C59      1.0000 0.17920  0.93480  0.47840  Biso   1.000  C
  C60      1.0000 0.82080  0.06520  0.97840  Biso   1.000  C
  H45      1.0000 0.64000  0.48410  0.49300  Biso   1.000  H
  H46      1.0000 0.36000  0.51590  0.99300  Biso   1.000  H
  H47      1.0000 0.14000  0.01590  0.49300  Biso   1.000  H
  H48      1.0000 0.86000  0.98410  0.99300  Biso   1.000  H
  C61      1.0000 0.77420  0.55990  0.43390  Biso   1.000  C
  C62      1.0000 0.22580  0.44010  0.93390  Biso   1.000  C
  C63      1.0000 0.27420  0.94010  0.43390  Biso   1.000  C
  C64      1.0000 0.72580  0.05990  0.93390  Biso   1.000  C
  H49      1.0000 0.80200  0.47390  0.41970  Biso   1.000  H
  H50      1.0000 0.19800  0.52610  0.91970  Biso   1.000  H
  H51      1.0000 0.30200  0.02610  0.41970  Biso   1.000  H
  H52      1.0000 0.69800  0.97390  0.91970  Biso   1.000  H
  C65      1.0000 0.83430  0.67880  0.40740  Biso   1.000  C
  C66      1.0000 0.16570  0.32120  0.90740  Biso   1.000  C
  C67      1.0000 0.33430  0.82120  0.40740  Biso   1.000  C
  C68      1.0000 0.66570  0.17880  0.90740  Biso   1.000  C
  C69      1.0000 0.79340  0.80910  0.43020  Biso   1.000  C
  C70      1.0000 0.20660  0.19090  0.93020  Biso   1.000  C
  C71      1.0000 0.29340  0.69090  0.43020  Biso   1.000  C
  C72      1.0000 0.70660  0.30910  0.93020  Biso   1.000  C
  C73      1.0000 0.69680  0.81560  0.47910  Biso   1.000  C
  C74      1.0000 0.30320  0.18440  0.97910  Biso   1.000  C
  C75      1.0000 0.19680  0.68440  0.47910  Biso   1.000  C
  C76      1.0000 0.80320  0.31560  0.97910  Biso   1.000  C
  C77      1.0000 0.93620  0.68270  0.36100  Biso   1.000  C
  C78      1.0000 0.06380  0.31730  0.86100  Biso   1.000  C
  C79      1.0000 0.43620  0.81730  0.36100  Biso   1.000  C
  C80      1.0000 0.56380  0.18270  0.86100  Biso   1.000  C
  H53      1.0000 0.96930  0.60080  0.34440  Biso   1.000  H
  H54      1.0000 0.03070  0.39920  0.84440  Biso   1.000  H
  H55      1.0000 0.46930  0.89920  0.34440  Biso   1.000  H
  H56      1.0000 0.53070  0.10080  0.84440  Biso   1.000  H
  C81      1.0000 0.98530  0.80440  0.34090  Biso   1.000  C
  C82      1.0000 0.01470  0.19560  0.84090  Biso   1.000  C
  C83      1.0000 0.48530  0.69560  0.34090  Biso   1.000  C
  C84      1.0000 0.51470  0.30440  0.84090  Biso   1.000  C
  H57      1.0000 0.05280  0.80640  0.31080  Biso   1.000  H
  H58      1.0000 0.94720  0.19360  0.81080  Biso   1.000  H
  H59      1.0000 0.55280  0.69360  0.31080  Biso   1.000  H
  H60      1.0000 0.44720  0.30640  0.81080  Biso   1.000  H
  C85      1.0000 0.93520  0.92610  0.36490  Biso   1.000  C
  C86      1.0000 0.06480  0.07390  0.86490  Biso   1.000  C
  C87      1.0000 0.43520  0.57390  0.36490  Biso   1.000  C
  C88      1.0000 0.56480  0.42610  0.86490  Biso   1.000  C
  H61      1.0000 0.96830  0.00900  0.34920  Biso   1.000  H
  H62      1.0000 0.03170  0.99100  0.84920  Biso   1.000  H
  H63      1.0000 0.46830  0.49100  0.34920  Biso   1.000  H
  H64      1.0000 0.53170  0.50900  0.84920  Biso   1.000  H
  C89      1.0000 0.00110  0.26440  0.43220  Biso   1.000  C
  C90      1.0000 0.99890  0.73560  0.93220  Biso   1.000  C
  C91      1.0000 0.50110  0.23560  0.43220  Biso   1.000  C
  C92      1.0000 0.49890  0.76440  0.93220  Biso   1.000  C
  H65      1.0000 0.02320  0.23850  0.47200  Biso   1.000  H
  H66      1.0000 0.97680  0.76150  0.97200  Biso   1.000  H
  H67      1.0000 0.52320  0.26150  0.47200  Biso   1.000  H
  H68      1.0000 0.47680  0.73850  0.97200  Biso   1.000  H
  N1       1.0000 0.84300  0.93060  0.40870  Biso   1.000  N
  N2       1.0000 0.15700  0.06940  0.90870  Biso   1.000  N
  N3       1.0000 0.34300  0.56940  0.40870  Biso   1.000  N
  N4       1.0000 0.65700  0.43060  0.90870  Biso   1.000  N
  N5       1.0000 0.66610  0.94430  0.49920  Biso   1.000  N
  N6       1.0000 0.33390  0.05570  0.99920  Biso   1.000  N
  N7       1.0000 0.16610  0.55570  0.49920  Biso   1.000  N
  N8       1.0000 0.83390  0.44430  0.99920  Biso   1.000  N
  N9       1.0000 0.82880  0.74850  0.74910  Biso   1.000  N
  N10      1.0000 0.17120  0.25150  0.24910  Biso   1.000  N
  N11      1.0000 0.32880  0.75150  0.74910  Biso   1.000  N
  N12      1.0000 0.67120  0.24850  0.24910  Biso   1.000  N
  N13      1.0000 0.88540  0.81490  0.70130  Biso   1.000  N
  N14      1.0000 0.11460  0.18510  0.20130  Biso   1.000  N
  N15      1.0000 0.38540  0.68510  0.70130  Biso   1.000  N
  N16      1.0000 0.61460  0.31490  0.20130  Biso   1.000  N
  N17      1.0000 0.75740  0.96000  0.75860  Biso   1.000  N
  N18      1.0000 0.24260  0.04000  0.25860  Biso   1.000  N
  N19      1.0000 0.25740  0.54000  0.75860  Biso   1.000  N
  N20      1.0000 0.74260  0.46000  0.25860  Biso   1.000  N
  O1       1.0000 0.74060  0.22980  0.52330  Biso   1.000  O
  O2       1.0000 0.25940  0.77020  0.02330  Biso   1.000  O
  O3       1.0000 0.24060  0.27020  0.52330  Biso   1.000  O
  O4       1.0000 0.75940  0.72980  0.02330  Biso   1.000  O
  O5       1.0000 0.90800  0.11080  0.56670  Biso   1.000  O
  O6       1.0000 0.09200  0.88920  0.06670  Biso   1.000  O
  O7       1.0000 0.40800  0.38920  0.56670  Biso   1.000  O
  O8       1.0000 0.59200  0.61080  0.06670  Biso   1.000  O
  O9       1.0000 0.88980  0.21790  0.40970  Biso   1.000  O
  O10      1.0000 0.11020  0.78210  0.90970  Biso   1.000  O
  O11      1.0000 0.38980  0.28210  0.40970  Biso   1.000  O
  O12      1.0000 0.61020  0.71790  0.90970  Biso   1.000  O
  O13      1.0000 0.08230  0.34160  0.40490  Biso   1.000  O
  O14      1.0000 0.91770  0.65840  0.90490  Biso   1.000  O
  O15      1.0000 0.58230  0.15840  0.40490  Biso   1.000  O
  O16      1.0000 0.41770  0.84160  0.90490  Biso   1.000  O
