data_image0
_cell_length_a       24.1428
_cell_length_b       24.1428
_cell_length_c       4.9878
_cell_angle_alpha    90
_cell_angle_beta     90
_cell_angle_gamma    90

_symmetry_space_group_name_H-M    "P 1"
_symmetry_int_tables_number       1

loop_
  _symmetry_equiv_pos_as_xyz
  'x, y, z'

loop_
  _atom_site_label
  _atom_site_occupancy
  _atom_site_fract_x
  _atom_site_fract_y
  _atom_site_fract_z
  _atom_site_thermal_displace_type
  _atom_site_B_iso_or_equiv
  _atom_site_type_symbol
  Cu1      1.0000 0.50000  0.00000  0.00000  Biso   1.000  Cu
  Cu2      1.0000 0.75000  0.75000  0.25000  Biso   1.000  Cu
  Cu3      1.0000 0.00000  0.50000  0.50000  Biso   1.000  Cu
  Cu4      1.0000 0.25000  0.25000  0.75000  Biso   1.000  Cu
  Cu5      1.0000 0.25000  0.75000  0.25000  Biso   1.000  Cu
  Cu6      1.0000 0.00000  0.00000  0.50000  Biso   1.000  Cu
  Cu7      1.0000 0.75000  0.25000  0.75000  Biso   1.000  Cu
  Cu8      1.0000 0.50000  0.50000  0.00000  Biso   1.000  Cu
  O1       1.0000 0.47710  0.06810  0.17730  Biso   1.000  O
  O2       1.0000 0.68190  0.72710  0.42730  Biso   1.000  O
  O3       1.0000 0.97710  0.56810  0.67730  Biso   1.000  O
  O4       1.0000 0.18190  0.22710  0.92730  Biso   1.000  O
  O5       1.0000 0.31810  0.77290  0.42730  Biso   1.000  O
  O6       1.0000 0.02290  0.93190  0.67730  Biso   1.000  O
  O7       1.0000 0.81810  0.27290  0.92730  Biso   1.000  O
  O8       1.0000 0.52290  0.43190  0.17730  Biso   1.000  O
  O9       1.0000 0.52290  0.93190  0.82270  Biso   1.000  O
  O10      1.0000 0.81810  0.77290  0.07270  Biso   1.000  O
  O11      1.0000 0.02290  0.43190  0.32270  Biso   1.000  O
  O12      1.0000 0.31810  0.27290  0.57270  Biso   1.000  O
  O13      1.0000 0.18190  0.72710  0.07270  Biso   1.000  O
  O14      1.0000 0.97710  0.06810  0.32270  Biso   1.000  O
  O15      1.0000 0.68190  0.22710  0.57270  Biso   1.000  O
  O16      1.0000 0.47710  0.56810  0.82270  Biso   1.000  O
  N1       1.0000 0.36087  0.16142  0.19840  Biso   1.000  N
  N2       1.0000 0.58858  0.61087  0.44840  Biso   1.000  N
  N3       1.0000 0.86087  0.66142  0.69840  Biso   1.000  N
  N4       1.0000 0.08858  0.11087  0.94840  Biso   1.000  N
  N5       1.0000 0.41142  0.88913  0.44840  Biso   1.000  N
  N6       1.0000 0.13913  0.83858  0.69840  Biso   1.000  N
  N7       1.0000 0.91142  0.38913  0.94840  Biso   1.000  N
  N8       1.0000 0.63913  0.33858  0.19840  Biso   1.000  N
  N9       1.0000 0.63913  0.83858  0.80160  Biso   1.000  N
  N10      1.0000 0.91142  0.88913  0.05160  Biso   1.000  N
  N11      1.0000 0.13913  0.33858  0.30160  Biso   1.000  N
  N12      1.0000 0.41142  0.38913  0.55160  Biso   1.000  N
  N13      1.0000 0.08858  0.61087  0.05160  Biso   1.000  N
  N14      1.0000 0.86087  0.16142  0.30160  Biso   1.000  N
  N15      1.0000 0.58858  0.11087  0.55160  Biso   1.000  N
  N16      1.0000 0.36087  0.66142  0.80160  Biso   1.000  N
  C1       1.0000 0.43182  0.08974  0.09850  Biso   1.000  C
  C2       1.0000 0.66026  0.68182  0.34850  Biso   1.000  C
  C3       1.0000 0.93182  0.58974  0.59850  Biso   1.000  C
  C4       1.0000 0.16026  0.18182  0.84850  Biso   1.000  C
  C5       1.0000 0.33974  0.81818  0.34850  Biso   1.000  C
  C6       1.0000 0.06818  0.91026  0.59850  Biso   1.000  C
  C7       1.0000 0.83974  0.31818  0.84850  Biso   1.000  C
  C8       1.0000 0.56818  0.41026  0.09850  Biso   1.000  C
  C9       1.0000 0.56818  0.91026  0.90150  Biso   1.000  C
  C10      1.0000 0.83974  0.81818  0.15150  Biso   1.000  C
  C11      1.0000 0.06818  0.41026  0.40150  Biso   1.000  C
  C12      1.0000 0.33974  0.31818  0.65150  Biso   1.000  C
  C13      1.0000 0.16026  0.68182  0.15150  Biso   1.000  C
  C14      1.0000 0.93182  0.08974  0.40150  Biso   1.000  C
  C15      1.0000 0.66026  0.18182  0.65150  Biso   1.000  C
  C16      1.0000 0.43182  0.58974  0.90150  Biso   1.000  C
  N17      1.0000 0.29323  0.20381  0.00060  Biso   1.000  N
  N18      1.0000 0.54619  0.54323  0.25060  Biso   1.000  N
  N19      1.0000 0.79323  0.70381  0.50060  Biso   1.000  N
  N20      1.0000 0.04619  0.04323  0.75060  Biso   1.000  N
  N21      1.0000 0.45381  0.95677  0.25060  Biso   1.000  N
  N22      1.0000 0.20677  0.79619  0.50060  Biso   1.000  N
  N23      1.0000 0.95381  0.45677  0.75060  Biso   1.000  N
  N24      1.0000 0.70677  0.29619  0.00060  Biso   1.000  N
  N25      1.0000 0.70677  0.79619  0.99940  Biso   1.000  N
  N26      1.0000 0.95381  0.95677  0.24940  Biso   1.000  N
  N27      1.0000 0.20677  0.29619  0.49940  Biso   1.000  N
  N28      1.0000 0.45381  0.45677  0.74940  Biso   1.000  N
  N29      1.0000 0.04619  0.54323  0.24940  Biso   1.000  N
  N30      1.0000 0.79323  0.20381  0.49940  Biso   1.000  N
  N31      1.0000 0.54619  0.04323  0.74940  Biso   1.000  N
  N32      1.0000 0.29323  0.70381  0.99940  Biso   1.000  N
  N33      1.0000 0.31486  0.14627  0.33630  Biso   1.000  N
  N34      1.0000 0.60373  0.56486  0.58630  Biso   1.000  N
  N35      1.0000 0.81486  0.64627  0.83630  Biso   1.000  N
  N36      1.0000 0.10373  0.06486  0.08630  Biso   1.000  N
  N37      1.0000 0.39627  0.93514  0.58630  Biso   1.000  N
  N38      1.0000 0.18514  0.85373  0.83630  Biso   1.000  N
  N39      1.0000 0.89627  0.43514  0.08630  Biso   1.000  N
  N40      1.0000 0.68514  0.35373  0.33630  Biso   1.000  N
  N41      1.0000 0.68514  0.85373  0.66370  Biso   1.000  N
  N42      1.0000 0.89627  0.93514  0.91370  Biso   1.000  N
  N43      1.0000 0.18514  0.35373  0.16370  Biso   1.000  N
  N44      1.0000 0.39627  0.43514  0.41370  Biso   1.000  N
  N45      1.0000 0.10373  0.56486  0.91370  Biso   1.000  N
  N46      1.0000 0.81486  0.14627  0.16370  Biso   1.000  N
  N47      1.0000 0.60373  0.06486  0.41370  Biso   1.000  N
  N48      1.0000 0.31486  0.64627  0.66370  Biso   1.000  N
  C17      1.0000 0.41454  0.13907  0.27040  Biso   1.000  C
  C18      1.0000 0.61093  0.66454  0.52040  Biso   1.000  C
  C19      1.0000 0.91454  0.63907  0.77040  Biso   1.000  C
  C20      1.0000 0.11093  0.16454  0.02040  Biso   1.000  C
  C21      1.0000 0.38907  0.83546  0.52040  Biso   1.000  C
  C22      1.0000 0.08546  0.86093  0.77040  Biso   1.000  C
  C23      1.0000 0.88907  0.33546  0.02040  Biso   1.000  C
  C24      1.0000 0.58546  0.36093  0.27040  Biso   1.000  C
  C25      1.0000 0.58546  0.86093  0.72960  Biso   1.000  C
  C26      1.0000 0.88907  0.83546  0.97960  Biso   1.000  C
  C27      1.0000 0.08546  0.36093  0.22960  Biso   1.000  C
  C28      1.0000 0.38907  0.33546  0.47960  Biso   1.000  C
  C29      1.0000 0.11093  0.66454  0.97960  Biso   1.000  C
  C30      1.0000 0.91454  0.13907  0.22960  Biso   1.000  C
  C31      1.0000 0.61093  0.16454  0.47960  Biso   1.000  C
  C32      1.0000 0.41454  0.63907  0.72960  Biso   1.000  C
  H1       1.0000 0.41370  0.12770  0.45690  Biso   1.000  H
  H2       1.0000 0.62230  0.66370  0.70690  Biso   1.000  H
  H3       1.0000 0.91370  0.62770  0.95690  Biso   1.000  H
  H4       1.0000 0.12230  0.16370  0.20690  Biso   1.000  H
  H5       1.0000 0.37770  0.83630  0.70690  Biso   1.000  H
  H6       1.0000 0.08630  0.87230  0.95690  Biso   1.000  H
  H7       1.0000 0.87770  0.33630  0.20690  Biso   1.000  H
  H8       1.0000 0.58630  0.37230  0.45690  Biso   1.000  H
  H9       1.0000 0.58630  0.87230  0.54310  Biso   1.000  H
  H10      1.0000 0.87770  0.83630  0.79310  Biso   1.000  H
  H11      1.0000 0.08630  0.37230  0.04310  Biso   1.000  H
  H12      1.0000 0.37770  0.33630  0.29310  Biso   1.000  H
  H13      1.0000 0.12230  0.66370  0.79310  Biso   1.000  H
  H14      1.0000 0.91370  0.12770  0.04310  Biso   1.000  H
  H15      1.0000 0.62230  0.16370  0.29310  Biso   1.000  H
  H16      1.0000 0.41370  0.62770  0.54310  Biso   1.000  H
  H17      1.0000 0.44220  0.16800  0.25300  Biso   1.000  H
  H18      1.0000 0.58200  0.69220  0.50300  Biso   1.000  H
  H19      1.0000 0.94220  0.66800  0.75300  Biso   1.000  H
  H20      1.0000 0.08200  0.19220  0.00300  Biso   1.000  H
  H21      1.0000 0.41800  0.80780  0.50300  Biso   1.000  H
  H22      1.0000 0.05780  0.83200  0.75300  Biso   1.000  H
  H23      1.0000 0.91800  0.30780  0.00300  Biso   1.000  H
  H24      1.0000 0.55780  0.33200  0.25300  Biso   1.000  H
  H25      1.0000 0.55780  0.83200  0.74700  Biso   1.000  H
  H26      1.0000 0.91800  0.80780  0.99700  Biso   1.000  H
  H27      1.0000 0.05780  0.33200  0.24700  Biso   1.000  H
  H28      1.0000 0.41800  0.30780  0.49700  Biso   1.000  H
  H29      1.0000 0.08200  0.69220  0.99700  Biso   1.000  H
  H30      1.0000 0.94220  0.16800  0.24700  Biso   1.000  H
  H31      1.0000 0.58200  0.19220  0.49700  Biso   1.000  H
  H32      1.0000 0.44220  0.66800  0.74700  Biso   1.000  H
  O17      1.0000 0.40427  0.07448  0.90760  Biso   1.000  O
  O18      1.0000 0.67552  0.65427  0.15760  Biso   1.000  O
  O19      1.0000 0.90427  0.57448  0.40760  Biso   1.000  O
  O20      1.0000 0.17552  0.15427  0.65760  Biso   1.000  O
  O21      1.0000 0.32448  0.84573  0.15760  Biso   1.000  O
  O22      1.0000 0.09573  0.92552  0.40760  Biso   1.000  O
  O23      1.0000 0.82448  0.34573  0.65760  Biso   1.000  O
  O24      1.0000 0.59573  0.42552  0.90760  Biso   1.000  O
  O25      1.0000 0.59573  0.92552  0.09240  Biso   1.000  O
  O26      1.0000 0.82448  0.84573  0.34240  Biso   1.000  O
  O27      1.0000 0.09573  0.42552  0.59240  Biso   1.000  O
  O28      1.0000 0.32448  0.34573  0.84240  Biso   1.000  O
  O29      1.0000 0.17552  0.65427  0.34240  Biso   1.000  O
  O30      1.0000 0.90427  0.07448  0.59240  Biso   1.000  O
  O31      1.0000 0.67552  0.15427  0.84240  Biso   1.000  O
  O32      1.0000 0.40427  0.57448  0.09240  Biso   1.000  O
  C33      1.0000 0.27544  0.17266  0.21030  Biso   1.000  C
  C34      1.0000 0.57734  0.52544  0.46030  Biso   1.000  C
  C35      1.0000 0.77544  0.67266  0.71030  Biso   1.000  C
  C36      1.0000 0.07734  0.02544  0.96030  Biso   1.000  C
  C37      1.0000 0.42266  0.97456  0.46030  Biso   1.000  C
  C38      1.0000 0.22456  0.82734  0.71030  Biso   1.000  C
  C39      1.0000 0.92266  0.47456  0.96030  Biso   1.000  C
  C40      1.0000 0.72456  0.32734  0.21030  Biso   1.000  C
  C41      1.0000 0.72456  0.82734  0.78970  Biso   1.000  C
  C42      1.0000 0.92266  0.97456  0.03970  Biso   1.000  C
  C43      1.0000 0.22456  0.32734  0.28970  Biso   1.000  C
  C44      1.0000 0.42266  0.47456  0.53970  Biso   1.000  C
  C45      1.0000 0.07734  0.52544  0.03970  Biso   1.000  C
  C46      1.0000 0.77544  0.17266  0.28970  Biso   1.000  C
  C47      1.0000 0.57734  0.02544  0.53970  Biso   1.000  C
  C48      1.0000 0.27544  0.67266  0.78970  Biso   1.000  C
  H33      1.0000 0.23840  0.17030  0.25990  Biso   1.000  H
  H34      1.0000 0.57970  0.48840  0.50990  Biso   1.000  H
  H35      1.0000 0.73840  0.67030  0.75990  Biso   1.000  H
  H36      1.0000 0.07970  0.98840  0.00990  Biso   1.000  H
  H37      1.0000 0.42030  0.01160  0.50990  Biso   1.000  H
  H38      1.0000 0.26160  0.82970  0.75990  Biso   1.000  H
  H39      1.0000 0.92030  0.51160  0.00990  Biso   1.000  H
  H40      1.0000 0.76160  0.32970  0.25990  Biso   1.000  H
  H41      1.0000 0.76160  0.82970  0.74010  Biso   1.000  H
  H42      1.0000 0.92030  0.01160  0.99010  Biso   1.000  H
  H43      1.0000 0.26160  0.32970  0.24010  Biso   1.000  H
  H44      1.0000 0.42030  0.51160  0.49010  Biso   1.000  H
  H45      1.0000 0.07970  0.48840  0.99010  Biso   1.000  H
  H46      1.0000 0.73840  0.17030  0.24010  Biso   1.000  H
  H47      1.0000 0.57970  0.98840  0.49010  Biso   1.000  H
  H48      1.0000 0.23840  0.67030  0.74010  Biso   1.000  H
  C49      1.0000 0.34744  0.19530  0.00100  Biso   1.000  C
  C50      1.0000 0.55470  0.59744  0.25100  Biso   1.000  C
  C51      1.0000 0.84744  0.69530  0.50100  Biso   1.000  C
  C52      1.0000 0.05470  0.09744  0.75100  Biso   1.000  C
  C53      1.0000 0.44530  0.90256  0.25100  Biso   1.000  C
  C54      1.0000 0.15256  0.80470  0.50100  Biso   1.000  C
  C55      1.0000 0.94530  0.40256  0.75100  Biso   1.000  C
  C56      1.0000 0.65256  0.30470  0.00100  Biso   1.000  C
  C57      1.0000 0.65256  0.80470  0.99900  Biso   1.000  C
  C58      1.0000 0.94530  0.90256  0.24900  Biso   1.000  C
  C59      1.0000 0.15256  0.30470  0.49900  Biso   1.000  C
  C60      1.0000 0.44530  0.40256  0.74900  Biso   1.000  C
  C61      1.0000 0.05470  0.59744  0.24900  Biso   1.000  C
  C62      1.0000 0.84744  0.19530  0.49900  Biso   1.000  C
  C63      1.0000 0.55470  0.09744  0.74900  Biso   1.000  C
  C64      1.0000 0.34744  0.69530  0.99900  Biso   1.000  C
  H49      1.0000 0.37230  0.21090  0.88030  Biso   1.000  H
  H50      1.0000 0.53910  0.62230  0.13030  Biso   1.000  H
  H51      1.0000 0.87230  0.71090  0.38030  Biso   1.000  H
  H52      1.0000 0.03910  0.12230  0.63030  Biso   1.000  H
  H53      1.0000 0.46090  0.87770  0.13030  Biso   1.000  H
  H54      1.0000 0.12770  0.78910  0.38030  Biso   1.000  H
  H55      1.0000 0.96090  0.37770  0.63030  Biso   1.000  H
  H56      1.0000 0.62770  0.28910  0.88030  Biso   1.000  H
  H57      1.0000 0.62770  0.78910  0.11970  Biso   1.000  H
  H58      1.0000 0.96090  0.87770  0.36970  Biso   1.000  H
  H59      1.0000 0.12770  0.28910  0.61970  Biso   1.000  H
  H60      1.0000 0.46090  0.37770  0.86970  Biso   1.000  H
  H61      1.0000 0.03910  0.62230  0.36970  Biso   1.000  H
  H62      1.0000 0.87230  0.21090  0.61970  Biso   1.000  H
  H63      1.0000 0.53910  0.12230  0.86970  Biso   1.000  H
  H64      1.0000 0.37230  0.71090  0.11970  Biso   1.000  H
  Cl1      1.0000 0.50000  0.75000  0.12500  Biso   1.000  Cl
  Cl2      1.0000 0.00000  0.75000  0.37500  Biso   1.000  Cl
  Cl3      1.0000 0.00000  0.25000  0.62500  Biso   1.000  Cl
  Cl4      1.0000 0.50000  0.25000  0.87500  Biso   1.000  Cl
  O33      1.0000 0.53907  0.72178  0.96100  Biso   1.000  O
  O34      1.0000 0.02822  0.78907  0.21100  Biso   1.000  O
  O35      1.0000 0.03907  0.22178  0.46100  Biso   1.000  O
  O36      1.0000 0.52822  0.28907  0.71100  Biso   1.000  O
  O37      1.0000 0.97178  0.71093  0.21100  Biso   1.000  O
  O38      1.0000 0.96093  0.27822  0.46100  Biso   1.000  O
  O39      1.0000 0.47178  0.21093  0.71100  Biso   1.000  O
  O40      1.0000 0.46093  0.77822  0.96100  Biso   1.000  O
  O41      1.0000 0.46093  0.27822  0.03900  Biso   1.000  O
  O42      1.0000 0.47178  0.71093  0.28900  Biso   1.000  O
  O43      1.0000 0.96093  0.77822  0.53900  Biso   1.000  O
  O44      1.0000 0.97178  0.21093  0.78900  Biso   1.000  O
  O45      1.0000 0.52822  0.78907  0.28900  Biso   1.000  O
  O46      1.0000 0.03907  0.72178  0.53900  Biso   1.000  O
  O47      1.0000 0.02822  0.28907  0.78900  Biso   1.000  O
  O48      1.0000 0.53907  0.22178  0.03900  Biso   1.000  O
  Na1      1.0000 0.25409  0.99430  0.43060  Biso   1.000  Na
  Na2      1.0000 0.75570  0.50409  0.68060  Biso   1.000  Na
  Na3      1.0000 0.75409  0.49430  0.93060  Biso   1.000  Na
  Na4      1.0000 0.25570  0.00409  0.18060  Biso   1.000  Na
  Na5      1.0000 0.24430  0.99591  0.68060  Biso   1.000  Na
  Na6      1.0000 0.24591  0.00570  0.93060  Biso   1.000  Na
  Na7      1.0000 0.74430  0.49591  0.18060  Biso   1.000  Na
  Na8      1.0000 0.74591  0.50570  0.43060  Biso   1.000  Na
  Na9      1.0000 0.74591  0.00570  0.56940  Biso   1.000  Na
  Na10     1.0000 0.74430  0.99591  0.81940  Biso   1.000  Na
  Na11     1.0000 0.24591  0.50570  0.06940  Biso   1.000  Na
  Na12     1.0000 0.24430  0.49591  0.31940  Biso   1.000  Na
  Na13     1.0000 0.25570  0.50409  0.81940  Biso   1.000  Na
  Na14     1.0000 0.75409  0.99430  0.06940  Biso   1.000  Na
  Na15     1.0000 0.75570  0.00409  0.31940  Biso   1.000  Na
  Na16     1.0000 0.25409  0.49430  0.56940  Biso   1.000  Na
  O49      1.0000 0.20630  0.93990  0.29500  Biso   1.000  O
  O50      1.0000 0.81010  0.45630  0.54500  Biso   1.000  O
  O51      1.0000 0.70630  0.43990  0.79500  Biso   1.000  O
  O52      1.0000 0.31010  0.95630  0.04500  Biso   1.000  O
  O53      1.0000 0.18990  0.04370  0.54500  Biso   1.000  O
  O54      1.0000 0.29370  0.06010  0.79500  Biso   1.000  O
  O55      1.0000 0.68990  0.54370  0.04500  Biso   1.000  O
  O56      1.0000 0.79370  0.56010  0.29500  Biso   1.000  O
  O57      1.0000 0.79370  0.06010  0.70500  Biso   1.000  O
  O58      1.0000 0.68990  0.04370  0.95500  Biso   1.000  O
  O59      1.0000 0.29370  0.56010  0.20500  Biso   1.000  O
  O60      1.0000 0.18990  0.54370  0.45500  Biso   1.000  O
  O61      1.0000 0.31010  0.45630  0.95500  Biso   1.000  O
  O62      1.0000 0.70630  0.93990  0.20500  Biso   1.000  O
  O63      1.0000 0.81010  0.95630  0.45500  Biso   1.000  O
  O64      1.0000 0.20630  0.43990  0.70500  Biso   1.000  O
  O65      1.0000 0.29910  0.02690  0.45800  Biso   1.000  O
  O66      1.0000 0.72310  0.54910  0.70800  Biso   1.000  O
  O67      1.0000 0.79910  0.52690  0.95800  Biso   1.000  O
  O68      1.0000 0.22310  0.04910  0.20800  Biso   1.000  O
  O69      1.0000 0.27690  0.95090  0.70800  Biso   1.000  O
  O70      1.0000 0.20090  0.97310  0.95800  Biso   1.000  O
  O71      1.0000 0.77690  0.45090  0.20800  Biso   1.000  O
  O72      1.0000 0.70090  0.47310  0.45800  Biso   1.000  O
  O73      1.0000 0.70090  0.97310  0.54200  Biso   1.000  O
  O74      1.0000 0.77690  0.95090  0.79200  Biso   1.000  O
  O75      1.0000 0.20090  0.47310  0.04200  Biso   1.000  O
  O76      1.0000 0.27690  0.45090  0.29200  Biso   1.000  O
  O77      1.0000 0.22310  0.54910  0.79200  Biso   1.000  O
  O78      1.0000 0.79910  0.02690  0.04200  Biso   1.000  O
  O79      1.0000 0.72310  0.04910  0.29200  Biso   1.000  O
  O80      1.0000 0.29910  0.52690  0.54200  Biso   1.000  O
