data_image0
_cell_length_a       4.813
_cell_length_b       11.511
_cell_length_c       9.939
_cell_angle_alpha    90
_cell_angle_beta     100.528
_cell_angle_gamma    90

_symmetry_space_group_name_H-M    "P 1"
_symmetry_int_tables_number       1

loop_
  _symmetry_equiv_pos_as_xyz
  'x, y, z'

loop_
  _atom_site_label
  _atom_site_occupancy
  _atom_site_fract_x
  _atom_site_fract_y
  _atom_site_fract_z
  _atom_site_thermal_displace_type
  _atom_site_B_iso_or_equiv
  _atom_site_type_symbol
  C1       1.0000 0.07140  0.89710  0.23650  Biso   1.000  C
  C2       1.0000 0.42860  0.39710  0.26350  Biso   1.000  C
  C3       1.0000 0.92860  0.10290  0.76350  Biso   1.000  C
  C4       1.0000 0.57140  0.60290  0.73650  Biso   1.000  C
  H1       1.0000 0.92670  0.84380  0.23800  Biso   1.000  H
  H2       1.0000 0.57330  0.34380  0.26200  Biso   1.000  H
  H3       1.0000 0.07330  0.15620  0.76200  Biso   1.000  H
  H4       1.0000 0.42670  0.65620  0.73800  Biso   1.000  H
  C5       1.0000 0.37150  0.03120  0.28550  Biso   1.000  C
  C6       1.0000 0.12850  0.53120  0.21450  Biso   1.000  C
  C7       1.0000 0.62850  0.96880  0.71450  Biso   1.000  C
  C8       1.0000 0.87150  0.46880  0.78550  Biso   1.000  C
  H5       1.0000 0.47390  0.09180  0.33270  Biso   1.000  H
  H6       1.0000 0.02610  0.59180  0.16730  Biso   1.000  H
  H7       1.0000 0.52610  0.90820  0.66730  Biso   1.000  H
  H8       1.0000 0.97390  0.40820  0.83270  Biso   1.000  H
  C9       1.0000 0.19640  0.83610  0.01450  Biso   1.000  C
  C10      1.0000 0.30360  0.33610  0.48550  Biso   1.000  C
  C11      1.0000 0.80360  0.16390  0.98550  Biso   1.000  C
  C12      1.0000 0.69640  0.66390  0.51450  Biso   1.000  C
  H9       1.0000 0.25390  0.88200  0.94240  Biso   1.000  H
  H10      1.0000 0.24610  0.38200  0.55760  Biso   1.000  H
  H11      1.0000 0.74610  0.11800  0.05760  Biso   1.000  H
  H12      1.0000 0.75390  0.61800  0.44240  Biso   1.000  H
  H13      1.0000 0.00050  0.81400  0.98420  Biso   1.000  H
  H14      1.0000 0.49950  0.31400  0.51580  Biso   1.000  H
  H15      1.0000 0.99950  0.18600  0.01580  Biso   1.000  H
  H16      1.0000 0.50050  0.68600  0.48420  Biso   1.000  H
  C13      1.0000 0.37790  0.72670  0.03740  Biso   1.000  C
  C14      1.0000 0.12210  0.22670  0.46260  Biso   1.000  C
  C15      1.0000 0.62210  0.27330  0.96260  Biso   1.000  C
  C16      1.0000 0.87790  0.77330  0.53740  Biso   1.000  C
  Cu1      1.0000 0.00000  0.00000  0.50000  Biso   1.000  Cu
  Cu2      1.0000 0.50000  0.50000  0.00000  Biso   1.000  Cu
  N1       1.0000 0.16050  0.97412  0.33310  Biso   1.000  N
  N2       1.0000 0.33950  0.47412  0.16690  Biso   1.000  N
  N3       1.0000 0.83950  0.02588  0.66690  Biso   1.000  N
  N4       1.0000 0.66050  0.52588  0.83310  Biso   1.000  N
  N5       1.0000 0.41650  0.99306  0.16800  Biso   1.000  N
  N6       1.0000 0.08350  0.49306  0.33200  Biso   1.000  N
  N7       1.0000 0.58350  0.00694  0.83200  Biso   1.000  N
  N8       1.0000 0.91650  0.50694  0.66800  Biso   1.000  N
  N9       1.0000 0.21890  0.90704  0.13730  Biso   1.000  N
  N10      1.0000 0.28110  0.40704  0.36270  Biso   1.000  N
  N11      1.0000 0.78110  0.09296  0.86270  Biso   1.000  N
  N12      1.0000 0.71890  0.59296  0.63730  Biso   1.000  N
  O1       1.0000 0.59830  0.72480  0.12160  Biso   1.000  O
  O2       1.0000 0.90170  0.22480  0.37840  Biso   1.000  O
  O3       1.0000 0.40170  0.27520  0.87840  Biso   1.000  O
  O4       1.0000 0.09830  0.77520  0.62160  Biso   1.000  O
  O5       1.0000 0.27810  0.64221  0.96168  Biso   1.000  O
  O6       1.0000 0.22190  0.14221  0.53832  Biso   1.000  O
  O7       1.0000 0.72190  0.35779  0.03832  Biso   1.000  O
  O8       1.0000 0.77810  0.85779  0.46168  Biso   1.000  O
