data_image0
_cell_length_a       4.8092
_cell_length_b       11.531
_cell_length_c       9.968
_cell_angle_alpha    90
_cell_angle_beta     100.41
_cell_angle_gamma    90

_symmetry_space_group_name_H-M    "P 1"
_symmetry_int_tables_number       1

loop_
  _symmetry_equiv_pos_as_xyz
  'x, y, z'

loop_
  _atom_site_label
  _atom_site_occupancy
  _atom_site_fract_x
  _atom_site_fract_y
  _atom_site_fract_z
  _atom_site_thermal_displace_type
  _atom_site_B_iso_or_equiv
  _atom_site_type_symbol
  Cu1      1.0000 0.00000  0.00000  0.00000  Biso   1.000  Cu
  Cu2      1.0000 0.50000  0.50000  0.50000  Biso   1.000  Cu
  O1       1.0000 0.22150  0.85770  0.03840  Biso   1.000  O
  O2       1.0000 0.27850  0.35770  0.46160  Biso   1.000  O
  O3       1.0000 0.77850  0.14230  0.96160  Biso   1.000  O
  O4       1.0000 0.72150  0.64230  0.53840  Biso   1.000  O
  C1       1.0000 0.30390  0.66340  0.98580  Biso   1.000  C
  C2       1.0000 0.19610  0.16340  0.51420  Biso   1.000  C
  C3       1.0000 0.69610  0.33660  0.01420  Biso   1.000  C
  C4       1.0000 0.80390  0.83660  0.48580  Biso   1.000  C
  H1       1.0000 0.50000  0.68530  0.01610  Biso   1.000  H
  H2       1.0000 0.00000  0.18530  0.48390  Biso   1.000  H
  H3       1.0000 0.50000  0.31470  0.98390  Biso   1.000  H
  H4       1.0000 0.00000  0.81470  0.51610  Biso   1.000  H
  H5       1.0000 0.24530  0.61760  0.05740  Biso   1.000  H
  H6       1.0000 0.25470  0.11760  0.44260  Biso   1.000  H
  H7       1.0000 0.75470  0.38240  0.94260  Biso   1.000  H
  H8       1.0000 0.74530  0.88240  0.55740  Biso   1.000  H
  C5       1.0000 0.12180  0.77340  0.96220  Biso   1.000  C
  C6       1.0000 0.37820  0.27340  0.53780  Biso   1.000  C
  C7       1.0000 0.87820  0.22660  0.03780  Biso   1.000  C
  C8       1.0000 0.62180  0.72660  0.46220  Biso   1.000  C
  O5       1.0000 0.90220  0.77520  0.87850  Biso   1.000  O
  O6       1.0000 0.59780  0.27520  0.62150  Biso   1.000  O
  O7       1.0000 0.09780  0.22480  0.12150  Biso   1.000  O
  O8       1.0000 0.40220  0.72480  0.37850  Biso   1.000  O
  N1       1.0000 0.33930  0.52560  0.66670  Biso   1.000  N
  N2       1.0000 0.16070  0.02560  0.83330  Biso   1.000  N
  N3       1.0000 0.66070  0.47440  0.33330  Biso   1.000  N
  N4       1.0000 0.83930  0.97440  0.16670  Biso   1.000  N
  C9       1.0000 0.42850  0.60300  0.76390  Biso   1.000  C
  C10      1.0000 0.07150  0.10300  0.73610  Biso   1.000  C
  C11      1.0000 0.57150  0.39700  0.23610  Biso   1.000  C
  C12      1.0000 0.92850  0.89700  0.26390  Biso   1.000  C
  H9       1.0000 0.57360  0.65600  0.76250  Biso   1.000  H
  H10      1.0000 0.92640  0.15600  0.73750  Biso   1.000  H
  H11      1.0000 0.42640  0.34400  0.23750  Biso   1.000  H
  H12      1.0000 0.07360  0.84400  0.26250  Biso   1.000  H
  N5       1.0000 0.28060  0.59330  0.86260  Biso   1.000  N
  N6       1.0000 0.21940  0.09330  0.63740  Biso   1.000  N
  N7       1.0000 0.71940  0.40670  0.13740  Biso   1.000  N
  N8       1.0000 0.78060  0.90670  0.36260  Biso   1.000  N
  C13      1.0000 0.12800  0.46920  0.71400  Biso   1.000  C
  C14      1.0000 0.37200  0.96920  0.78600  Biso   1.000  C
  C15      1.0000 0.87200  0.53080  0.28600  Biso   1.000  C
  C16      1.0000 0.62800  0.03080  0.21400  Biso   1.000  C
  H13      1.0000 0.02440  0.40930  0.66660  Biso   1.000  H
  H14      1.0000 0.47560  0.90930  0.83340  Biso   1.000  H
  H15      1.0000 0.97560  0.59070  0.33340  Biso   1.000  H
  H16      1.0000 0.52440  0.09070  0.16660  Biso   1.000  H
  N9       1.0000 0.08360  0.50690  0.83210  Biso   1.000  N
  N10      1.0000 0.41640  0.00690  0.66790  Biso   1.000  N
  N11      1.0000 0.91640  0.49310  0.16790  Biso   1.000  N
  N12      1.0000 0.58360  0.99310  0.33210  Biso   1.000  N
