data_image0
_cell_length_a       24.169
_cell_length_b       24.169
_cell_length_c       4.98
_cell_angle_alpha    90
_cell_angle_beta     90
_cell_angle_gamma    90

_symmetry_space_group_name_H-M    "P 1"
_symmetry_int_tables_number       1

loop_
  _symmetry_equiv_pos_as_xyz
  'x, y, z'

loop_
  _atom_site_label
  _atom_site_occupancy
  _atom_site_fract_x
  _atom_site_fract_y
  _atom_site_fract_z
  _atom_site_thermal_displace_type
  _atom_site_B_iso_or_equiv
  _atom_site_type_symbol
  Cu1      1.0000 0.50000  0.00000  0.00000  Biso   1.000  Cu
  Cu2      1.0000 0.75000  0.75000  0.25000  Biso   1.000  Cu
  Cu3      1.0000 0.00000  0.50000  0.50000  Biso   1.000  Cu
  Cu4      1.0000 0.25000  0.25000  0.75000  Biso   1.000  Cu
  Cu5      1.0000 0.25000  0.75000  0.25000  Biso   1.000  Cu
  Cu6      1.0000 0.00000  0.00000  0.50000  Biso   1.000  Cu
  Cu7      1.0000 0.75000  0.25000  0.75000  Biso   1.000  Cu
  Cu8      1.0000 0.50000  0.50000  0.00000  Biso   1.000  Cu
  O1       1.0000 0.52246  0.93203  0.81870  Biso   1.000  O
  O2       1.0000 0.81797  0.77246  0.06870  Biso   1.000  O
  O3       1.0000 0.02246  0.43203  0.31870  Biso   1.000  O
  O4       1.0000 0.31797  0.27246  0.56870  Biso   1.000  O
  O5       1.0000 0.18203  0.72754  0.06870  Biso   1.000  O
  O6       1.0000 0.97754  0.06797  0.31870  Biso   1.000  O
  O7       1.0000 0.68203  0.22754  0.56870  Biso   1.000  O
  O8       1.0000 0.47754  0.56797  0.81870  Biso   1.000  O
  O9       1.0000 0.47754  0.06797  0.18130  Biso   1.000  O
  O10      1.0000 0.68203  0.72754  0.43130  Biso   1.000  O
  O11      1.0000 0.97754  0.56797  0.68130  Biso   1.000  O
  O12      1.0000 0.18203  0.22754  0.93130  Biso   1.000  O
  O13      1.0000 0.31797  0.77246  0.43130  Biso   1.000  O
  O14      1.0000 0.02246  0.93203  0.68130  Biso   1.000  O
  O15      1.0000 0.81797  0.27246  0.93130  Biso   1.000  O
  O16      1.0000 0.52246  0.43203  0.18130  Biso   1.000  O
  N1       1.0000 0.63824  0.83781  0.79840  Biso   1.000  N
  N2       1.0000 0.91219  0.88824  0.04840  Biso   1.000  N
  N3       1.0000 0.13824  0.33781  0.29840  Biso   1.000  N
  N4       1.0000 0.41219  0.38824  0.54840  Biso   1.000  N
  N5       1.0000 0.08781  0.61176  0.04840  Biso   1.000  N
  N6       1.0000 0.86176  0.16219  0.29840  Biso   1.000  N
  N7       1.0000 0.58781  0.11176  0.54840  Biso   1.000  N
  N8       1.0000 0.36176  0.66219  0.79840  Biso   1.000  N
  N9       1.0000 0.36176  0.16219  0.20160  Biso   1.000  N
  N10      1.0000 0.58781  0.61176  0.45160  Biso   1.000  N
  N11      1.0000 0.86176  0.66219  0.70160  Biso   1.000  N
  N12      1.0000 0.08781  0.11176  0.95160  Biso   1.000  N
  N13      1.0000 0.41219  0.88824  0.45160  Biso   1.000  N
  N14      1.0000 0.13824  0.83781  0.70160  Biso   1.000  N
  N15      1.0000 0.91219  0.38824  0.95160  Biso   1.000  N
  N16      1.0000 0.63824  0.33781  0.20160  Biso   1.000  N
  C1       1.0000 0.58400  0.85960  0.72740  Biso   1.000  C
  C2       1.0000 0.89040  0.83400  0.97740  Biso   1.000  C
  C3       1.0000 0.08400  0.35960  0.22740  Biso   1.000  C
  C4       1.0000 0.39040  0.33400  0.47740  Biso   1.000  C
  C5       1.0000 0.10960  0.66600  0.97740  Biso   1.000  C
  C6       1.0000 0.91600  0.14040  0.22740  Biso   1.000  C
  C7       1.0000 0.60960  0.16600  0.47740  Biso   1.000  C
  C8       1.0000 0.41600  0.64040  0.72740  Biso   1.000  C
  C9       1.0000 0.41600  0.14040  0.27260  Biso   1.000  C
  C10      1.0000 0.60960  0.66600  0.52260  Biso   1.000  C
  C11      1.0000 0.91600  0.64040  0.77260  Biso   1.000  C
  C12      1.0000 0.10960  0.16600  0.02260  Biso   1.000  C
  C13      1.0000 0.39040  0.83400  0.52260  Biso   1.000  C
  C14      1.0000 0.08400  0.85960  0.77260  Biso   1.000  C
  C15      1.0000 0.89040  0.33400  0.02260  Biso   1.000  C
  C16      1.0000 0.58400  0.35960  0.27260  Biso   1.000  C
  H1       1.0000 0.55660  0.83070  0.75090  Biso   1.000  H
  H2       1.0000 0.91930  0.80660  0.00090  Biso   1.000  H
  H3       1.0000 0.05660  0.33070  0.25090  Biso   1.000  H
  H4       1.0000 0.41930  0.30660  0.50090  Biso   1.000  H
  H5       1.0000 0.08070  0.69340  0.00090  Biso   1.000  H
  H6       1.0000 0.94340  0.16930  0.25090  Biso   1.000  H
  H7       1.0000 0.58070  0.19340  0.50090  Biso   1.000  H
  H8       1.0000 0.44340  0.66930  0.75090  Biso   1.000  H
  H9       1.0000 0.44340  0.16930  0.24910  Biso   1.000  H
  H10      1.0000 0.58070  0.69340  0.49910  Biso   1.000  H
  H11      1.0000 0.94340  0.66930  0.74910  Biso   1.000  H
  H12      1.0000 0.08070  0.19340  0.99910  Biso   1.000  H
  H13      1.0000 0.41930  0.80660  0.49910  Biso   1.000  H
  H14      1.0000 0.05660  0.83070  0.74910  Biso   1.000  H
  H15      1.0000 0.91930  0.30660  0.99910  Biso   1.000  H
  H16      1.0000 0.55660  0.33070  0.24910  Biso   1.000  H
  H17      1.0000 0.58410  0.87010  0.53940  Biso   1.000  H
  H18      1.0000 0.87990  0.83410  0.78940  Biso   1.000  H
  H19      1.0000 0.08410  0.37010  0.03940  Biso   1.000  H
  H20      1.0000 0.37990  0.33410  0.28940  Biso   1.000  H
  H21      1.0000 0.12010  0.66590  0.78940  Biso   1.000  H
  H22      1.0000 0.91590  0.12990  0.03940  Biso   1.000  H
  H23      1.0000 0.62010  0.16590  0.28940  Biso   1.000  H
  H24      1.0000 0.41590  0.62990  0.53940  Biso   1.000  H
  H25      1.0000 0.41590  0.12990  0.46060  Biso   1.000  H
  H26      1.0000 0.62010  0.66590  0.71060  Biso   1.000  H
  H27      1.0000 0.91590  0.62990  0.96060  Biso   1.000  H
  H28      1.0000 0.12010  0.16590  0.21060  Biso   1.000  H
  H29      1.0000 0.37990  0.83410  0.71060  Biso   1.000  H
  H30      1.0000 0.08410  0.87010  0.96060  Biso   1.000  H
  H31      1.0000 0.87990  0.33410  0.21060  Biso   1.000  H
  H32      1.0000 0.58410  0.37010  0.46060  Biso   1.000  H
  C17      1.0000 0.56770  0.90970  0.89660  Biso   1.000  C
  C18      1.0000 0.84030  0.81770  0.14660  Biso   1.000  C
  C19      1.0000 0.06770  0.40970  0.39660  Biso   1.000  C
  C20      1.0000 0.34030  0.31770  0.64660  Biso   1.000  C
  C21      1.0000 0.15970  0.68230  0.14660  Biso   1.000  C
  C22      1.0000 0.93230  0.09030  0.39660  Biso   1.000  C
  C23      1.0000 0.65970  0.18230  0.64660  Biso   1.000  C
  C24      1.0000 0.43230  0.59030  0.89660  Biso   1.000  C
  C25      1.0000 0.43230  0.09030  0.10340  Biso   1.000  C
  C26      1.0000 0.65970  0.68230  0.35340  Biso   1.000  C
  C27      1.0000 0.93230  0.59030  0.60340  Biso   1.000  C
  C28      1.0000 0.15970  0.18230  0.85340  Biso   1.000  C
  C29      1.0000 0.34030  0.81770  0.35340  Biso   1.000  C
  C30      1.0000 0.06770  0.90970  0.60340  Biso   1.000  C
  C31      1.0000 0.84030  0.31770  0.85340  Biso   1.000  C
  C32      1.0000 0.56770  0.40970  0.10340  Biso   1.000  C
  N17      1.0000 0.68391  0.85370  0.66290  Biso   1.000  N
  N18      1.0000 0.89630  0.93391  0.91290  Biso   1.000  N
  N19      1.0000 0.18391  0.35370  0.16290  Biso   1.000  N
  N20      1.0000 0.39630  0.43391  0.41290  Biso   1.000  N
  N21      1.0000 0.10370  0.56609  0.91290  Biso   1.000  N
  N22      1.0000 0.81609  0.14630  0.16290  Biso   1.000  N
  N23      1.0000 0.60370  0.06609  0.41290  Biso   1.000  N
  N24      1.0000 0.31609  0.64630  0.66290  Biso   1.000  N
  N25      1.0000 0.31609  0.14630  0.33710  Biso   1.000  N
  N26      1.0000 0.60370  0.56609  0.58710  Biso   1.000  N
  N27      1.0000 0.81609  0.64630  0.83710  Biso   1.000  N
  N28      1.0000 0.10370  0.06609  0.08710  Biso   1.000  N
  N29      1.0000 0.39630  0.93391  0.58710  Biso   1.000  N
  N30      1.0000 0.18391  0.85370  0.83710  Biso   1.000  N
  N31      1.0000 0.89630  0.43391  0.08710  Biso   1.000  N
  N32      1.0000 0.68391  0.35370  0.33710  Biso   1.000  N
  C33      1.0000 0.72410  0.82790  0.79020  Biso   1.000  C
  C34      1.0000 0.92210  0.97410  0.04020  Biso   1.000  C
  C35      1.0000 0.22410  0.32790  0.29020  Biso   1.000  C
  C36      1.0000 0.42210  0.47410  0.54020  Biso   1.000  C
  C37      1.0000 0.07790  0.52590  0.04020  Biso   1.000  C
  C38      1.0000 0.77590  0.17210  0.29020  Biso   1.000  C
  C39      1.0000 0.57790  0.02590  0.54020  Biso   1.000  C
  C40      1.0000 0.27590  0.67210  0.79020  Biso   1.000  C
  C41      1.0000 0.27590  0.17210  0.20980  Biso   1.000  C
  C42      1.0000 0.57790  0.52590  0.45980  Biso   1.000  C
  C43      1.0000 0.77590  0.67210  0.70980  Biso   1.000  C
  C44      1.0000 0.07790  0.02590  0.95980  Biso   1.000  C
  C45      1.0000 0.42210  0.97410  0.45980  Biso   1.000  C
  C46      1.0000 0.22410  0.82790  0.70980  Biso   1.000  C
  C47      1.0000 0.92210  0.47410  0.95980  Biso   1.000  C
  C48      1.0000 0.72410  0.32790  0.20980  Biso   1.000  C
  H33      1.0000 0.76110  0.83130  0.74260  Biso   1.000  H
  H34      1.0000 0.91870  0.01110  0.99260  Biso   1.000  H
  H35      1.0000 0.26110  0.33130  0.24260  Biso   1.000  H
  H36      1.0000 0.41870  0.51110  0.49260  Biso   1.000  H
  H37      1.0000 0.08130  0.48890  0.99260  Biso   1.000  H
  H38      1.0000 0.73890  0.16870  0.24260  Biso   1.000  H
  H39      1.0000 0.58130  0.98890  0.49260  Biso   1.000  H
  H40      1.0000 0.23890  0.66870  0.74260  Biso   1.000  H
  H41      1.0000 0.23890  0.16870  0.25740  Biso   1.000  H
  H42      1.0000 0.58130  0.48890  0.50740  Biso   1.000  H
  H43      1.0000 0.73890  0.66870  0.75740  Biso   1.000  H
  H44      1.0000 0.08130  0.98890  0.00740  Biso   1.000  H
  H45      1.0000 0.41870  0.01110  0.50740  Biso   1.000  H
  H46      1.0000 0.26110  0.83130  0.75740  Biso   1.000  H
  H47      1.0000 0.91870  0.51110  0.00740  Biso   1.000  H
  H48      1.0000 0.76110  0.33130  0.25740  Biso   1.000  H
  C49      1.0000 0.65180  0.80400  0.99520  Biso   1.000  C
  C50      1.0000 0.94600  0.90180  0.24520  Biso   1.000  C
  C51      1.0000 0.15180  0.30400  0.49520  Biso   1.000  C
  C52      1.0000 0.44600  0.40180  0.74520  Biso   1.000  C
  C53      1.0000 0.05400  0.59820  0.24520  Biso   1.000  C
  C54      1.0000 0.84820  0.19600  0.49520  Biso   1.000  C
  C55      1.0000 0.55400  0.09820  0.74520  Biso   1.000  C
  C56      1.0000 0.34820  0.69600  0.99520  Biso   1.000  C
  C57      1.0000 0.34820  0.19600  0.00480  Biso   1.000  C
  C58      1.0000 0.55400  0.59820  0.25480  Biso   1.000  C
  C59      1.0000 0.84820  0.69600  0.50480  Biso   1.000  C
  C60      1.0000 0.05400  0.09820  0.75480  Biso   1.000  C
  C61      1.0000 0.44600  0.90180  0.25480  Biso   1.000  C
  C62      1.0000 0.15180  0.80400  0.50480  Biso   1.000  C
  C63      1.0000 0.94600  0.40180  0.75480  Biso   1.000  C
  C64      1.0000 0.65180  0.30400  0.00480  Biso   1.000  C
  H49      1.0000 0.62680  0.78820  0.11500  Biso   1.000  H
  H50      1.0000 0.96180  0.87680  0.36500  Biso   1.000  H
  H51      1.0000 0.12680  0.28820  0.61500  Biso   1.000  H
  H52      1.0000 0.46180  0.37680  0.86500  Biso   1.000  H
  H53      1.0000 0.03820  0.62320  0.36500  Biso   1.000  H
  H54      1.0000 0.87320  0.21180  0.61500  Biso   1.000  H
  H55      1.0000 0.53820  0.12320  0.86500  Biso   1.000  H
  H56      1.0000 0.37320  0.71180  0.11500  Biso   1.000  H
  H57      1.0000 0.37320  0.21180  0.88500  Biso   1.000  H
  H58      1.0000 0.53820  0.62320  0.13500  Biso   1.000  H
  H59      1.0000 0.87320  0.71180  0.38500  Biso   1.000  H
  H60      1.0000 0.03820  0.12320  0.63500  Biso   1.000  H
  H61      1.0000 0.46180  0.87680  0.13500  Biso   1.000  H
  H62      1.0000 0.12680  0.78820  0.38500  Biso   1.000  H
  H63      1.0000 0.96180  0.37680  0.63500  Biso   1.000  H
  H64      1.0000 0.62680  0.28820  0.88500  Biso   1.000  H
  O17      1.0000 0.59541  0.92547  0.08780  Biso   1.000  O
  O18      1.0000 0.82453  0.84541  0.33780  Biso   1.000  O
  O19      1.0000 0.09541  0.42547  0.58780  Biso   1.000  O
  O20      1.0000 0.32453  0.34541  0.83780  Biso   1.000  O
  O21      1.0000 0.17547  0.65459  0.33780  Biso   1.000  O
  O22      1.0000 0.90459  0.07453  0.58780  Biso   1.000  O
  O23      1.0000 0.67547  0.15459  0.83780  Biso   1.000  O
  O24      1.0000 0.40459  0.57453  0.08780  Biso   1.000  O
  O25      1.0000 0.40459  0.07453  0.91220  Biso   1.000  O
  O26      1.0000 0.67547  0.65459  0.16220  Biso   1.000  O
  O27      1.0000 0.90459  0.57453  0.41220  Biso   1.000  O
  O28      1.0000 0.17547  0.15459  0.66220  Biso   1.000  O
  O29      1.0000 0.32453  0.84541  0.16220  Biso   1.000  O
  O30      1.0000 0.09541  0.92547  0.41220  Biso   1.000  O
  O31      1.0000 0.82453  0.34541  0.66220  Biso   1.000  O
  O32      1.0000 0.59541  0.42547  0.91220  Biso   1.000  O
  N33      1.0000 0.45428  0.95647  0.25180  Biso   1.000  N
  N34      1.0000 0.79353  0.70428  0.50180  Biso   1.000  N
  N35      1.0000 0.95428  0.45647  0.75180  Biso   1.000  N
  N36      1.0000 0.29353  0.20428  0.00180  Biso   1.000  N
  N37      1.0000 0.20647  0.79572  0.50180  Biso   1.000  N
  N38      1.0000 0.04572  0.04353  0.75180  Biso   1.000  N
  N39      1.0000 0.70647  0.29572  0.00180  Biso   1.000  N
  N40      1.0000 0.54572  0.54353  0.25180  Biso   1.000  N
  N41      1.0000 0.54572  0.04353  0.74820  Biso   1.000  N
  N42      1.0000 0.70647  0.79572  0.99820  Biso   1.000  N
  N43      1.0000 0.04572  0.54353  0.24820  Biso   1.000  N
  N44      1.0000 0.20647  0.29572  0.49820  Biso   1.000  N
  N45      1.0000 0.29353  0.70428  0.99820  Biso   1.000  N
  N46      1.0000 0.95428  0.95647  0.24820  Biso   1.000  N
  N47      1.0000 0.79353  0.20428  0.49820  Biso   1.000  N
  N48      1.0000 0.45428  0.45647  0.74820  Biso   1.000  N
  F1       1.0000 0.52911  0.78640  0.28160  Biso   1.000  F
  F2       1.0000 0.96360  0.77911  0.53160  Biso   1.000  F
  F3       1.0000 0.02911  0.28640  0.78160  Biso   1.000  F
  F4       1.0000 0.46360  0.27911  0.03160  Biso   1.000  F
  F5       1.0000 0.03640  0.72089  0.53160  Biso   1.000  F
  F6       1.0000 0.97089  0.21360  0.78160  Biso   1.000  F
  F7       1.0000 0.53640  0.22089  0.03160  Biso   1.000  F
  F8       1.0000 0.47089  0.71360  0.28160  Biso   1.000  F
  F9       1.0000 0.47089  0.21360  0.71840  Biso   1.000  F
  F10      1.0000 0.53640  0.72089  0.96840  Biso   1.000  F
  F11      1.0000 0.97089  0.71360  0.21840  Biso   1.000  F
  F12      1.0000 0.03640  0.22089  0.46840  Biso   1.000  F
  F13      1.0000 0.46360  0.77911  0.96840  Biso   1.000  F
  F14      1.0000 0.02911  0.78640  0.21840  Biso   1.000  F
  F15      1.0000 0.96360  0.27911  0.46840  Biso   1.000  F
  F16      1.0000 0.52911  0.28640  0.71840  Biso   1.000  F
  B1       1.0000 0.50000  0.75000  0.12500  Biso   1.000  B
  B2       1.0000 0.00000  0.75000  0.37500  Biso   1.000  B
  B3       1.0000 0.00000  0.25000  0.62500  Biso   1.000  B
  B4       1.0000 0.50000  0.25000  0.87500  Biso   1.000  B
  Na1      1.0000 0.74470  0.99500  0.81500  Biso   1.000  Na
  Na2      1.0000 0.75500  0.99470  0.06500  Biso   1.000  Na
  Na3      1.0000 0.24470  0.49500  0.31500  Biso   1.000  Na
  Na4      1.0000 0.25500  0.49470  0.56500  Biso   1.000  Na
  Na5      1.0000 0.24500  0.50530  0.06500  Biso   1.000  Na
  Na6      1.0000 0.75530  0.00500  0.31500  Biso   1.000  Na
  Na7      1.0000 0.74500  0.00530  0.56500  Biso   1.000  Na
  Na8      1.0000 0.25530  0.50500  0.81500  Biso   1.000  Na
  Na9      1.0000 0.25530  0.00500  0.18500  Biso   1.000  Na
  Na10     1.0000 0.74500  0.50530  0.43500  Biso   1.000  Na
  Na11     1.0000 0.75530  0.50500  0.68500  Biso   1.000  Na
  Na12     1.0000 0.24500  0.00530  0.93500  Biso   1.000  Na
  Na13     1.0000 0.25500  0.99470  0.43500  Biso   1.000  Na
  Na14     1.0000 0.24470  0.99500  0.68500  Biso   1.000  Na
  Na15     1.0000 0.75500  0.49470  0.93500  Biso   1.000  Na
  Na16     1.0000 0.74470  0.49500  0.18500  Biso   1.000  Na
  O33      1.0000 0.69090  0.04180  0.93700  Biso   1.000  O
  O34      1.0000 0.70820  0.94090  0.18700  Biso   1.000  O
  O35      1.0000 0.19090  0.54180  0.43700  Biso   1.000  O
  O36      1.0000 0.20820  0.44090  0.68700  Biso   1.000  O
  O37      1.0000 0.29180  0.55910  0.18700  Biso   1.000  O
  O38      1.0000 0.80910  0.95820  0.43700  Biso   1.000  O
  O39      1.0000 0.79180  0.05910  0.68700  Biso   1.000  O
  O40      1.0000 0.30910  0.45820  0.93700  Biso   1.000  O
  O41      1.0000 0.30910  0.95820  0.06300  Biso   1.000  O
  O42      1.0000 0.79180  0.55910  0.31300  Biso   1.000  O
  O43      1.0000 0.80910  0.45820  0.56300  Biso   1.000  O
  O44      1.0000 0.29180  0.05910  0.81300  Biso   1.000  O
  O45      1.0000 0.20820  0.94090  0.31300  Biso   1.000  O
  O46      1.0000 0.19090  0.04180  0.56300  Biso   1.000  O
  O47      1.0000 0.70820  0.44090  0.81300  Biso   1.000  O
  O48      1.0000 0.69090  0.54180  0.06300  Biso   1.000  O
  O49      1.0000 0.77880  0.94900  0.77800  Biso   1.000  O
  O50      1.0000 0.80100  0.02880  0.02800  Biso   1.000  O
  O51      1.0000 0.27880  0.44900  0.27800  Biso   1.000  O
  O52      1.0000 0.30100  0.52880  0.52800  Biso   1.000  O
  O53      1.0000 0.19900  0.47120  0.02800  Biso   1.000  O
  O54      1.0000 0.72120  0.05100  0.27800  Biso   1.000  O
  O55      1.0000 0.69900  0.97120  0.52800  Biso   1.000  O
  O56      1.0000 0.22120  0.55100  0.77800  Biso   1.000  O
  O57      1.0000 0.22120  0.05100  0.22200  Biso   1.000  O
  O58      1.0000 0.69900  0.47120  0.47200  Biso   1.000  O
  O59      1.0000 0.72120  0.55100  0.72200  Biso   1.000  O
  O60      1.0000 0.19900  0.97120  0.97200  Biso   1.000  O
  O61      1.0000 0.30100  0.02880  0.47200  Biso   1.000  O
  O62      1.0000 0.27880  0.94900  0.72200  Biso   1.000  O
  O63      1.0000 0.80100  0.52880  0.97200  Biso   1.000  O
  O64      1.0000 0.77880  0.44900  0.22200  Biso   1.000  O
