data_image0
_cell_length_a       16.226
_cell_length_b       19.493
_cell_length_c       19.327
_cell_angle_alpha    90
_cell_angle_beta     109.824
_cell_angle_gamma    90

_symmetry_space_group_name_H-M    "P 1"
_symmetry_int_tables_number       1

loop_
  _symmetry_equiv_pos_as_xyz
  'x, y, z'

loop_
  _atom_site_label
  _atom_site_occupancy
  _atom_site_fract_x
  _atom_site_fract_y
  _atom_site_fract_z
  _atom_site_thermal_displace_type
  _atom_site_B_iso_or_equiv
  _atom_site_type_symbol
  W1       1.0000 0.85873  0.60377  0.68359  Biso   1.000  W
  W2       1.0000 0.64127  0.10377  0.81641  Biso   1.000  W
  W3       1.0000 0.14127  0.39623  0.31641  Biso   1.000  W
  W4       1.0000 0.35873  0.89623  0.18359  Biso   1.000  W
  W5       1.0000 0.97050  0.75200  0.67658  Biso   1.000  W
  W6       1.0000 0.52950  0.25200  0.82342  Biso   1.000  W
  W7       1.0000 0.02950  0.24800  0.32342  Biso   1.000  W
  W8       1.0000 0.47050  0.74800  0.17658  Biso   1.000  W
  W9       1.0000 0.92290  0.63609  0.53442  Biso   1.000  W
  W10      1.0000 0.57710  0.13609  0.96558  Biso   1.000  W
  W11      1.0000 0.07710  0.36391  0.46558  Biso   1.000  W
  W12      1.0000 0.42290  0.86391  0.03442  Biso   1.000  W
  W13      1.0000 0.68038  0.70284  0.70961  Biso   1.000  W
  W14      1.0000 0.81962  0.20284  0.79039  Biso   1.000  W
  W15      1.0000 0.31962  0.29716  0.29039  Biso   1.000  W
  W16      1.0000 0.18038  0.79716  0.20961  Biso   1.000  W
  W17      1.0000 0.57664  0.82750  0.58639  Biso   1.000  W
  W18      1.0000 0.92336  0.32750  0.91361  Biso   1.000  W
  W19      1.0000 0.42336  0.17250  0.41361  Biso   1.000  W
  W20      1.0000 0.07664  0.67250  0.08639  Biso   1.000  W
  W21      1.0000 0.78854  0.85257  0.70232  Biso   1.000  W
  W22      1.0000 0.71146  0.35257  0.79768  Biso   1.000  W
  W23      1.0000 0.21146  0.14743  0.29768  Biso   1.000  W
  W24      1.0000 0.28854  0.64743  0.20232  Biso   1.000  W
  W25      1.0000 0.86261  0.88775  0.54312  Biso   1.000  W
  W26      1.0000 0.63739  0.38775  0.95688  Biso   1.000  W
  W27      1.0000 0.13739  0.11225  0.45688  Biso   1.000  W
  W28      1.0000 0.36261  0.61225  0.04312  Biso   1.000  W
  W29      1.0000 0.81144  0.77045  0.39866  Biso   1.000  W
  W30      1.0000 0.68856  0.27045  0.10134  Biso   1.000  W
  W31      1.0000 0.18856  0.22955  0.60134  Biso   1.000  W
  W32      1.0000 0.31144  0.72955  0.89866  Biso   1.000  W
  W33      1.0000 0.65095  0.86591  0.43102  Biso   1.000  W
  W34      1.0000 0.84905  0.36591  0.06898  Biso   1.000  W
  W35      1.0000 0.34905  0.13409  0.56898  Biso   1.000  W
  W36      1.0000 0.15095  0.63409  0.93102  Biso   1.000  W
  W37      1.0000 0.53989  0.69921  0.43289  Biso   1.000  W
  W38      1.0000 0.96011  0.19921  0.06711  Biso   1.000  W
  W39      1.0000 0.46011  0.30079  0.56711  Biso   1.000  W
  W40      1.0000 0.03989  0.80079  0.93289  Biso   1.000  W
  W41      1.0000 0.63274  0.57446  0.55462  Biso   1.000  W
  W42      1.0000 0.86726  0.07446  0.94538  Biso   1.000  W
  W43      1.0000 0.36726  0.42554  0.44538  Biso   1.000  W
  W44      1.0000 0.13274  0.92554  0.05462  Biso   1.000  W
  P1       1.0000 0.74635  0.73181  0.55504  Biso   1.000  P
  P2       1.0000 0.75365  0.23181  0.94496  Biso   1.000  P
  P3       1.0000 0.25365  0.26819  0.44496  Biso   1.000  P
  P4       1.0000 0.24635  0.76819  0.05504  Biso   1.000  P
  Cu1      1.0000 0.75040  0.50911  0.44286  Biso   1.000  Cu
  Cu2      1.0000 0.74960  0.00911  0.05714  Biso   1.000  Cu
  Cu3      1.0000 0.24960  0.49089  0.55714  Biso   1.000  Cu
  Cu4      1.0000 0.25040  0.99089  0.94286  Biso   1.000  Cu
  Cu5      1.0000 0.14277  0.86291  0.80608  Biso   1.000  Cu
  Cu6      1.0000 0.35723  0.36291  0.69392  Biso   1.000  Cu
  Cu7      1.0000 0.85723  0.13709  0.19392  Biso   1.000  Cu
  Cu8      1.0000 0.64277  0.63709  0.30608  Biso   1.000  Cu
  Cu9      1.0000 0.81588  0.77047  0.89767  Biso   1.000  Cu
  Cu10     1.0000 0.68412  0.27047  0.60233  Biso   1.000  Cu
  Cu11     1.0000 0.18412  0.22953  0.10233  Biso   1.000  Cu
  Cu12     1.0000 0.31588  0.72953  0.39767  Biso   1.000  Cu
  O1       1.0000 0.89700  0.53710  0.74300  Biso   1.000  O
  O2       1.0000 0.60300  0.03710  0.75700  Biso   1.000  O
  O3       1.0000 0.10300  0.46290  0.25700  Biso   1.000  O
  O4       1.0000 0.39700  0.96290  0.24300  Biso   1.000  O
  O5       1.0000 0.95340  0.66840  0.72080  Biso   1.000  O
  O6       1.0000 0.54660  0.16840  0.77920  Biso   1.000  O
  O7       1.0000 0.04660  0.33160  0.27920  Biso   1.000  O
  O8       1.0000 0.45340  0.83160  0.22080  Biso   1.000  O
  O9       1.0000 0.00050  0.69590  0.60680  Biso   1.000  O
  O10      1.0000 0.49950  0.19590  0.89320  Biso   1.000  O
  O11      1.0000 0.99950  0.30410  0.39320  Biso   1.000  O
  O12      1.0000 0.50050  0.80410  0.10680  Biso   1.000  O
  O13      1.0000 0.91560  0.57960  0.61140  Biso   1.000  O
  O14      1.0000 0.58440  0.07960  0.88860  Biso   1.000  O
  O15      1.0000 0.08440  0.42040  0.38860  Biso   1.000  O
  O16      1.0000 0.41560  0.92040  0.11140  Biso   1.000  O
  O17      1.0000 0.75450  0.56860  0.61840  Biso   1.000  O
  O18      1.0000 0.74550  0.06860  0.88160  Biso   1.000  O
  O19      1.0000 0.24550  0.43140  0.38160  Biso   1.000  O
  O20      1.0000 0.25450  0.93140  0.11840  Biso   1.000  O
  O21      1.0000 0.83410  0.69550  0.59250  Biso   1.000  O
  O22      1.0000 0.66590  0.19550  0.90750  Biso   1.000  O
  O23      1.0000 0.16590  0.30450  0.40750  Biso   1.000  O
  O24      1.0000 0.33410  0.80450  0.09250  Biso   1.000  O
  O25      1.0000 0.07240  0.77730  0.73350  Biso   1.000  O
  O26      1.0000 0.42760  0.27730  0.76650  Biso   1.000  O
  O27      1.0000 0.92760  0.22270  0.26650  Biso   1.000  O
  O28      1.0000 0.57240  0.72270  0.23350  Biso   1.000  O
  O29      1.0000 0.89240  0.79600  0.71460  Biso   1.000  O
  O30      1.0000 0.60760  0.29600  0.78540  Biso   1.000  O
  O31      1.0000 0.10760  0.20400  0.28540  Biso   1.000  O
  O32      1.0000 0.39240  0.70400  0.21460  Biso   1.000  O
  O33      1.0000 0.94220  0.82160  0.60310  Biso   1.000  O
  O34      1.0000 0.55780  0.32160  0.89690  Biso   1.000  O
  O35      1.0000 0.05780  0.17840  0.39690  Biso   1.000  O
  O36      1.0000 0.44220  0.67840  0.10310  Biso   1.000  O
  O37      1.0000 0.99760  0.59160  0.50740  Biso   1.000  O
  O38      1.0000 0.50240  0.09160  0.99260  Biso   1.000  O
  O39      1.0000 0.00240  0.40840  0.49260  Biso   1.000  O
  O40      1.0000 0.49760  0.90840  0.00740  Biso   1.000  O
  O41      1.0000 0.89400  0.71210  0.46930  Biso   1.000  O
  O42      1.0000 0.60600  0.21210  0.03070  Biso   1.000  O
  O43      1.0000 0.10600  0.28790  0.53070  Biso   1.000  O
  O44      1.0000 0.39400  0.78790  0.96930  Biso   1.000  O
  O45      1.0000 0.65160  0.67250  0.78100  Biso   1.000  O
  O46      1.0000 0.84840  0.17250  0.71900  Biso   1.000  O
  O47      1.0000 0.34840  0.32750  0.21900  Biso   1.000  O
  O48      1.0000 0.15160  0.82750  0.28100  Biso   1.000  O
  O49      1.0000 0.53570  0.75770  0.52070  Biso   1.000  O
  O50      1.0000 0.96430  0.25770  0.97930  Biso   1.000  O
  O51      1.0000 0.46430  0.24230  0.47930  Biso   1.000  O
  O52      1.0000 0.03570  0.74230  0.02070  Biso   1.000  O
  O53      1.0000 0.63120  0.64010  0.63520  Biso   1.000  O
  O54      1.0000 0.86880  0.14010  0.86480  Biso   1.000  O
  O55      1.0000 0.36880  0.35990  0.36480  Biso   1.000  O
  O56      1.0000 0.13120  0.85990  0.13520  Biso   1.000  O
  O57      1.0000 0.79140  0.65740  0.72490  Biso   1.000  O
  O58      1.0000 0.70860  0.15740  0.77510  Biso   1.000  O
  O59      1.0000 0.20860  0.34260  0.27510  Biso   1.000  O
  O60      1.0000 0.29140  0.84260  0.22490  Biso   1.000  O
  O61      1.0000 0.71700  0.76530  0.61530  Biso   1.000  O
  O62      1.0000 0.78300  0.26530  0.88470  Biso   1.000  O
  O63      1.0000 0.28300  0.23470  0.38470  Biso   1.000  O
  O64      1.0000 0.21700  0.73470  0.11530  Biso   1.000  O
  O65      1.0000 0.58710  0.76720  0.66760  Biso   1.000  O
  O66      1.0000 0.91290  0.26720  0.83240  Biso   1.000  O
  O67      1.0000 0.41290  0.23280  0.33240  Biso   1.000  O
  O68      1.0000 0.08710  0.73280  0.16760  Biso   1.000  O
  O69      1.0000 0.48550  0.87160  0.58350  Biso   1.000  O
  O70      1.0000 0.01450  0.37160  0.91650  Biso   1.000  O
  O71      1.0000 0.51450  0.12840  0.41650  Biso   1.000  O
  O72      1.0000 0.98550  0.62840  0.08350  Biso   1.000  O
  O73      1.0000 0.67040  0.88030  0.66050  Biso   1.000  O
  O74      1.0000 0.82960  0.38030  0.83950  Biso   1.000  O
  O75      1.0000 0.32960  0.11970  0.33950  Biso   1.000  O
  O76      1.0000 0.17040  0.61970  0.16050  Biso   1.000  O
  O77      1.0000 0.75200  0.78240  0.75650  Biso   1.000  O
  O78      1.0000 0.74800  0.28240  0.74350  Biso   1.000  O
  O79      1.0000 0.24800  0.21760  0.24350  Biso   1.000  O
  O80      1.0000 0.25200  0.71760  0.25650  Biso   1.000  O
  O81      1.0000 0.61750  0.87280  0.51670  Biso   1.000  O
  O82      1.0000 0.88250  0.37280  0.98330  Biso   1.000  O
  O83      1.0000 0.38250  0.12720  0.48330  Biso   1.000  O
  O84      1.0000 0.11750  0.62720  0.01670  Biso   1.000  O
  O85      1.0000 0.82930  0.91230  0.76900  Biso   1.000  O
  O86      1.0000 0.67070  0.41230  0.73100  Biso   1.000  O
  O87      1.0000 0.17070  0.08770  0.23100  Biso   1.000  O
  O88      1.0000 0.32930  0.58770  0.26900  Biso   1.000  O
  O89      1.0000 0.81550  0.89120  0.62260  Biso   1.000  O
  O90      1.0000 0.68450  0.39120  0.87740  Biso   1.000  O
  O91      1.0000 0.18450  0.10880  0.37740  Biso   1.000  O
  O92      1.0000 0.31550  0.60880  0.12260  Biso   1.000  O
  O93      1.0000 0.92380  0.96110  0.55620  Biso   1.000  O
  O94      1.0000 0.57620  0.46110  0.94380  Biso   1.000  O
  O95      1.0000 0.07620  0.03890  0.44380  Biso   1.000  O
  O96      1.0000 0.42380  0.53890  0.05620  Biso   1.000  O
  O97      1.0000 0.75110  0.92200  0.48060  Biso   1.000  O
  O98      1.0000 0.74890  0.42200  0.01940  Biso   1.000  O
  O99      1.0000 0.24890  0.07800  0.51940  Biso   1.000  O
  O100     1.0000 0.25110  0.57800  0.98060  Biso   1.000  O
  O101     1.0000 0.87810  0.84870  0.45990  Biso   1.000  O
  O102     1.0000 0.62190  0.34870  0.04010  Biso   1.000  O
  O103     1.0000 0.12190  0.15130  0.54010  Biso   1.000  O
  O104     1.0000 0.37810  0.65130  0.95990  Biso   1.000  O
  O105     1.0000 0.81490  0.59660  0.47090  Biso   1.000  O
  O106     1.0000 0.68510  0.09660  0.02910  Biso   1.000  O
  O107     1.0000 0.18510  0.40340  0.52910  Biso   1.000  O
  O108     1.0000 0.31490  0.90340  0.97090  Biso   1.000  O
  O109     1.0000 0.76180  0.78840  0.50490  Biso   1.000  O
  O110     1.0000 0.73820  0.28840  0.99510  Biso   1.000  O
  O111     1.0000 0.23820  0.21160  0.49510  Biso   1.000  O
  O112     1.0000 0.26180  0.71160  0.00490  Biso   1.000  O
  O113     1.0000 0.23800  0.80370  0.86800  Biso   1.000  O
  O114     1.0000 0.26200  0.30370  0.63200  Biso   1.000  O
  O115     1.0000 0.76200  0.19630  0.13200  Biso   1.000  O
  O116     1.0000 0.73800  0.69630  0.36800  Biso   1.000  O
  O117     1.0000 0.85440  0.77790  0.32870  Biso   1.000  O
  O118     1.0000 0.64560  0.27790  0.17130  Biso   1.000  O
  O119     1.0000 0.14560  0.22210  0.67130  Biso   1.000  O
  O120     1.0000 0.35440  0.72210  0.82870  Biso   1.000  O
  O121     1.0000 0.71660  0.83350  0.37030  Biso   1.000  O
  O122     1.0000 0.78340  0.33350  0.12970  Biso   1.000  O
  O123     1.0000 0.28340  0.16650  0.62970  Biso   1.000  O
  O124     1.0000 0.21660  0.66650  0.87030  Biso   1.000  O
  O125     1.0000 0.58400  0.92410  0.37350  Biso   1.000  O
  O126     1.0000 0.91600  0.42410  0.12650  Biso   1.000  O
  O127     1.0000 0.41600  0.07590  0.62650  Biso   1.000  O
  O128     1.0000 0.08400  0.57590  0.87350  Biso   1.000  O
  O129     1.0000 0.58560  0.78440  0.40990  Biso   1.000  O
  O130     1.0000 0.91440  0.28440  0.09010  Biso   1.000  O
  O131     1.0000 0.41440  0.21560  0.59010  Biso   1.000  O
  O132     1.0000 0.08560  0.71560  0.90990  Biso   1.000  O
  O133     1.0000 0.58700  0.50600  0.58260  Biso   1.000  O
  O134     1.0000 0.91300  0.00600  0.91740  Biso   1.000  O
  O135     1.0000 0.41300  0.49400  0.41740  Biso   1.000  O
  O136     1.0000 0.08700  0.99400  0.08260  Biso   1.000  O
  O137     1.0000 0.66240  0.53920  0.48160  Biso   1.000  O
  O138     1.0000 0.83760  0.03920  0.01840  Biso   1.000  O
  O139     1.0000 0.33760  0.46080  0.51840  Biso   1.000  O
  O140     1.0000 0.16240  0.96080  0.98160  Biso   1.000  O
  O141     1.0000 0.53280  0.62220  0.49180  Biso   1.000  O
  O142     1.0000 0.96720  0.12220  0.00820  Biso   1.000  O
  O143     1.0000 0.46720  0.37780  0.50820  Biso   1.000  O
  O144     1.0000 0.03280  0.87780  0.99180  Biso   1.000  O
  O145     1.0000 0.67810  0.68100  0.51010  Biso   1.000  O
  O146     1.0000 0.82190  0.18100  0.98990  Biso   1.000  O
  O147     1.0000 0.32190  0.31900  0.48990  Biso   1.000  O
  O148     1.0000 0.17810  0.81900  0.01010  Biso   1.000  O
  O149     1.0000 0.92690  0.78970  0.88610  Biso   1.000  O
  O150     1.0000 0.57310  0.28970  0.61390  Biso   1.000  O
  O151     1.0000 0.07310  0.21030  0.11390  Biso   1.000  O
  O152     1.0000 0.42690  0.71030  0.38610  Biso   1.000  O
  O153     1.0000 0.07370  0.84720  0.86860  Biso   1.000  O
  O154     1.0000 0.42630  0.34720  0.63140  Biso   1.000  O
  O155     1.0000 0.92630  0.15280  0.13140  Biso   1.000  O
  O156     1.0000 0.57370  0.65280  0.36860  Biso   1.000  O
  O157     1.0000 0.85880  0.45450  0.53370  Biso   1.000  O
  O158     1.0000 0.64120  0.95450  0.96630  Biso   1.000  O
  O159     1.0000 0.14120  0.54550  0.46630  Biso   1.000  O
  O160     1.0000 0.35880  0.04550  0.03370  Biso   1.000  O
  O161     1.0000 0.19720  0.88550  0.90600  Biso   1.000  O
  O162     1.0000 0.30280  0.38550  0.59400  Biso   1.000  O
  O163     1.0000 0.80280  0.11450  0.09400  Biso   1.000  O
  O164     1.0000 0.69720  0.61450  0.40600  Biso   1.000  O
  O165     1.0000 0.79330  0.87010  0.89590  Biso   1.000  O
  O166     1.0000 0.70670  0.37010  0.60410  Biso   1.000  O
  O167     1.0000 0.20670  0.12990  0.10410  Biso   1.000  O
  O168     1.0000 0.29330  0.62990  0.39590  Biso   1.000  O
  N1       1.0000 0.68600  0.42230  0.40720  Biso   1.000  N
  N2       1.0000 0.81400  0.92230  0.09280  Biso   1.000  N
  N3       1.0000 0.31400  0.57770  0.59280  Biso   1.000  N
  N4       1.0000 0.18600  0.07770  0.90720  Biso   1.000  N
  N5       1.0000 0.80770  0.48130  0.37200  Biso   1.000  N
  N6       1.0000 0.69230  0.98130  0.12800  Biso   1.000  N
  N7       1.0000 0.19230  0.51870  0.62800  Biso   1.000  N
  N8       1.0000 0.30770  0.01870  0.87200  Biso   1.000  N
  N9       1.0000 0.20460  0.89200  0.73730  Biso   1.000  N
  N10      1.0000 0.29540  0.39200  0.76270  Biso   1.000  N
  N11      1.0000 0.79540  0.10800  0.26270  Biso   1.000  N
  N12      1.0000 0.70460  0.60800  0.23730  Biso   1.000  N
  N13      1.0000 0.07740  0.94900  0.76690  Biso   1.000  N
  N14      1.0000 0.42260  0.44900  0.73310  Biso   1.000  N
  N15      1.0000 0.92260  0.05100  0.23310  Biso   1.000  N
  N16      1.0000 0.57740  0.55100  0.26690  Biso   1.000  N
  N17      1.0000 0.72270  0.74840  0.93880  Biso   1.000  N
  N18      1.0000 0.77730  0.24840  0.56120  Biso   1.000  N
  N19      1.0000 0.27730  0.25160  0.06120  Biso   1.000  N
  N20      1.0000 0.22270  0.75160  0.43880  Biso   1.000  N
  N21      1.0000 0.83260  0.67000  0.90660  Biso   1.000  N
  N22      1.0000 0.66740  0.17000  0.59340  Biso   1.000  N
  N23      1.0000 0.16740  0.33000  0.09340  Biso   1.000  N
  N24      1.0000 0.33260  0.83000  0.40660  Biso   1.000  N
  C1       1.0000 0.61880  0.39830  0.43010  Biso   1.000  C
  C2       1.0000 0.88120  0.89830  0.06990  Biso   1.000  C
  C3       1.0000 0.38120  0.60170  0.56990  Biso   1.000  C
  C4       1.0000 0.11880  0.10170  0.93010  Biso   1.000  C
  H1       1.0000 0.59730  0.42520  0.45990  Biso   1.000  H
  H2       1.0000 0.90270  0.92520  0.04010  Biso   1.000  H
  H3       1.0000 0.40270  0.57480  0.54010  Biso   1.000  H
  H4       1.0000 0.09730  0.07480  0.95990  Biso   1.000  H
  C5       1.0000 0.58450  0.33360  0.40770  Biso   1.000  C
  C6       1.0000 0.91550  0.83360  0.09230  Biso   1.000  C
  C7       1.0000 0.41550  0.66640  0.59230  Biso   1.000  C
  C8       1.0000 0.08450  0.16640  0.90770  Biso   1.000  C
  H5       1.0000 0.54180  0.31550  0.42460  Biso   1.000  H
  H6       1.0000 0.95820  0.81550  0.07540  Biso   1.000  H
  H7       1.0000 0.45820  0.68450  0.57540  Biso   1.000  H
  H8       1.0000 0.04180  0.18450  0.92460  Biso   1.000  H
  C9       1.0000 0.61450  0.29550  0.35920  Biso   1.000  C
  C10      1.0000 0.88550  0.79550  0.14080  Biso   1.000  C
  C11      1.0000 0.38550  0.70450  0.64080  Biso   1.000  C
  C12      1.0000 0.11450  0.20450  0.85920  Biso   1.000  C
  H9       1.0000 0.58880  0.25360  0.34110  Biso   1.000  H
  H10      1.0000 0.91120  0.75360  0.15890  Biso   1.000  H
  H11      1.0000 0.41120  0.74640  0.65890  Biso   1.000  H
  H12      1.0000 0.08880  0.24640  0.84110  Biso   1.000  H
  C13      1.0000 0.68150  0.32020  0.33870  Biso   1.000  C
  C14      1.0000 0.81850  0.82020  0.16130  Biso   1.000  C
  C15      1.0000 0.31850  0.67980  0.66130  Biso   1.000  C
  C16      1.0000 0.18150  0.17980  0.83870  Biso   1.000  C
  H13      1.0000 0.70460  0.29410  0.30950  Biso   1.000  H
  H14      1.0000 0.79540  0.79410  0.19050  Biso   1.000  H
  H15      1.0000 0.29540  0.70590  0.69050  Biso   1.000  H
  H16      1.0000 0.20460  0.20590  0.80950  Biso   1.000  H
  C17      1.0000 0.71460  0.38530  0.36240  Biso   1.000  C
  C18      1.0000 0.78540  0.88530  0.13760  Biso   1.000  C
  C19      1.0000 0.28540  0.61470  0.63760  Biso   1.000  C
  C20      1.0000 0.21460  0.11470  0.86240  Biso   1.000  C
  C21      1.0000 0.78510  0.41800  0.34200  Biso   1.000  C
  C22      1.0000 0.71490  0.91800  0.15800  Biso   1.000  C
  C23      1.0000 0.21490  0.58200  0.65800  Biso   1.000  C
  C24      1.0000 0.28510  0.08200  0.84200  Biso   1.000  C
  C25      1.0000 0.82500  0.38830  0.29600  Biso   1.000  C
  C26      1.0000 0.67500  0.88830  0.20400  Biso   1.000  C
  C27      1.0000 0.17500  0.61170  0.70400  Biso   1.000  C
  C28      1.0000 0.32500  0.11170  0.79600  Biso   1.000  C
  H17      1.0000 0.81010  0.34440  0.27720  Biso   1.000  H
  H18      1.0000 0.68990  0.84440  0.22280  Biso   1.000  H
  H19      1.0000 0.18990  0.65560  0.72280  Biso   1.000  H
  H20      1.0000 0.31010  0.15560  0.77720  Biso   1.000  H
  C29      1.0000 0.88720  0.42610  0.27900  Biso   1.000  C
  C30      1.0000 0.61280  0.92610  0.22100  Biso   1.000  C
  C31      1.0000 0.11280  0.57390  0.72100  Biso   1.000  C
  C32      1.0000 0.38720  0.07390  0.77900  Biso   1.000  C
  H21      1.0000 0.91500  0.40780  0.24840  Biso   1.000  H
  H22      1.0000 0.58500  0.90780  0.25160  Biso   1.000  H
  H23      1.0000 0.08500  0.59220  0.75160  Biso   1.000  H
  H24      1.0000 0.41500  0.09220  0.74840  Biso   1.000  H
  C33      1.0000 0.90820  0.49110  0.30730  Biso   1.000  C
  C34      1.0000 0.59180  0.99110  0.19270  Biso   1.000  C
  C35      1.0000 0.09180  0.50890  0.69270  Biso   1.000  C
  C36      1.0000 0.40820  0.00890  0.80730  Biso   1.000  C
  H25      1.0000 0.94860  0.51740  0.29440  Biso   1.000  H
  H26      1.0000 0.55140  0.01740  0.20560  Biso   1.000  H
  H27      1.0000 0.05140  0.48260  0.70560  Biso   1.000  H
  H28      1.0000 0.44860  0.98260  0.79440  Biso   1.000  H
  C37      1.0000 0.86950  0.51650  0.35450  Biso   1.000  C
  C38      1.0000 0.63050  0.01650  0.14550  Biso   1.000  C
  C39      1.0000 0.13050  0.48350  0.64550  Biso   1.000  C
  C40      1.0000 0.36950  0.98350  0.85450  Biso   1.000  C
  H29      1.0000 0.88620  0.55960  0.37520  Biso   1.000  H
  H30      1.0000 0.61380  0.05960  0.12480  Biso   1.000  H
  H31      1.0000 0.11380  0.44040  0.62480  Biso   1.000  H
  H32      1.0000 0.38620  0.94040  0.87520  Biso   1.000  H
  C41      1.0000 0.27060  0.85820  0.72430  Biso   1.000  C
  C42      1.0000 0.22940  0.35820  0.77570  Biso   1.000  C
  C43      1.0000 0.72940  0.14180  0.27570  Biso   1.000  C
  C44      1.0000 0.77060  0.64180  0.22430  Biso   1.000  C
  H33      1.0000 0.28990  0.81700  0.74870  Biso   1.000  H
  H34      1.0000 0.21010  0.31700  0.75130  Biso   1.000  H
  H35      1.0000 0.71010  0.18300  0.25130  Biso   1.000  H
  H36      1.0000 0.78990  0.68300  0.24870  Biso   1.000  H
  C45      1.0000 0.31100  0.88240  0.67590  Biso   1.000  C
  C46      1.0000 0.18900  0.38240  0.82410  Biso   1.000  C
  C47      1.0000 0.68900  0.11760  0.32410  Biso   1.000  C
  C48      1.0000 0.81100  0.61760  0.17590  Biso   1.000  C
  H37      1.0000 0.35820  0.85900  0.67010  Biso   1.000  H
  H38      1.0000 0.14180  0.35900  0.82990  Biso   1.000  H
  H39      1.0000 0.64180  0.14100  0.32990  Biso   1.000  H
  H40      1.0000 0.85820  0.64100  0.17010  Biso   1.000  H
  C49      1.0000 0.28020  0.94110  0.63710  Biso   1.000  C
  C50      1.0000 0.21980  0.44110  0.86290  Biso   1.000  C
  C51      1.0000 0.71980  0.05890  0.36290  Biso   1.000  C
  C52      1.0000 0.78020  0.55890  0.13710  Biso   1.000  C
  H41      1.0000 0.30450  0.95760  0.60320  Biso   1.000  H
  H42      1.0000 0.19550  0.45760  0.89680  Biso   1.000  H
  H43      1.0000 0.69550  0.04240  0.39680  Biso   1.000  H
  H44      1.0000 0.80450  0.54240  0.10320  Biso   1.000  H
  C53      1.0000 0.21220  0.97500  0.64950  Biso   1.000  C
  C54      1.0000 0.28780  0.47500  0.85050  Biso   1.000  C
  C55      1.0000 0.78780  0.02500  0.35050  Biso   1.000  C
  C56      1.0000 0.71220  0.52500  0.14950  Biso   1.000  C
  H45      1.0000 0.19110  0.01550  0.62420  Biso   1.000  H
  H46      1.0000 0.30890  0.51550  0.87580  Biso   1.000  H
  H47      1.0000 0.80890  0.98450  0.37580  Biso   1.000  H
  H48      1.0000 0.69110  0.48450  0.12420  Biso   1.000  H
  C57      1.0000 0.17460  0.95010  0.69900  Biso   1.000  C
  C58      1.0000 0.32540  0.45010  0.80100  Biso   1.000  C
  C59      1.0000 0.82540  0.04990  0.30100  Biso   1.000  C
  C60      1.0000 0.67460  0.54990  0.19900  Biso   1.000  C
  C61      1.0000 0.10280  0.98360  0.71700  Biso   1.000  C
  C62      1.0000 0.39720  0.48360  0.78300  Biso   1.000  C
  C63      1.0000 0.89720  0.01640  0.28300  Biso   1.000  C
  C64      1.0000 0.60280  0.51640  0.21700  Biso   1.000  C
  C65      1.0000 0.06490  0.04490  0.68810  Biso   1.000  C
  C66      1.0000 0.43510  0.54490  0.81190  Biso   1.000  C
  C67      1.0000 0.93510  0.95510  0.31190  Biso   1.000  C
  C68      1.0000 0.56490  0.45510  0.18810  Biso   1.000  C
  H49      1.0000 0.08430  0.06850  0.65470  Biso   1.000  H
  H50      1.0000 0.41570  0.56850  0.84530  Biso   1.000  H
  H51      1.0000 0.91570  0.93150  0.34530  Biso   1.000  H
  H52      1.0000 0.58430  0.43150  0.15470  Biso   1.000  H
  C69      1.0000 0.99840  0.07120  0.70880  Biso   1.000  C
  C70      1.0000 0.50160  0.57120  0.79120  Biso   1.000  C
  C71      1.0000 0.00160  0.92880  0.29120  Biso   1.000  C
  C72      1.0000 0.49840  0.42880  0.20880  Biso   1.000  C
  H53      1.0000 0.97180  0.11230  0.68900  Biso   1.000  H
  H54      1.0000 0.52820  0.61230  0.81100  Biso   1.000  H
  H55      1.0000 0.02820  0.88770  0.31100  Biso   1.000  H
  H56      1.0000 0.47180  0.38770  0.18900  Biso   1.000  H
  C73      1.0000 0.97110  0.03550  0.75990  Biso   1.000  C
  C74      1.0000 0.52890  0.53550  0.74010  Biso   1.000  C
  C75      1.0000 0.02890  0.96450  0.24010  Biso   1.000  C
  C76      1.0000 0.47110  0.46450  0.25990  Biso   1.000  C
  H57      1.0000 0.92560  0.05240  0.77390  Biso   1.000  H
  H58      1.0000 0.57440  0.55240  0.72610  Biso   1.000  H
  H59      1.0000 0.07440  0.94760  0.22610  Biso   1.000  H
  H60      1.0000 0.42560  0.44760  0.27390  Biso   1.000  H
  C77      1.0000 0.01130  0.97600  0.78880  Biso   1.000  C
  C78      1.0000 0.48870  0.47600  0.71120  Biso   1.000  C
  C79      1.0000 0.98870  0.02400  0.21120  Biso   1.000  C
  C80      1.0000 0.51130  0.52400  0.28880  Biso   1.000  C
  H61      1.0000 0.99420  0.95300  0.82380  Biso   1.000  H
  H62      1.0000 0.50580  0.45300  0.67620  Biso   1.000  H
  H63      1.0000 0.00580  0.04700  0.17620  Biso   1.000  H
  H64      1.0000 0.49420  0.54700  0.32380  Biso   1.000  H
  C81      1.0000 0.67370  0.79400  0.95890  Biso   1.000  C
  C82      1.0000 0.82630  0.29400  0.54110  Biso   1.000  C
  C83      1.0000 0.32630  0.20600  0.04110  Biso   1.000  C
  C84      1.0000 0.17370  0.70600  0.45890  Biso   1.000  C
  H65      1.0000 0.68090  0.84060  0.95200  Biso   1.000  H
  H66      1.0000 0.81910  0.34060  0.54800  Biso   1.000  H
  H67      1.0000 0.31910  0.15940  0.04800  Biso   1.000  H
  H68      1.0000 0.18090  0.65940  0.45200  Biso   1.000  H
  C85      1.0000 0.61260  0.77360  0.98990  Biso   1.000  C
  C86      1.0000 0.88740  0.27360  0.51010  Biso   1.000  C
  C87      1.0000 0.38740  0.22640  0.01010  Biso   1.000  C
  C88      1.0000 0.11260  0.72640  0.48990  Biso   1.000  C
  H69      1.0000 0.58230  0.80610  0.00700  Biso   1.000  H
  H70      1.0000 0.91770  0.30610  0.49300  Biso   1.000  H
  H71      1.0000 0.41770  0.19390  0.99300  Biso   1.000  H
  H72      1.0000 0.08230  0.69390  0.50700  Biso   1.000  H
  C89      1.0000 0.59650  0.70450  0.99540  Biso   1.000  C
  C90      1.0000 0.90350  0.20450  0.50460  Biso   1.000  C
  C91      1.0000 0.40350  0.29550  0.00460  Biso   1.000  C
  C92      1.0000 0.09650  0.79550  0.49540  Biso   1.000  C
  H73      1.0000 0.55190  0.69000  0.01210  Biso   1.000  H
  H74      1.0000 0.94810  0.19000  0.48790  Biso   1.000  H
  H75      1.0000 0.44810  0.31000  0.98790  Biso   1.000  H
  H76      1.0000 0.05190  0.81000  0.51210  Biso   1.000  H
  C93      1.0000 0.64790  0.65790  0.97570  Biso   1.000  C
  C94      1.0000 0.85210  0.15790  0.52430  Biso   1.000  C
  C95      1.0000 0.35210  0.34210  0.02430  Biso   1.000  C
  C96      1.0000 0.14790  0.84210  0.47570  Biso   1.000  C
  H77      1.0000 0.64030  0.61110  0.98070  Biso   1.000  H
  H78      1.0000 0.85970  0.11110  0.51930  Biso   1.000  H
  H79      1.0000 0.35970  0.38890  0.01930  Biso   1.000  H
  H80      1.0000 0.14030  0.88890  0.48070  Biso   1.000  H
  C97      1.0000 0.71120  0.68130  0.94840  Biso   1.000  C
  C98      1.0000 0.78880  0.18130  0.55160  Biso   1.000  C
  C99      1.0000 0.28880  0.31870  0.05160  Biso   1.000  C
  C100     1.0000 0.21120  0.81870  0.44840  Biso   1.000  C
  C101     1.0000 0.77450  0.63620  0.93070  Biso   1.000  C
  C102     1.0000 0.72550  0.13620  0.56930  Biso   1.000  C
  C103     1.0000 0.22550  0.36380  0.06930  Biso   1.000  C
  C104     1.0000 0.27450  0.86380  0.43070  Biso   1.000  C
  C105     1.0000 0.77580  0.56650  0.93770  Biso   1.000  C
  C106     1.0000 0.72420  0.06650  0.56230  Biso   1.000  C
  C107     1.0000 0.22420  0.43350  0.06230  Biso   1.000  C
  C108     1.0000 0.27580  0.93350  0.43770  Biso   1.000  C
  H81      1.0000 0.73480  0.54410  0.95340  Biso   1.000  H
  H82      1.0000 0.76520  0.04410  0.54660  Biso   1.000  H
  H83      1.0000 0.26520  0.45590  0.04660  Biso   1.000  H
  H84      1.0000 0.23480  0.95590  0.45340  Biso   1.000  H
  C109     1.0000 0.83960  0.52990  0.92080  Biso   1.000  C
  C110     1.0000 0.66040  0.02990  0.57920  Biso   1.000  C
  C111     1.0000 0.16040  0.47010  0.07920  Biso   1.000  C
  C112     1.0000 0.33960  0.97010  0.42080  Biso   1.000  C
  H85      1.0000 0.84080  0.48230  0.92440  Biso   1.000  H
  H86      1.0000 0.65920  0.98230  0.57560  Biso   1.000  H
  H87      1.0000 0.15920  0.51770  0.07560  Biso   1.000  H
  H88      1.0000 0.34080  0.01770  0.42440  Biso   1.000  H
  C113     1.0000 0.90050  0.56280  0.89920  Biso   1.000  C
  C114     1.0000 0.59950  0.06280  0.60080  Biso   1.000  C
  C115     1.0000 0.09950  0.43720  0.10080  Biso   1.000  C
  C116     1.0000 0.40050  0.93720  0.39920  Biso   1.000  C
  H89      1.0000 0.94560  0.53860  0.89090  Biso   1.000  H
  H90      1.0000 0.55440  0.03860  0.60910  Biso   1.000  H
  H91      1.0000 0.05440  0.46140  0.10910  Biso   1.000  H
  H92      1.0000 0.44560  0.96140  0.39090  Biso   1.000  H
  C117     1.0000 0.89370  0.63360  0.88980  Biso   1.000  C
  C118     1.0000 0.60630  0.13360  0.61020  Biso   1.000  C
  C119     1.0000 0.10630  0.36640  0.11020  Biso   1.000  C
  C120     1.0000 0.39370  0.86640  0.38980  Biso   1.000  C
  H93      1.0000 0.93230  0.65620  0.87140  Biso   1.000  H
  H94      1.0000 0.56770  0.15620  0.62860  Biso   1.000  H
  H95      1.0000 0.06770  0.34380  0.12860  Biso   1.000  H
  H96      1.0000 0.43230  0.84380  0.37140  Biso   1.000  H
  O169     1.0000 0.13000  0.60210  0.30310  Biso   1.000  O
  O170     1.0000 0.37000  0.10210  0.19690  Biso   1.000  O
  O171     1.0000 0.87000  0.39790  0.69690  Biso   1.000  O
  O172     1.0000 0.63000  0.89790  0.80310  Biso   1.000  O
  O173     1.0000 0.49890  0.20610  0.20650  Biso   1.000  O
  O174     1.0000 0.00110  0.70610  0.29350  Biso   1.000  O
  O175     1.0000 0.50110  0.79390  0.79350  Biso   1.000  O
  O176     1.0000 0.99890  0.29390  0.70650  Biso   1.000  O
