data_image0
_cell_length_a       7.952
_cell_length_b       15.61
_cell_length_c       9.951
_cell_angle_alpha    90
_cell_angle_beta     101.35
_cell_angle_gamma    90

_symmetry_space_group_name_H-M    "P 1"
_symmetry_int_tables_number       1

loop_
  _symmetry_equiv_pos_as_xyz
  'x, y, z'

loop_
  _atom_site_label
  _atom_site_occupancy
  _atom_site_fract_x
  _atom_site_fract_y
  _atom_site_fract_z
  _atom_site_thermal_displace_type
  _atom_site_B_iso_or_equiv
  _atom_site_type_symbol
  Cu1      1.0000 0.66776  0.19190  0.42970  Biso   1.000  Cu
  Cu2      1.0000 0.33224  0.69190  0.07030  Biso   1.000  Cu
  Cu3      1.0000 0.33224  0.80810  0.57030  Biso   1.000  Cu
  Cu4      1.0000 0.66776  0.30810  0.92970  Biso   1.000  Cu
  O1       1.0000 0.68190  0.23690  0.24560  Biso   1.000  O
  O2       1.0000 0.31810  0.73690  0.25440  Biso   1.000  O
  O3       1.0000 0.31810  0.76310  0.75440  Biso   1.000  O
  O4       1.0000 0.68190  0.26310  0.74560  Biso   1.000  O
  O5       1.0000 0.63910  0.35140  0.11100  Biso   1.000  O
  O6       1.0000 0.36090  0.85140  0.38900  Biso   1.000  O
  O7       1.0000 0.36090  0.64860  0.88900  Biso   1.000  O
  O8       1.0000 0.63910  0.14860  0.61100  Biso   1.000  O
  O9       1.0000 0.37380  0.14390  0.34960  Biso   1.000  O
  O10      1.0000 0.62620  0.64390  0.15040  Biso   1.000  O
  O11      1.0000 0.62620  0.85610  0.65040  Biso   1.000  O
  O12      1.0000 0.37380  0.35610  0.84960  Biso   1.000  O
  N1       1.0000 0.77040  0.08360  0.38570  Biso   1.000  N
  N2       1.0000 0.22960  0.58360  0.11430  Biso   1.000  N
  N3       1.0000 0.22960  0.91640  0.61430  Biso   1.000  N
  N4       1.0000 0.77040  0.41640  0.88570  Biso   1.000  N
  N5       1.0000 0.84530  0.95020  0.37830  Biso   1.000  N
  N6       1.0000 0.15470  0.45020  0.12170  Biso   1.000  N
  N7       1.0000 0.15470  0.04980  0.62170  Biso   1.000  N
  N8       1.0000 0.84530  0.54980  0.87830  Biso   1.000  N
  H1       1.0000 0.85410  0.89650  0.39760  Biso   1.000  H
  H2       1.0000 0.14590  0.39650  0.10240  Biso   1.000  H
  H3       1.0000 0.14590  0.10350  0.60240  Biso   1.000  H
  H4       1.0000 0.85410  0.60350  0.89760  Biso   1.000  H
  N9       1.0000 0.60790  0.31320  0.46330  Biso   1.000  N
  N10      1.0000 0.39210  0.81320  0.03670  Biso   1.000  N
  N11      1.0000 0.39210  0.68680  0.53670  Biso   1.000  N
  N12      1.0000 0.60790  0.18680  0.96330  Biso   1.000  N
  H5       1.0000 0.68600  0.35950  0.52460  Biso   1.000  H
  H6       1.0000 0.31400  0.85950  0.97540  Biso   1.000  H
  H7       1.0000 0.31400  0.64050  0.47540  Biso   1.000  H
  H8       1.0000 0.68600  0.14050  0.02460  Biso   1.000  H
  H9       1.0000 0.50800  0.33550  0.51160  Biso   1.000  H
  H10      1.0000 0.49200  0.83550  0.98840  Biso   1.000  H
  H11      1.0000 0.49200  0.66450  0.48840  Biso   1.000  H
  H12      1.0000 0.50800  0.16450  0.01160  Biso   1.000  H
  C1       1.0000 0.87350  0.07430  0.29110  Biso   1.000  C
  C2       1.0000 0.12650  0.57430  0.20890  Biso   1.000  C
  C3       1.0000 0.12650  0.92570  0.70890  Biso   1.000  C
  C4       1.0000 0.87350  0.42570  0.79110  Biso   1.000  C
  H13      1.0000 0.90810  0.11820  0.23940  Biso   1.000  H
  H14      1.0000 0.09190  0.61820  0.26060  Biso   1.000  H
  H15      1.0000 0.09190  0.88180  0.76060  Biso   1.000  H
  H16      1.0000 0.90810  0.38180  0.73940  Biso   1.000  H
  C5       1.0000 0.91730  0.98890  0.28540  Biso   1.000  C
  C6       1.0000 0.08270  0.48890  0.21460  Biso   1.000  C
  C7       1.0000 0.08270  0.01110  0.71460  Biso   1.000  C
  C8       1.0000 0.91730  0.51110  0.78540  Biso   1.000  C
  H17      1.0000 0.98330  0.96390  0.22850  Biso   1.000  H
  H18      1.0000 0.01670  0.46390  0.27150  Biso   1.000  H
  H19      1.0000 0.01670  0.03610  0.77150  Biso   1.000  H
  H20      1.0000 0.98330  0.53610  0.72850  Biso   1.000  H
  C9       1.0000 0.75630  0.00720  0.43790  Biso   1.000  C
  C10      1.0000 0.24370  0.50720  0.06210  Biso   1.000  C
  C11      1.0000 0.24370  0.99280  0.56210  Biso   1.000  C
  C12      1.0000 0.75630  0.49280  0.93790  Biso   1.000  C
  H21      1.0000 0.69440  0.99450  0.50550  Biso   1.000  H
  H22      1.0000 0.30560  0.49450  0.99450  Biso   1.000  H
  H23      1.0000 0.30560  0.00550  0.49450  Biso   1.000  H
  H24      1.0000 0.69440  0.50550  0.00550  Biso   1.000  H
  C13      1.0000 0.64040  0.31290  0.22150  Biso   1.000  C
  C14      1.0000 0.35960  0.81290  0.27850  Biso   1.000  C
  C15      1.0000 0.35960  0.68710  0.77850  Biso   1.000  C
  C16      1.0000 0.64040  0.18710  0.72150  Biso   1.000  C
  C17      1.0000 0.56370  0.36240  0.33060  Biso   1.000  C
  C18      1.0000 0.43630  0.86240  0.16940  Biso   1.000  C
  C19      1.0000 0.43630  0.63760  0.66940  Biso   1.000  C
  C20      1.0000 0.56370  0.13760  0.83060  Biso   1.000  C
  H25      1.0000 0.43870  0.36000  0.30130  Biso   1.000  H
  H26      1.0000 0.56130  0.86000  0.19870  Biso   1.000  H
  H27      1.0000 0.56130  0.64000  0.69870  Biso   1.000  H
  H28      1.0000 0.43870  0.14000  0.80130  Biso   1.000  H
  C21      1.0000 0.61060  0.45310  0.34430  Biso   1.000  C
  C22      1.0000 0.38940  0.95310  0.15570  Biso   1.000  C
  C23      1.0000 0.38940  0.54690  0.65570  Biso   1.000  C
  C24      1.0000 0.61060  0.04690  0.84430  Biso   1.000  C
  H29      1.0000 0.55960  0.47870  0.41440  Biso   1.000  H
  H30      1.0000 0.44040  0.97870  0.08560  Biso   1.000  H
  H31      1.0000 0.44040  0.52130  0.58560  Biso   1.000  H
  H32      1.0000 0.55960  0.02130  0.91440  Biso   1.000  H
  H33      1.0000 0.57000  0.48180  0.25870  Biso   1.000  H
  H34      1.0000 0.43000  0.98180  0.24130  Biso   1.000  H
  H35      1.0000 0.43000  0.51820  0.74130  Biso   1.000  H
  H36      1.0000 0.57000  0.01820  0.75870  Biso   1.000  H
  H37      1.0000 0.73310  0.45840  0.36880  Biso   1.000  H
  H38      1.0000 0.26690  0.95840  0.13120  Biso   1.000  H
  H39      1.0000 0.26690  0.54160  0.63120  Biso   1.000  H
  H40      1.0000 0.73310  0.04160  0.86880  Biso   1.000  H
  Cl1      1.0000 0.11829  0.30072  0.49474  Biso   1.000  Cl
  Cl2      1.0000 0.88171  0.80072  0.00526  Biso   1.000  Cl
  Cl3      1.0000 0.88171  0.69928  0.50526  Biso   1.000  Cl
  Cl4      1.0000 0.11829  0.19928  0.99474  Biso   1.000  Cl
  O13      1.0000 0.12890  0.29810  0.35330  Biso   1.000  O
  O14      1.0000 0.87110  0.79810  0.14670  Biso   1.000  O
  O15      1.0000 0.87110  0.70190  0.64670  Biso   1.000  O
  O16      1.0000 0.12890  0.20190  0.85330  Biso   1.000  O
  O17      1.0000 0.28070  0.30990  0.57470  Biso   1.000  O
  O18      1.0000 0.71930  0.80990  0.92530  Biso   1.000  O
  O19      1.0000 0.71930  0.69010  0.42530  Biso   1.000  O
  O20      1.0000 0.28070  0.19010  0.07470  Biso   1.000  O
  O21      1.0000 0.24790  0.23510  0.55950  Biso   1.000  O
  O22      1.0000 0.75210  0.73510  0.94050  Biso   1.000  O
  O23      1.0000 0.75210  0.76490  0.44050  Biso   1.000  O
  O24      1.0000 0.24790  0.26490  0.05950  Biso   1.000  O
  O25      1.0000 0.03310  0.22640  0.52720  Biso   1.000  O
  O26      1.0000 0.96690  0.72640  0.97280  Biso   1.000  O
  O27      1.0000 0.96690  0.77360  0.47280  Biso   1.000  O
  O28      1.0000 0.03310  0.27360  0.02720  Biso   1.000  O
  O29      1.0000 0.96590  0.27180  0.52900  Biso   1.000  O
  O30      1.0000 0.03410  0.77180  0.97100  Biso   1.000  O
  O31      1.0000 0.03410  0.72820  0.47100  Biso   1.000  O
  O32      1.0000 0.96590  0.22820  0.02900  Biso   1.000  O
  O33      1.0000 0.01340  0.37350  0.50810  Biso   1.000  O
  O34      1.0000 0.98660  0.87350  0.99190  Biso   1.000  O
  O35      1.0000 0.98660  0.62650  0.49190  Biso   1.000  O
  O36      1.0000 0.01340  0.12650  0.00810  Biso   1.000  O
  O37      1.0000 0.17600  0.37850  0.55640  Biso   1.000  O
  O38      1.0000 0.82400  0.87850  0.94360  Biso   1.000  O
  O39      1.0000 0.82400  0.62150  0.44360  Biso   1.000  O
  O40      1.0000 0.17600  0.12150  0.05640  Biso   1.000  O
