data_image0
_cell_length_a       7.392
_cell_length_b       17.837
_cell_length_c       9.087
_cell_angle_alpha    90
_cell_angle_beta     108.75
_cell_angle_gamma    90

_symmetry_space_group_name_H-M    "P 1"
_symmetry_int_tables_number       1

loop_
  _symmetry_equiv_pos_as_xyz
  'x, y, z'

loop_
  _atom_site_label
  _atom_site_occupancy
  _atom_site_fract_x
  _atom_site_fract_y
  _atom_site_fract_z
  _atom_site_thermal_displace_type
  _atom_site_B_iso_or_equiv
  _atom_site_type_symbol
  Cu1      1.0000 0.70417  0.20806  0.09405  Biso   1.000  Cu
  Cu2      1.0000 0.79583  0.70806  0.40595  Biso   1.000  Cu
  Cu3      1.0000 0.29583  0.79194  0.90595  Biso   1.000  Cu
  Cu4      1.0000 0.20417  0.29194  0.59405  Biso   1.000  Cu
  O1       1.0000 0.50090  0.24681  0.91430  Biso   1.000  O
  O2       1.0000 0.99910  0.74681  0.58570  Biso   1.000  O
  O3       1.0000 0.49910  0.75319  0.08570  Biso   1.000  O
  O4       1.0000 0.00090  0.25319  0.41430  Biso   1.000  O
  O5       1.0000 0.42760  0.33966  0.74180  Biso   1.000  O
  O6       1.0000 0.07240  0.83966  0.75820  Biso   1.000  O
  O7       1.0000 0.57240  0.66034  0.25820  Biso   1.000  O
  O8       1.0000 0.92760  0.16034  0.24180  Biso   1.000  O
  N1       1.0000 0.54180  0.12359  0.11080  Biso   1.000  N
  N2       1.0000 0.95820  0.62359  0.38920  Biso   1.000  N
  N3       1.0000 0.45820  0.87641  0.88920  Biso   1.000  N
  N4       1.0000 0.04180  0.37641  0.61080  Biso   1.000  N
  N5       1.0000 0.35450  0.12232  0.03490  Biso   1.000  N
  N6       1.0000 0.14550  0.62232  0.46510  Biso   1.000  N
  N7       1.0000 0.64550  0.87768  0.96510  Biso   1.000  N
  N8       1.0000 0.85450  0.37768  0.53490  Biso   1.000  N
  H1       1.0000 0.29320  0.15720  0.97360  Biso   1.000  H
  H2       1.0000 0.20680  0.65720  0.52640  Biso   1.000  H
  H3       1.0000 0.70680  0.84280  0.02640  Biso   1.000  H
  H4       1.0000 0.79320  0.34280  0.47360  Biso   1.000  H
  N9       1.0000 0.83230  0.30385  0.07920  Biso   1.000  N
  N10      1.0000 0.66770  0.80385  0.42080  Biso   1.000  N
  N11      1.0000 0.16770  0.69615  0.92080  Biso   1.000  N
  N12      1.0000 0.33230  0.19615  0.57920  Biso   1.000  N
  H5       1.0000 0.83960  0.33220  0.16280  Biso   1.000  H
  H6       1.0000 0.66040  0.83220  0.33720  Biso   1.000  H
  H7       1.0000 0.16040  0.66780  0.83720  Biso   1.000  H
  H8       1.0000 0.33960  0.16780  0.66280  Biso   1.000  H
  H9       1.0000 0.95230  0.29430  0.08020  Biso   1.000  H
  H10      1.0000 0.54770  0.79430  0.41980  Biso   1.000  H
  H11      1.0000 0.04770  0.70570  0.91980  Biso   1.000  H
  H12      1.0000 0.45230  0.20570  0.58020  Biso   1.000  H
  C1       1.0000 0.27390  0.05950  0.06670  Biso   1.000  C
  C2       1.0000 0.22610  0.55950  0.43330  Biso   1.000  C
  C3       1.0000 0.72610  0.94050  0.93330  Biso   1.000  C
  C4       1.0000 0.77390  0.44050  0.56670  Biso   1.000  C
  H13      1.0000 0.14550  0.04650  0.02670  Biso   1.000  H
  H14      1.0000 0.35450  0.54650  0.47330  Biso   1.000  H
  H15      1.0000 0.85450  0.95350  0.97330  Biso   1.000  H
  H16      1.0000 0.64550  0.45350  0.52670  Biso   1.000  H
  C5       1.0000 0.41020  0.01960  0.16490  Biso   1.000  C
  C6       1.0000 0.08980  0.51960  0.33510  Biso   1.000  C
  C7       1.0000 0.58980  0.98040  0.83510  Biso   1.000  C
  C8       1.0000 0.91020  0.48040  0.66490  Biso   1.000  C
  H17      1.0000 0.39740  0.97270  0.20550  Biso   1.000  H
  H18      1.0000 0.10260  0.47270  0.29450  Biso   1.000  H
  H19      1.0000 0.60260  0.02730  0.79450  Biso   1.000  H
  H20      1.0000 0.89740  0.52730  0.70550  Biso   1.000  H
  C9       1.0000 0.57740  0.06160  0.19590  Biso   1.000  C
  C10      1.0000 0.92260  0.56160  0.30410  Biso   1.000  C
  C11      1.0000 0.42260  0.93840  0.80410  Biso   1.000  C
  C12      1.0000 0.07740  0.43840  0.69590  Biso   1.000  C
  H21      1.0000 0.69560  0.04820  0.26540  Biso   1.000  H
  H22      1.0000 0.80440  0.54820  0.23460  Biso   1.000  H
  H23      1.0000 0.30440  0.95180  0.73460  Biso   1.000  H
  H24      1.0000 0.19560  0.45180  0.76540  Biso   1.000  H
  C13      1.0000 0.53660  0.30771  0.86200  Biso   1.000  C
  C14      1.0000 0.96340  0.80771  0.63800  Biso   1.000  C
  C15      1.0000 0.46340  0.69229  0.13800  Biso   1.000  C
  C16      1.0000 0.03660  0.19229  0.36200  Biso   1.000  C
  C17      1.0000 0.73040  0.34625  0.93650  Biso   1.000  C
  C18      1.0000 0.76960  0.84625  0.56350  Biso   1.000  C
  C19      1.0000 0.26960  0.65375  0.06350  Biso   1.000  C
  C20      1.0000 0.23040  0.15375  0.43650  Biso   1.000  C
  H25      1.0000 0.80410  0.34250  0.86430  Biso   1.000  H
  H26      1.0000 0.69590  0.84250  0.63570  Biso   1.000  H
  H27      1.0000 0.19590  0.65750  0.13570  Biso   1.000  H
  H28      1.0000 0.30410  0.15750  0.36430  Biso   1.000  H
  C21      1.0000 0.70900  0.42860  0.96980  Biso   1.000  C
  C22      1.0000 0.79100  0.92860  0.53020  Biso   1.000  C
  C23      1.0000 0.29100  0.57140  0.03020  Biso   1.000  C
  C24      1.0000 0.20900  0.07140  0.46980  Biso   1.000  C
  H29      1.0000 0.62740  0.43350  0.03280  Biso   1.000  H
  H30      1.0000 0.87260  0.93350  0.46720  Biso   1.000  H
  H31      1.0000 0.37260  0.56650  0.96720  Biso   1.000  H
  H32      1.0000 0.12740  0.06650  0.53280  Biso   1.000  H
  H33      1.0000 0.65390  0.45500  0.87360  Biso   1.000  H
  H34      1.0000 0.84610  0.95500  0.62640  Biso   1.000  H
  H35      1.0000 0.34610  0.54500  0.12640  Biso   1.000  H
  H36      1.0000 0.15390  0.04500  0.37360  Biso   1.000  H
  H37      1.0000 0.83230  0.44940  0.02400  Biso   1.000  H
  H38      1.0000 0.66770  0.94940  0.47600  Biso   1.000  H
  H39      1.0000 0.16770  0.55060  0.97600  Biso   1.000  H
  H40      1.0000 0.33230  0.05060  0.52400  Biso   1.000  H
  Cl1      1.0000 0.38033  0.33158  0.24155  Biso   1.000  Cl
  Cl2      1.0000 0.11967  0.83158  0.25845  Biso   1.000  Cl
  Cl3      1.0000 0.61967  0.66842  0.75845  Biso   1.000  Cl
  Cl4      1.0000 0.88033  0.16842  0.74155  Biso   1.000  Cl
  O9       1.0000 0.56020  0.29490  0.27490  Biso   1.000  O
  O10      1.0000 0.93980  0.79490  0.22510  Biso   1.000  O
  O11      1.0000 0.43980  0.70510  0.72510  Biso   1.000  O
  O12      1.0000 0.06020  0.20510  0.77490  Biso   1.000  O
  O13      1.0000 0.25150  0.27180  0.16520  Biso   1.000  O
  O14      1.0000 0.24850  0.77180  0.33480  Biso   1.000  O
  O15      1.0000 0.74850  0.72820  0.83480  Biso   1.000  O
  O16      1.0000 0.75150  0.22820  0.66520  Biso   1.000  O
  O17      1.0000 0.34220  0.35439  0.37960  Biso   1.000  O
  O18      1.0000 0.15780  0.85439  0.12040  Biso   1.000  O
  O19      1.0000 0.65780  0.64561  0.62040  Biso   1.000  O
  O20      1.0000 0.84220  0.14561  0.87960  Biso   1.000  O
  O21      1.0000 0.37630  0.39200  0.14620  Biso   1.000  O
  O22      1.0000 0.12370  0.89200  0.35380  Biso   1.000  O
  O23      1.0000 0.62370  0.60800  0.85380  Biso   1.000  O
  O24      1.0000 0.87630  0.10800  0.64620  Biso   1.000  O
