data_image0
_cell_length_a       30.591
_cell_length_b       11.433
_cell_length_c       9.879
_cell_angle_alpha    90
_cell_angle_beta     90
_cell_angle_gamma    90

_symmetry_space_group_name_H-M    "P 1"
_symmetry_int_tables_number       1

loop_
  _symmetry_equiv_pos_as_xyz
  'x, y, z'

loop_
  _atom_site_label
  _atom_site_occupancy
  _atom_site_fract_x
  _atom_site_fract_y
  _atom_site_fract_z
  _atom_site_thermal_displace_type
  _atom_site_B_iso_or_equiv
  _atom_site_type_symbol
  Cu1      1.0000 0.11070  0.16554  0.94543  Biso   1.000  Cu
  Cu2      1.0000 0.38930  0.33446  0.94543  Biso   1.000  Cu
  Cu3      1.0000 0.61070  0.83446  0.55457  Biso   1.000  Cu
  Cu4      1.0000 0.88930  0.66554  0.55457  Biso   1.000  Cu
  Cu5      1.0000 0.88930  0.83446  0.05457  Biso   1.000  Cu
  Cu6      1.0000 0.61070  0.66554  0.05457  Biso   1.000  Cu
  Cu7      1.0000 0.38930  0.16554  0.44543  Biso   1.000  Cu
  Cu8      1.0000 0.11070  0.33446  0.44543  Biso   1.000  Cu
  O1       1.0000 0.17718  0.07270  0.98000  Biso   1.000  O
  O2       1.0000 0.32282  0.42730  0.98000  Biso   1.000  O
  O3       1.0000 0.67718  0.92730  0.52000  Biso   1.000  O
  O4       1.0000 0.82282  0.57270  0.52000  Biso   1.000  O
  O5       1.0000 0.82282  0.92730  0.02000  Biso   1.000  O
  O6       1.0000 0.67718  0.57270  0.02000  Biso   1.000  O
  O7       1.0000 0.32282  0.07270  0.48000  Biso   1.000  O
  O8       1.0000 0.17718  0.42730  0.48000  Biso   1.000  O
  O9       1.0000 0.11669  0.38800  0.25420  Biso   1.000  O
  O10      1.0000 0.38331  0.11200  0.25420  Biso   1.000  O
  O11      1.0000 0.61669  0.61200  0.24580  Biso   1.000  O
  O12      1.0000 0.88331  0.88800  0.24580  Biso   1.000  O
  O13      1.0000 0.88331  0.61200  0.74580  Biso   1.000  O
  O14      1.0000 0.61669  0.88800  0.74580  Biso   1.000  O
  O15      1.0000 0.38331  0.38800  0.75420  Biso   1.000  O
  O16      1.0000 0.11669  0.11200  0.75420  Biso   1.000  O
  O17      1.0000 0.10501  0.22740  0.13150  Biso   1.000  O
  O18      1.0000 0.39499  0.27260  0.13150  Biso   1.000  O
  O19      1.0000 0.60501  0.77260  0.36850  Biso   1.000  O
  O20      1.0000 0.89499  0.72740  0.36850  Biso   1.000  O
  O21      1.0000 0.89499  0.77260  0.86850  Biso   1.000  O
  O22      1.0000 0.60501  0.72740  0.86850  Biso   1.000  O
  O23      1.0000 0.39499  0.22740  0.63150  Biso   1.000  O
  O24      1.0000 0.10501  0.27260  0.63150  Biso   1.000  O
  N1       1.0000 0.07709  0.02660  0.98650  Biso   1.000  N
  N2       1.0000 0.42291  0.47340  0.98650  Biso   1.000  N
  N3       1.0000 0.57709  0.97340  0.51350  Biso   1.000  N
  N4       1.0000 0.92291  0.52660  0.51350  Biso   1.000  N
  N5       1.0000 0.92291  0.97340  0.01350  Biso   1.000  N
  N6       1.0000 0.57709  0.52660  0.01350  Biso   1.000  N
  N7       1.0000 0.42291  0.02660  0.48650  Biso   1.000  N
  N8       1.0000 0.07709  0.47340  0.48650  Biso   1.000  N
  N9       1.0000 0.04290  0.85710  0.96880  Biso   1.000  N
  N10      1.0000 0.45710  0.64290  0.96880  Biso   1.000  N
  N11      1.0000 0.54290  0.14290  0.53120  Biso   1.000  N
  N12      1.0000 0.95710  0.35710  0.53120  Biso   1.000  N
  N13      1.0000 0.95710  0.14290  0.03120  Biso   1.000  N
  N14      1.0000 0.54290  0.35710  0.03120  Biso   1.000  N
  N15      1.0000 0.45710  0.85710  0.46880  Biso   1.000  N
  N16      1.0000 0.04290  0.64290  0.46880  Biso   1.000  N
  N17      1.0000 0.13790  0.32770  0.90010  Biso   1.000  N
  N18      1.0000 0.36210  0.17230  0.90010  Biso   1.000  N
  N19      1.0000 0.63790  0.67230  0.59990  Biso   1.000  N
  N20      1.0000 0.86210  0.82770  0.59990  Biso   1.000  N
  N21      1.0000 0.86210  0.67230  0.09990  Biso   1.000  N
  N22      1.0000 0.63790  0.82770  0.09990  Biso   1.000  N
  N23      1.0000 0.36210  0.32770  0.40010  Biso   1.000  N
  N24      1.0000 0.13790  0.17230  0.40010  Biso   1.000  N
  H1       1.0000 0.12670  0.38100  0.82430  Biso   1.000  H
  H2       1.0000 0.37330  0.11900  0.82430  Biso   1.000  H
  H3       1.0000 0.62670  0.61900  0.67570  Biso   1.000  H
  H4       1.0000 0.87330  0.88100  0.67570  Biso   1.000  H
  H5       1.0000 0.87330  0.61900  0.17570  Biso   1.000  H
  H6       1.0000 0.62670  0.88100  0.17570  Biso   1.000  H
  H7       1.0000 0.37330  0.38100  0.32430  Biso   1.000  H
  H8       1.0000 0.12670  0.11900  0.32430  Biso   1.000  H
  H9       1.0000 0.16890  0.33940  0.86550  Biso   1.000  H
  H10      1.0000 0.33110  0.16060  0.86550  Biso   1.000  H
  H11      1.0000 0.66890  0.66060  0.63450  Biso   1.000  H
  H12      1.0000 0.83110  0.83940  0.63450  Biso   1.000  H
  H13      1.0000 0.83110  0.66060  0.13450  Biso   1.000  H
  H14      1.0000 0.66890  0.83940  0.13450  Biso   1.000  H
  H15      1.0000 0.33110  0.33940  0.36550  Biso   1.000  H
  H16      1.0000 0.16890  0.16060  0.36550  Biso   1.000  H
  C1       1.0000 0.07070  0.93170  0.90780  Biso   1.000  C
  C2       1.0000 0.42930  0.56830  0.90780  Biso   1.000  C
  C3       1.0000 0.57070  0.06830  0.59220  Biso   1.000  C
  C4       1.0000 0.92930  0.43170  0.59220  Biso   1.000  C
  C5       1.0000 0.92930  0.06830  0.09220  Biso   1.000  C
  C6       1.0000 0.57070  0.43170  0.09220  Biso   1.000  C
  C7       1.0000 0.42930  0.93170  0.40780  Biso   1.000  C
  C8       1.0000 0.07070  0.56830  0.40780  Biso   1.000  C
  H17      1.0000 0.08360  0.91960  0.82370  Biso   1.000  H
  H18      1.0000 0.41640  0.58040  0.82370  Biso   1.000  H
  H19      1.0000 0.58360  0.08040  0.67630  Biso   1.000  H
  H20      1.0000 0.91640  0.41960  0.67630  Biso   1.000  H
  H21      1.0000 0.91640  0.08040  0.17630  Biso   1.000  H
  H22      1.0000 0.58360  0.41960  0.17630  Biso   1.000  H
  H23      1.0000 0.41640  0.91960  0.32370  Biso   1.000  H
  H24      1.0000 0.08360  0.58040  0.32370  Biso   1.000  H
  C9       1.0000 0.03470  0.90310  0.09100  Biso   1.000  C
  C10      1.0000 0.46530  0.59690  0.09100  Biso   1.000  C
  C11      1.0000 0.53470  0.09690  0.40900  Biso   1.000  C
  C12      1.0000 0.96530  0.40310  0.40900  Biso   1.000  C
  C13      1.0000 0.96530  0.09690  0.90900  Biso   1.000  C
  C14      1.0000 0.53470  0.40310  0.90900  Biso   1.000  C
  C15      1.0000 0.46530  0.90310  0.59100  Biso   1.000  C
  C16      1.0000 0.03470  0.59690  0.59100  Biso   1.000  C
  H25      1.0000 0.01840  0.86950  0.16040  Biso   1.000  H
  H26      1.0000 0.48160  0.63050  0.16040  Biso   1.000  H
  H27      1.0000 0.51840  0.13050  0.33960  Biso   1.000  H
  H28      1.0000 0.98160  0.36950  0.33960  Biso   1.000  H
  H29      1.0000 0.98160  0.13050  0.83960  Biso   1.000  H
  H30      1.0000 0.51840  0.36950  0.83960  Biso   1.000  H
  H31      1.0000 0.48160  0.86950  0.66040  Biso   1.000  H
  H32      1.0000 0.01840  0.63050  0.66040  Biso   1.000  H
  C17      1.0000 0.05340  0.00110  0.09260  Biso   1.000  C
  C18      1.0000 0.44660  0.49890  0.09260  Biso   1.000  C
  C19      1.0000 0.55340  0.99890  0.40740  Biso   1.000  C
  C20      1.0000 0.94660  0.50110  0.40740  Biso   1.000  C
  C21      1.0000 0.94660  0.99890  0.90740  Biso   1.000  C
  C22      1.0000 0.55340  0.50110  0.90740  Biso   1.000  C
  C23      1.0000 0.44660  0.00110  0.59260  Biso   1.000  C
  C24      1.0000 0.05340  0.49890  0.59260  Biso   1.000  C
  H33      1.0000 0.05060  0.05240  0.16520  Biso   1.000  H
  H34      1.0000 0.44940  0.44760  0.16520  Biso   1.000  H
  H35      1.0000 0.55060  0.94760  0.33480  Biso   1.000  H
  H36      1.0000 0.94940  0.55240  0.33480  Biso   1.000  H
  H37      1.0000 0.94940  0.94760  0.83480  Biso   1.000  H
  H38      1.0000 0.55060  0.55240  0.83480  Biso   1.000  H
  H39      1.0000 0.44940  0.05240  0.66520  Biso   1.000  H
  H40      1.0000 0.05060  0.44760  0.66520  Biso   1.000  H
  C25      1.0000 0.13430  0.39720  0.02750  Biso   1.000  C
  C26      1.0000 0.36570  0.10280  0.02750  Biso   1.000  C
  C27      1.0000 0.63430  0.60280  0.47250  Biso   1.000  C
  C28      1.0000 0.86570  0.89720  0.47250  Biso   1.000  C
  C29      1.0000 0.86570  0.60280  0.97250  Biso   1.000  C
  C30      1.0000 0.63430  0.89720  0.97250  Biso   1.000  C
  C31      1.0000 0.36570  0.39720  0.52750  Biso   1.000  C
  C32      1.0000 0.13430  0.10280  0.52750  Biso   1.000  C
  H41      1.0000 0.10480  0.42290  0.00310  Biso   1.000  H
  H42      1.0000 0.39520  0.07710  0.00310  Biso   1.000  H
  H43      1.0000 0.60480  0.57710  0.49690  Biso   1.000  H
  H44      1.0000 0.89520  0.92290  0.49690  Biso   1.000  H
  H45      1.0000 0.89520  0.57710  0.99690  Biso   1.000  H
  H46      1.0000 0.60480  0.92290  0.99690  Biso   1.000  H
  H47      1.0000 0.39520  0.42290  0.50310  Biso   1.000  H
  H48      1.0000 0.10480  0.07710  0.50310  Biso   1.000  H
  C33      1.0000 0.14870  0.51160  0.03320  Biso   1.000  C
  C34      1.0000 0.35130  0.98840  0.03320  Biso   1.000  C
  C35      1.0000 0.64870  0.48840  0.46680  Biso   1.000  C
  C36      1.0000 0.85130  0.01160  0.46680  Biso   1.000  C
  C37      1.0000 0.85130  0.48840  0.96680  Biso   1.000  C
  C38      1.0000 0.64870  0.01160  0.96680  Biso   1.000  C
  C39      1.0000 0.35130  0.51160  0.53320  Biso   1.000  C
  C40      1.0000 0.14870  0.98840  0.53320  Biso   1.000  C
  H49      1.0000 0.12530  0.55780  0.07240  Biso   1.000  H
  H50      1.0000 0.37470  0.94220  0.07240  Biso   1.000  H
  H51      1.0000 0.62530  0.44220  0.42760  Biso   1.000  H
  H52      1.0000 0.87470  0.05780  0.42760  Biso   1.000  H
  H53      1.0000 0.87470  0.44220  0.92760  Biso   1.000  H
  H54      1.0000 0.62530  0.05780  0.92760  Biso   1.000  H
  H55      1.0000 0.37470  0.55780  0.57240  Biso   1.000  H
  H56      1.0000 0.12530  0.94220  0.57240  Biso   1.000  H
  H57      1.0000 0.17290  0.51410  0.09660  Biso   1.000  H
  H58      1.0000 0.32710  0.98590  0.09660  Biso   1.000  H
  H59      1.0000 0.67290  0.48590  0.40340  Biso   1.000  H
  H60      1.0000 0.82710  0.01410  0.40340  Biso   1.000  H
  H61      1.0000 0.82710  0.48590  0.90340  Biso   1.000  H
  H62      1.0000 0.67290  0.01410  0.90340  Biso   1.000  H
  H63      1.0000 0.32710  0.51410  0.59660  Biso   1.000  H
  H64      1.0000 0.17290  0.98590  0.59660  Biso   1.000  H
  C41      1.0000 0.16260  0.56990  0.91250  Biso   1.000  C
  C42      1.0000 0.33740  0.93010  0.91250  Biso   1.000  C
  C43      1.0000 0.66260  0.43010  0.58750  Biso   1.000  C
  C44      1.0000 0.83740  0.06990  0.58750  Biso   1.000  C
  C45      1.0000 0.83740  0.43010  0.08750  Biso   1.000  C
  C46      1.0000 0.66260  0.06990  0.08750  Biso   1.000  C
  C47      1.0000 0.33740  0.56990  0.41250  Biso   1.000  C
  C48      1.0000 0.16260  0.93010  0.41250  Biso   1.000  C
  C49      1.0000 0.13570  0.62680  0.81720  Biso   1.000  C
  C50      1.0000 0.36430  0.87320  0.81720  Biso   1.000  C
  C51      1.0000 0.63570  0.37320  0.68280  Biso   1.000  C
  C52      1.0000 0.86430  0.12680  0.68280  Biso   1.000  C
  C53      1.0000 0.86430  0.37320  0.18280  Biso   1.000  C
  C54      1.0000 0.63570  0.12680  0.18280  Biso   1.000  C
  C55      1.0000 0.36430  0.62680  0.31720  Biso   1.000  C
  C56      1.0000 0.13570  0.87320  0.31720  Biso   1.000  C
  H65      1.0000 0.10590  0.62730  0.83540  Biso   1.000  H
  H66      1.0000 0.39410  0.87270  0.83540  Biso   1.000  H
  H67      1.0000 0.60590  0.37270  0.66460  Biso   1.000  H
  H68      1.0000 0.89410  0.12730  0.66460  Biso   1.000  H
  H69      1.0000 0.89410  0.37270  0.16460  Biso   1.000  H
  H70      1.0000 0.60590  0.12730  0.16460  Biso   1.000  H
  H71      1.0000 0.39410  0.62730  0.33540  Biso   1.000  H
  H72      1.0000 0.10590  0.87270  0.33540  Biso   1.000  H
  C57      1.0000 0.14820  0.67910  0.70590  Biso   1.000  C
  C58      1.0000 0.35180  0.82090  0.70590  Biso   1.000  C
  C59      1.0000 0.64820  0.32090  0.79410  Biso   1.000  C
  C60      1.0000 0.85180  0.17910  0.79410  Biso   1.000  C
  C61      1.0000 0.85180  0.32090  0.29410  Biso   1.000  C
  C62      1.0000 0.64820  0.17910  0.29410  Biso   1.000  C
  C63      1.0000 0.35180  0.67910  0.20590  Biso   1.000  C
  C64      1.0000 0.14820  0.82090  0.20590  Biso   1.000  C
  H73      1.0000 0.12820  0.71730  0.65040  Biso   1.000  H
  H74      1.0000 0.37180  0.78270  0.65040  Biso   1.000  H
  H75      1.0000 0.62820  0.28270  0.84960  Biso   1.000  H
  H76      1.0000 0.87180  0.21730  0.84960  Biso   1.000  H
  H77      1.0000 0.87180  0.28270  0.34960  Biso   1.000  H
  H78      1.0000 0.62820  0.21730  0.34960  Biso   1.000  H
  H79      1.0000 0.37180  0.71730  0.15040  Biso   1.000  H
  H80      1.0000 0.12820  0.78270  0.15040  Biso   1.000  H
  C65      1.0000 0.18970  0.67580  0.67580  Biso   1.000  C
  C66      1.0000 0.31030  0.82420  0.67580  Biso   1.000  C
  C67      1.0000 0.68970  0.32420  0.82420  Biso   1.000  C
  C68      1.0000 0.81030  0.17580  0.82420  Biso   1.000  C
  C69      1.0000 0.81030  0.32420  0.32420  Biso   1.000  C
  C70      1.0000 0.68970  0.17580  0.32420  Biso   1.000  C
  C71      1.0000 0.31030  0.67580  0.17580  Biso   1.000  C
  C72      1.0000 0.18970  0.82420  0.17580  Biso   1.000  C
  H81      1.0000 0.19910  0.71230  0.59670  Biso   1.000  H
  H82      1.0000 0.30090  0.78770  0.59670  Biso   1.000  H
  H83      1.0000 0.69910  0.28770  0.90330  Biso   1.000  H
  H84      1.0000 0.80090  0.21230  0.90330  Biso   1.000  H
  H85      1.0000 0.80090  0.28770  0.40330  Biso   1.000  H
  H86      1.0000 0.69910  0.21230  0.40330  Biso   1.000  H
  H87      1.0000 0.30090  0.71230  0.09670  Biso   1.000  H
  H88      1.0000 0.19910  0.78770  0.09670  Biso   1.000  H
  C73      1.0000 0.22120  0.61930  0.75780  Biso   1.000  C
  C74      1.0000 0.27880  0.88070  0.75780  Biso   1.000  C
  C75      1.0000 0.72120  0.38070  0.74220  Biso   1.000  C
  C76      1.0000 0.77880  0.11930  0.74220  Biso   1.000  C
  C77      1.0000 0.77880  0.38070  0.24220  Biso   1.000  C
  C78      1.0000 0.72120  0.11930  0.24220  Biso   1.000  C
  C79      1.0000 0.27880  0.61930  0.25780  Biso   1.000  C
  C80      1.0000 0.22120  0.88070  0.25780  Biso   1.000  C
  H89      1.0000 0.25060  0.61980  0.73340  Biso   1.000  H
  H90      1.0000 0.24940  0.88020  0.73340  Biso   1.000  H
  H91      1.0000 0.75060  0.38020  0.76660  Biso   1.000  H
  H92      1.0000 0.74940  0.11980  0.76660  Biso   1.000  H
  H93      1.0000 0.74940  0.38020  0.26660  Biso   1.000  H
  H94      1.0000 0.75060  0.11980  0.26660  Biso   1.000  H
  H95      1.0000 0.24940  0.61980  0.23340  Biso   1.000  H
  H96      1.0000 0.25060  0.88020  0.23340  Biso   1.000  H
  C81      1.0000 0.20750  0.56160  0.87820  Biso   1.000  C
  C82      1.0000 0.29250  0.93840  0.87820  Biso   1.000  C
  C83      1.0000 0.70750  0.43840  0.62180  Biso   1.000  C
  C84      1.0000 0.79250  0.06160  0.62180  Biso   1.000  C
  C85      1.0000 0.79250  0.43840  0.12180  Biso   1.000  C
  C86      1.0000 0.70750  0.06160  0.12180  Biso   1.000  C
  C87      1.0000 0.29250  0.56160  0.37820  Biso   1.000  C
  C88      1.0000 0.20750  0.93840  0.37820  Biso   1.000  C
  H97      1.0000 0.22710  0.52040  0.93200  Biso   1.000  H
  H98      1.0000 0.27290  0.97960  0.93200  Biso   1.000  H
  H99      1.0000 0.72710  0.47960  0.56800  Biso   1.000  H
  H100     1.0000 0.77290  0.02040  0.56800  Biso   1.000  H
  H101     1.0000 0.77290  0.47960  0.06800  Biso   1.000  H
  H102     1.0000 0.72710  0.02040  0.06800  Biso   1.000  H
  H103     1.0000 0.27290  0.52040  0.43200  Biso   1.000  H
  H104     1.0000 0.22710  0.97960  0.43200  Biso   1.000  H
  C89      1.0000 0.11751  0.33310  0.14450  Biso   1.000  C
  C90      1.0000 0.38249  0.16690  0.14450  Biso   1.000  C
  C91      1.0000 0.61751  0.66690  0.35550  Biso   1.000  C
  C92      1.0000 0.88249  0.83310  0.35550  Biso   1.000  C
  C93      1.0000 0.88249  0.66690  0.85550  Biso   1.000  C
  C94      1.0000 0.61751  0.83310  0.85550  Biso   1.000  C
  C95      1.0000 0.38249  0.33310  0.64450  Biso   1.000  C
  C96      1.0000 0.11751  0.16690  0.64450  Biso   1.000  C
  Cl1      1.0000 0.25000  0.25000  0.23980  Biso   1.000  Cl
  Cl2      1.0000 0.75000  0.75000  0.26020  Biso   1.000  Cl
  Cl3      1.0000 0.75000  0.75000  0.76020  Biso   1.000  Cl
  Cl4      1.0000 0.25000  0.25000  0.73980  Biso   1.000  Cl
  O25      1.0000 0.25000  0.25000  0.38820  Biso   1.000  O
  O26      1.0000 0.75000  0.75000  0.11180  Biso   1.000  O
  O27      1.0000 0.75000  0.75000  0.61180  Biso   1.000  O
  O28      1.0000 0.25000  0.25000  0.88820  Biso   1.000  O
  O29      1.0000 0.29180  0.30260  0.19970  Biso   1.000  O
  O30      1.0000 0.20820  0.19740  0.19970  Biso   1.000  O
  O31      1.0000 0.79180  0.69740  0.30030  Biso   1.000  O
  O32      1.0000 0.70820  0.80260  0.30030  Biso   1.000  O
  O33      1.0000 0.70820  0.69740  0.80030  Biso   1.000  O
  O34      1.0000 0.79180  0.80260  0.80030  Biso   1.000  O
  O35      1.0000 0.20820  0.30260  0.69970  Biso   1.000  O
  O36      1.0000 0.29180  0.19740  0.69970  Biso   1.000  O
  O37      1.0000 0.25610  0.12420  0.19550  Biso   1.000  O
  O38      1.0000 0.24390  0.37580  0.19550  Biso   1.000  O
  O39      1.0000 0.75610  0.87580  0.30450  Biso   1.000  O
  O40      1.0000 0.74390  0.62420  0.30450  Biso   1.000  O
  O41      1.0000 0.74390  0.87580  0.80450  Biso   1.000  O
  O42      1.0000 0.75610  0.62420  0.80450  Biso   1.000  O
  O43      1.0000 0.24390  0.12420  0.69550  Biso   1.000  O
  O44      1.0000 0.25610  0.37580  0.69550  Biso   1.000  O
  O45      1.0000 0.21170  0.30480  0.19190  Biso   1.000  O
  O46      1.0000 0.28830  0.19520  0.19190  Biso   1.000  O
  O47      1.0000 0.71170  0.69520  0.30810  Biso   1.000  O
  O48      1.0000 0.78830  0.80480  0.30810  Biso   1.000  O
  O49      1.0000 0.78830  0.69520  0.80810  Biso   1.000  O
  O50      1.0000 0.71170  0.80480  0.80810  Biso   1.000  O
  O51      1.0000 0.28830  0.30480  0.69190  Biso   1.000  O
  O52      1.0000 0.21170  0.19520  0.69190  Biso   1.000  O
  Cl5      1.0000 0.00000  0.00000  0.50000  Biso   1.000  Cl
  Cl6      1.0000 0.50000  0.50000  0.50000  Biso   1.000  Cl
  Cl7      1.0000 0.50000  0.00000  0.00000  Biso   1.000  Cl
  Cl8      1.0000 0.00000  0.50000  0.00000  Biso   1.000  Cl
  O53      1.0000 0.99880  0.92750  0.37550  Biso   1.000  O
  O54      1.0000 0.50120  0.57250  0.37550  Biso   1.000  O
  O55      1.0000 0.49880  0.07250  0.12450  Biso   1.000  O
  O56      1.0000 0.00120  0.42750  0.12450  Biso   1.000  O
  O57      1.0000 0.00120  0.07250  0.62450  Biso   1.000  O
  O58      1.0000 0.49880  0.42750  0.62450  Biso   1.000  O
  O59      1.0000 0.50120  0.92750  0.87550  Biso   1.000  O
  O60      1.0000 0.99880  0.57250  0.87550  Biso   1.000  O
  O61      1.0000 0.02580  0.10690  0.45940  Biso   1.000  O
  O62      1.0000 0.47420  0.39310  0.45940  Biso   1.000  O
  O63      1.0000 0.52580  0.89310  0.04060  Biso   1.000  O
  O64      1.0000 0.97420  0.60690  0.04060  Biso   1.000  O
  O65      1.0000 0.97420  0.89310  0.54060  Biso   1.000  O
  O66      1.0000 0.52580  0.60690  0.54060  Biso   1.000  O
  O67      1.0000 0.47420  0.10690  0.95940  Biso   1.000  O
  O68      1.0000 0.02580  0.39310  0.95940  Biso   1.000  O
  O69      1.0000 0.02580  0.94070  0.60420  Biso   1.000  O
  O70      1.0000 0.47420  0.55930  0.60420  Biso   1.000  O
  O71      1.0000 0.52580  0.05930  0.89580  Biso   1.000  O
  O72      1.0000 0.97420  0.44070  0.89580  Biso   1.000  O
  O73      1.0000 0.97420  0.05930  0.39580  Biso   1.000  O
  O74      1.0000 0.52580  0.44070  0.39580  Biso   1.000  O
  O75      1.0000 0.47420  0.94070  0.10420  Biso   1.000  O
  O76      1.0000 0.02580  0.55930  0.10420  Biso   1.000  O
  O77      1.0000 0.95750  0.03180  0.54250  Biso   1.000  O
  O78      1.0000 0.54250  0.46820  0.54250  Biso   1.000  O
  O79      1.0000 0.45750  0.96820  0.95750  Biso   1.000  O
  O80      1.0000 0.04250  0.53180  0.95750  Biso   1.000  O
  O81      1.0000 0.04250  0.96820  0.45750  Biso   1.000  O
  O82      1.0000 0.45750  0.53180  0.45750  Biso   1.000  O
  O83      1.0000 0.54250  0.03180  0.04250  Biso   1.000  O
  O84      1.0000 0.95750  0.46820  0.04250  Biso   1.000  O
