data_image0
_cell_length_a       10.0031
_cell_length_b       14.0175
_cell_length_c       21.3811
_cell_angle_alpha    90
_cell_angle_beta     90
_cell_angle_gamma    90

_symmetry_space_group_name_H-M    "P 1"
_symmetry_int_tables_number       1

loop_
  _symmetry_equiv_pos_as_xyz
  'x, y, z'

loop_
  _atom_site_label
  _atom_site_occupancy
  _atom_site_fract_x
  _atom_site_fract_y
  _atom_site_fract_z
  _atom_site_thermal_displace_type
  _atom_site_B_iso_or_equiv
  _atom_site_type_symbol
  Er1      1.0000 0.92427  0.25000  0.29086  Biso   1.000  Er
  Er2      1.0000 0.42427  0.75000  0.20914  Biso   1.000  Er
  Er3      1.0000 0.07573  0.75000  0.70914  Biso   1.000  Er
  Er4      1.0000 0.57573  0.25000  0.79086  Biso   1.000  Er
  Cu1      1.0000 0.81668  0.25000  0.03015  Biso   1.000  Cu
  Cu2      1.0000 0.31668  0.75000  0.46985  Biso   1.000  Cu
  Cu3      1.0000 0.18332  0.75000  0.96985  Biso   1.000  Cu
  Cu4      1.0000 0.68332  0.25000  0.53015  Biso   1.000  Cu
  N1       1.0000 0.21070  0.25000  0.30020  Biso   1.000  N
  N2       1.0000 0.71070  0.75000  0.19980  Biso   1.000  N
  N3       1.0000 0.78930  0.75000  0.69980  Biso   1.000  N
  N4       1.0000 0.28930  0.25000  0.80020  Biso   1.000  N
  O1       1.0000 0.14180  0.17370  0.29950  Biso   1.000  O
  O2       1.0000 0.64180  0.82630  0.20050  Biso   1.000  O
  O3       1.0000 0.85820  0.67370  0.70050  Biso   1.000  O
  O4       1.0000 0.35820  0.32630  0.79950  Biso   1.000  O
  O5       1.0000 0.85820  0.82630  0.70050  Biso   1.000  O
  O6       1.0000 0.35820  0.17370  0.79950  Biso   1.000  O
  O7       1.0000 0.14180  0.32630  0.29950  Biso   1.000  O
  O8       1.0000 0.64180  0.67370  0.20050  Biso   1.000  O
  O9       1.0000 0.33090  0.25000  0.30360  Biso   1.000  O
  O10      1.0000 0.83090  0.75000  0.19640  Biso   1.000  O
  O11      1.0000 0.66910  0.75000  0.69640  Biso   1.000  O
  O12      1.0000 0.16910  0.25000  0.80360  Biso   1.000  O
  C1       1.0000 0.53570  0.25000  0.03870  Biso   1.000  C
  C2       1.0000 0.03570  0.75000  0.46130  Biso   1.000  C
  C3       1.0000 0.46430  0.75000  0.96130  Biso   1.000  C
  C4       1.0000 0.96430  0.25000  0.53870  Biso   1.000  C
  C5       1.0000 0.57820  0.25000  0.10230  Biso   1.000  C
  C6       1.0000 0.07820  0.75000  0.39770  Biso   1.000  C
  C7       1.0000 0.42180  0.75000  0.89770  Biso   1.000  C
  C8       1.0000 0.92180  0.25000  0.60230  Biso   1.000  C
  C9       1.0000 0.48720  0.25000  0.15120  Biso   1.000  C
  C10      1.0000 0.98720  0.75000  0.34880  Biso   1.000  C
  C11      1.0000 0.51280  0.75000  0.84880  Biso   1.000  C
  C12      1.0000 0.01280  0.25000  0.65120  Biso   1.000  C
  C13      1.0000 0.34860  0.25000  0.13700  Biso   1.000  C
  C14      1.0000 0.84860  0.75000  0.36300  Biso   1.000  C
  C15      1.0000 0.65140  0.75000  0.86300  Biso   1.000  C
  C16      1.0000 0.15140  0.25000  0.63700  Biso   1.000  C
  C17      1.0000 0.30620  0.25000  0.07460  Biso   1.000  C
  C18      1.0000 0.80620  0.75000  0.42540  Biso   1.000  C
  C19      1.0000 0.69380  0.75000  0.92540  Biso   1.000  C
  C20      1.0000 0.19380  0.25000  0.57460  Biso   1.000  C
  C21      1.0000 0.39860  0.25000  0.02590  Biso   1.000  C
  C22      1.0000 0.89860  0.75000  0.47410  Biso   1.000  C
  C23      1.0000 0.60140  0.75000  0.97410  Biso   1.000  C
  C24      1.0000 0.10140  0.25000  0.52590  Biso   1.000  C
  N5       1.0000 0.63960  0.25000  0.99580  Biso   1.000  N
  N6       1.0000 0.13960  0.75000  0.50420  Biso   1.000  N
  N7       1.0000 0.36040  0.75000  0.00420  Biso   1.000  N
  N8       1.0000 0.86040  0.25000  0.49580  Biso   1.000  N
  C25      1.0000 0.63390  0.25000  0.93420  Biso   1.000  C
  C26      1.0000 0.13390  0.75000  0.56580  Biso   1.000  C
  C27      1.0000 0.36610  0.75000  0.06580  Biso   1.000  C
  C28      1.0000 0.86610  0.25000  0.43420  Biso   1.000  C
  C29      1.0000 0.77470  0.25000  0.90510  Biso   1.000  C
  C30      1.0000 0.27470  0.75000  0.59490  Biso   1.000  C
  C31      1.0000 0.22530  0.75000  0.09490  Biso   1.000  C
  C32      1.0000 0.72530  0.25000  0.40510  Biso   1.000  C
  O13      1.0000 0.53380  0.25000  0.89790  Biso   1.000  O
  O14      1.0000 0.03380  0.75000  0.60210  Biso   1.000  O
  O15      1.0000 0.46620  0.75000  0.10210  Biso   1.000  O
  O16      1.0000 0.96620  0.25000  0.39790  Biso   1.000  O
  O17      1.0000 0.87450  0.25000  0.94040  Biso   1.000  O
  O18      1.0000 0.37450  0.75000  0.55960  Biso   1.000  O
  O19      1.0000 0.12550  0.75000  0.05960  Biso   1.000  O
  O20      1.0000 0.62550  0.25000  0.44040  Biso   1.000  O
  O21      1.0000 0.77860  0.25000  0.84670  Biso   1.000  O
  O22      1.0000 0.27860  0.75000  0.65330  Biso   1.000  O
  O23      1.0000 0.22140  0.75000  0.15330  Biso   1.000  O
  O24      1.0000 0.72140  0.25000  0.34670  Biso   1.000  O
  N9       1.0000 0.71820  0.25000  0.10820  Biso   1.000  N
  N10      1.0000 0.21820  0.75000  0.39180  Biso   1.000  N
  N11      1.0000 0.28180  0.75000  0.89180  Biso   1.000  N
  N12      1.0000 0.78180  0.25000  0.60820  Biso   1.000  N
  C33      1.0000 0.79330  0.25000  0.15850  Biso   1.000  C
  C34      1.0000 0.29330  0.75000  0.34150  Biso   1.000  C
  C35      1.0000 0.20670  0.75000  0.84150  Biso   1.000  C
  C36      1.0000 0.70670  0.25000  0.65850  Biso   1.000  C
  C37      1.0000 0.94090  0.25000  0.14240  Biso   1.000  C
  C38      1.0000 0.44090  0.75000  0.35760  Biso   1.000  C
  C39      1.0000 0.05910  0.75000  0.85760  Biso   1.000  C
  C40      1.0000 0.55910  0.25000  0.64240  Biso   1.000  C
  O25      1.0000 0.75870  0.25000  0.21550  Biso   1.000  O
  O26      1.0000 0.25870  0.75000  0.28450  Biso   1.000  O
  O27      1.0000 0.24130  0.75000  0.78450  Biso   1.000  O
  O28      1.0000 0.74130  0.25000  0.71550  Biso   1.000  O
  O29      1.0000 0.01780  0.25000  0.18960  Biso   1.000  O
  O30      1.0000 0.51780  0.75000  0.31040  Biso   1.000  O
  O31      1.0000 0.98220  0.75000  0.81040  Biso   1.000  O
  O32      1.0000 0.48220  0.25000  0.68960  Biso   1.000  O
  O33      1.0000 0.97700  0.25000  0.08620  Biso   1.000  O
  O34      1.0000 0.47700  0.75000  0.41380  Biso   1.000  O
  O35      1.0000 0.02300  0.75000  0.91380  Biso   1.000  O
  O36      1.0000 0.52300  0.25000  0.58620  Biso   1.000  O
  S1       1.0000 0.78430  0.00780  0.29247  Biso   1.000  S
  S2       1.0000 0.28430  0.99220  0.20753  Biso   1.000  S
  S3       1.0000 0.21570  0.50780  0.70753  Biso   1.000  S
  S4       1.0000 0.71570  0.49220  0.79247  Biso   1.000  S
  S5       1.0000 0.21570  0.99220  0.70753  Biso   1.000  S
  S6       1.0000 0.71570  0.00780  0.79247  Biso   1.000  S
  S7       1.0000 0.78430  0.49220  0.29247  Biso   1.000  S
  S8       1.0000 0.28430  0.50780  0.20753  Biso   1.000  S
  O37      1.0000 0.88070  0.09110  0.29340  Biso   1.000  O
  O38      1.0000 0.38070  0.90890  0.20660  Biso   1.000  O
  O39      1.0000 0.11930  0.59110  0.70660  Biso   1.000  O
  O40      1.0000 0.61930  0.40890  0.79340  Biso   1.000  O
  O41      1.0000 0.11930  0.90890  0.70660  Biso   1.000  O
  O42      1.0000 0.61930  0.09110  0.79340  Biso   1.000  O
  O43      1.0000 0.88070  0.40890  0.29340  Biso   1.000  O
  O44      1.0000 0.38070  0.59110  0.20660  Biso   1.000  O
  C41      1.0000 0.62870  0.05270  0.26470  Biso   1.000  C
  C42      1.0000 0.12870  0.94730  0.23530  Biso   1.000  C
  C43      1.0000 0.37130  0.55270  0.73530  Biso   1.000  C
  C44      1.0000 0.87130  0.44730  0.76470  Biso   1.000  C
  C45      1.0000 0.37130  0.94730  0.73530  Biso   1.000  C
  C46      1.0000 0.87130  0.05270  0.76470  Biso   1.000  C
  C47      1.0000 0.62870  0.44730  0.26470  Biso   1.000  C
  C48      1.0000 0.12870  0.55270  0.23530  Biso   1.000  C
  C49      1.0000 0.73420  0.99380  0.37220  Biso   1.000  C
  C50      1.0000 0.23420  0.00620  0.12780  Biso   1.000  C
  C51      1.0000 0.26580  0.49380  0.62780  Biso   1.000  C
  C52      1.0000 0.76580  0.50620  0.87220  Biso   1.000  C
  C53      1.0000 0.26580  0.00620  0.62780  Biso   1.000  C
  C54      1.0000 0.76580  0.99380  0.87220  Biso   1.000  C
  C55      1.0000 0.73420  0.50620  0.37220  Biso   1.000  C
  C56      1.0000 0.23420  0.49380  0.12780  Biso   1.000  C
  S9       1.0000 0.80860  0.01380  0.07617  Biso   1.000  S
  S10      1.0000 0.30860  0.98620  0.42383  Biso   1.000  S
  S11      1.0000 0.19140  0.51380  0.92383  Biso   1.000  S
  S12      1.0000 0.69140  0.48620  0.57617  Biso   1.000  S
  S13      1.0000 0.19140  0.98620  0.92383  Biso   1.000  S
  S14      1.0000 0.69140  0.01380  0.57617  Biso   1.000  S
  S15      1.0000 0.80860  0.48620  0.07617  Biso   1.000  S
  S16      1.0000 0.30860  0.51380  0.42383  Biso   1.000  S
  O45      1.0000 0.82870  0.07250  0.02010  Biso   1.000  O
  O46      1.0000 0.32870  0.92750  0.47990  Biso   1.000  O
  O47      1.0000 0.17130  0.57250  0.97990  Biso   1.000  O
  O48      1.0000 0.67130  0.42750  0.52010  Biso   1.000  O
  O49      1.0000 0.17130  0.92750  0.97990  Biso   1.000  O
  O50      1.0000 0.67130  0.07250  0.52010  Biso   1.000  O
  O51      1.0000 0.82870  0.42750  0.02010  Biso   1.000  O
  O52      1.0000 0.32870  0.57250  0.47990  Biso   1.000  O
  C57      1.0000 0.63210  0.98480  0.07540  Biso   1.000  C
  C58      1.0000 0.13210  0.01520  0.42460  Biso   1.000  C
  C59      1.0000 0.36790  0.48480  0.92460  Biso   1.000  C
  C60      1.0000 0.86790  0.51520  0.57540  Biso   1.000  C
  C61      1.0000 0.36790  0.01520  0.92460  Biso   1.000  C
  C62      1.0000 0.86790  0.98480  0.57540  Biso   1.000  C
  C63      1.0000 0.63210  0.51520  0.07540  Biso   1.000  C
  C64      1.0000 0.13210  0.48480  0.42460  Biso   1.000  C
  C65      1.0000 0.87300  0.89710  0.05850  Biso   1.000  C
  C66      1.0000 0.37300  0.10290  0.44150  Biso   1.000  C
  C67      1.0000 0.12700  0.39710  0.94150  Biso   1.000  C
  C68      1.0000 0.62700  0.60290  0.55850  Biso   1.000  C
  C69      1.0000 0.12700  0.10290  0.94150  Biso   1.000  C
  C70      1.0000 0.62700  0.89710  0.55850  Biso   1.000  C
  C71      1.0000 0.87300  0.60290  0.05850  Biso   1.000  C
  C72      1.0000 0.37300  0.39710  0.44150  Biso   1.000  C
