data_image0
_cell_length_a       7.219
_cell_length_b       17.033
_cell_length_c       9.773
_cell_angle_alpha    90
_cell_angle_beta     121.23
_cell_angle_gamma    90

_symmetry_space_group_name_H-M    "P 1"
_symmetry_int_tables_number       1

loop_
  _symmetry_equiv_pos_as_xyz
  'x, y, z'

loop_
  _atom_site_label
  _atom_site_occupancy
  _atom_site_fract_x
  _atom_site_fract_y
  _atom_site_fract_z
  _atom_site_thermal_displace_type
  _atom_site_B_iso_or_equiv
  _atom_site_type_symbol
  Cu1      1.0000 0.36701  0.20295  0.12383  Biso   1.000  Cu
  Cu2      1.0000 0.63299  0.70295  0.37617  Biso   1.000  Cu
  Cu3      1.0000 0.63299  0.79705  0.87617  Biso   1.000  Cu
  Cu4      1.0000 0.36701  0.29705  0.62383  Biso   1.000  Cu
  Cl1      1.0000 0.82682  0.15556  0.77578  Biso   1.000  Cl
  Cl2      1.0000 0.17318  0.65556  0.72422  Biso   1.000  Cl
  Cl3      1.0000 0.17318  0.84444  0.22422  Biso   1.000  Cl
  Cl4      1.0000 0.82682  0.34444  0.27578  Biso   1.000  Cl
  O1       1.0000 0.29650  0.34312  0.77420  Biso   1.000  O
  O2       1.0000 0.70350  0.84312  0.72580  Biso   1.000  O
  O3       1.0000 0.70350  0.65688  0.22580  Biso   1.000  O
  O4       1.0000 0.29650  0.15688  0.27420  Biso   1.000  O
  O5       1.0000 0.38750  0.24258  0.94240  Biso   1.000  O
  O6       1.0000 0.61250  0.74258  0.55760  Biso   1.000  O
  O7       1.0000 0.61250  0.75742  0.05760  Biso   1.000  O
  O8       1.0000 0.38750  0.25742  0.44240  Biso   1.000  O
  O9       1.0000 0.71240  0.20290  0.82880  Biso   1.000  O
  O10      1.0000 0.28760  0.70290  0.67120  Biso   1.000  O
  O11      1.0000 0.28760  0.79710  0.17120  Biso   1.000  O
  O12      1.0000 0.71240  0.29710  0.32880  Biso   1.000  O
  O13      1.0000 0.88010  0.20490  0.68180  Biso   1.000  O
  O14      1.0000 0.11990  0.70490  0.81820  Biso   1.000  O
  O15      1.0000 0.11990  0.79510  0.31820  Biso   1.000  O
  O16      1.0000 0.88010  0.29510  0.18180  Biso   1.000  O
  O17      1.0000 0.69300  0.09460  0.68860  Biso   1.000  O
  O18      1.0000 0.30700  0.59460  0.81140  Biso   1.000  O
  O19      1.0000 0.30700  0.90540  0.31140  Biso   1.000  O
  O20      1.0000 0.69300  0.40540  0.18860  Biso   1.000  O
  O21      1.0000 0.02150  0.12660  0.91070  Biso   1.000  O
  O22      1.0000 0.97850  0.62660  0.58930  Biso   1.000  O
  O23      1.0000 0.97850  0.87340  0.08930  Biso   1.000  O
  O24      1.0000 0.02150  0.37340  0.41070  Biso   1.000  O
  N1       1.0000 0.56140  0.11595  0.15540  Biso   1.000  N
  N2       1.0000 0.43860  0.61595  0.34460  Biso   1.000  N
  N3       1.0000 0.43860  0.88405  0.84460  Biso   1.000  N
  N4       1.0000 0.56140  0.38405  0.65540  Biso   1.000  N
  N5       1.0000 0.67750  0.11314  0.08310  Biso   1.000  N
  N6       1.0000 0.32250  0.61314  0.41690  Biso   1.000  N
  N7       1.0000 0.32250  0.88686  0.91690  Biso   1.000  N
  N8       1.0000 0.67750  0.38686  0.58310  Biso   1.000  N
  H1       1.0000 0.67550  0.14910  0.02070  Biso   1.000  H
  H2       1.0000 0.32450  0.64910  0.47930  Biso   1.000  H
  H3       1.0000 0.32450  0.85090  0.97930  Biso   1.000  H
  H4       1.0000 0.67550  0.35090  0.52070  Biso   1.000  H
  N9       1.0000 0.21320  0.30234  0.09990  Biso   1.000  N
  N10      1.0000 0.78680  0.80234  0.40010  Biso   1.000  N
  N11      1.0000 0.78680  0.69766  0.90010  Biso   1.000  N
  N12      1.0000 0.21320  0.19766  0.59990  Biso   1.000  N
  H5       1.0000 0.07940  0.29190  0.08050  Biso   1.000  H
  H6       1.0000 0.92060  0.79190  0.41950  Biso   1.000  H
  H7       1.0000 0.92060  0.70810  0.91950  Biso   1.000  H
  H8       1.0000 0.07940  0.20810  0.58050  Biso   1.000  H
  H9       1.0000 0.28450  0.32980  0.19170  Biso   1.000  H
  H10      1.0000 0.71550  0.82980  0.30830  Biso   1.000  H
  H11      1.0000 0.71550  0.67020  0.80830  Biso   1.000  H
  H12      1.0000 0.28450  0.17020  0.69170  Biso   1.000  H
  C1       1.0000 0.79600  0.04770  0.12020  Biso   1.000  C
  C2       1.0000 0.20400  0.54770  0.37980  Biso   1.000  C
  C3       1.0000 0.20400  0.95230  0.87980  Biso   1.000  C
  C4       1.0000 0.79600  0.45230  0.62020  Biso   1.000  C
  C5       1.0000 0.76050  0.00690  0.22410  Biso   1.000  C
  C6       1.0000 0.23950  0.50690  0.27590  Biso   1.000  C
  C7       1.0000 0.23950  0.99310  0.77590  Biso   1.000  C
  C8       1.0000 0.76050  0.49310  0.72410  Biso   1.000  C
  C9       1.0000 0.61310  0.05090  0.24190  Biso   1.000  C
  C10      1.0000 0.38690  0.55090  0.25810  Biso   1.000  C
  C11      1.0000 0.38690  0.94910  0.75810  Biso   1.000  C
  C12      1.0000 0.61310  0.44910  0.74190  Biso   1.000  C
  C13      1.0000 0.30400  0.30796  0.89090  Biso   1.000  C
  C14      1.0000 0.69600  0.80796  0.60910  Biso   1.000  C
  C15      1.0000 0.69600  0.69204  0.10910  Biso   1.000  C
  C16      1.0000 0.30400  0.19204  0.39090  Biso   1.000  C
  C17      1.0000 0.19670  0.34930  0.96910  Biso   1.000  C
  C18      1.0000 0.80330  0.84930  0.53090  Biso   1.000  C
  C19      1.0000 0.80330  0.65070  0.03090  Biso   1.000  C
  C20      1.0000 0.19670  0.15070  0.46910  Biso   1.000  C
  H13      1.0000 0.26560  0.39980  0.01010  Biso   1.000  H
  H14      1.0000 0.73440  0.89980  0.48990  Biso   1.000  H
  H15      1.0000 0.73440  0.60020  0.98990  Biso   1.000  H
  H16      1.0000 0.26560  0.10020  0.51010  Biso   1.000  H
  H17      1.0000 0.04530  0.35850  0.89000  Biso   1.000  H
  H18      1.0000 0.95470  0.85850  0.61000  Biso   1.000  H
  H19      1.0000 0.95470  0.64150  0.11000  Biso   1.000  H
  H20      1.0000 0.04530  0.14150  0.39000  Biso   1.000  H
  H21      1.0000 0.88800  0.04500  0.07700  Biso   1.000  H
  H22      1.0000 0.11200  0.54500  0.42300  Biso   1.000  H
  H23      1.0000 0.11200  0.95500  0.92300  Biso   1.000  H
  H24      1.0000 0.88800  0.45500  0.57700  Biso   1.000  H
  H25      1.0000 0.83500  0.95600  0.27500  Biso   1.000  H
  H26      1.0000 0.16500  0.45600  0.22500  Biso   1.000  H
  H27      1.0000 0.16500  0.04400  0.72500  Biso   1.000  H
  H28      1.0000 0.83500  0.54400  0.77500  Biso   1.000  H
  H29      1.0000 0.52600  0.04600  0.28300  Biso   1.000  H
  H30      1.0000 0.47400  0.54600  0.21700  Biso   1.000  H
  H31      1.0000 0.47400  0.95400  0.71700  Biso   1.000  H
  H32      1.0000 0.52600  0.45400  0.78300  Biso   1.000  H
