data_image0
_cell_length_a       7.2556
_cell_length_b       16.894
_cell_length_c       9.804
_cell_angle_alpha    90
_cell_angle_beta     121.85
_cell_angle_gamma    90

_symmetry_space_group_name_H-M    "P 1"
_symmetry_int_tables_number       1

loop_
  _symmetry_equiv_pos_as_xyz
  'x, y, z'

loop_
  _atom_site_label
  _atom_site_occupancy
  _atom_site_fract_x
  _atom_site_fract_y
  _atom_site_fract_z
  _atom_site_thermal_displace_type
  _atom_site_B_iso_or_equiv
  _atom_site_type_symbol
  Cu1      1.0000 0.62102  0.70211  0.37929  Biso   1.000  Cu
  Cu2      1.0000 0.37898  0.20211  0.12071  Biso   1.000  Cu
  Cu3      1.0000 0.37898  0.29789  0.62071  Biso   1.000  Cu
  Cu4      1.0000 0.62102  0.79789  0.87929  Biso   1.000  Cu
  O1       1.0000 0.60550  0.74050  0.56250  Biso   1.000  O
  O2       1.0000 0.39450  0.24050  0.93750  Biso   1.000  O
  O3       1.0000 0.39450  0.25950  0.43750  Biso   1.000  O
  O4       1.0000 0.60550  0.75950  0.06250  Biso   1.000  O
  O5       1.0000 0.69990  0.84150  0.73280  Biso   1.000  O
  O6       1.0000 0.30010  0.34150  0.76720  Biso   1.000  O
  O7       1.0000 0.30010  0.15850  0.26720  Biso   1.000  O
  O8       1.0000 0.69990  0.65850  0.23280  Biso   1.000  O
  N1       1.0000 0.77540  0.80250  0.40650  Biso   1.000  N
  N2       1.0000 0.22460  0.30250  0.09350  Biso   1.000  N
  N3       1.0000 0.22460  0.19750  0.59350  Biso   1.000  N
  N4       1.0000 0.77540  0.69750  0.90650  Biso   1.000  N
  H1       1.0000 0.90640  0.79200  0.42140  Biso   1.000  H
  H2       1.0000 0.09360  0.29200  0.07860  Biso   1.000  H
  H3       1.0000 0.09360  0.20800  0.57860  Biso   1.000  H
  H4       1.0000 0.90640  0.70800  0.92140  Biso   1.000  H
  H5       1.0000 0.70060  0.83180  0.31670  Biso   1.000  H
  H6       1.0000 0.29940  0.33180  0.18330  Biso   1.000  H
  H7       1.0000 0.29940  0.16820  0.68330  Biso   1.000  H
  H8       1.0000 0.70060  0.66820  0.81670  Biso   1.000  H
  N5       1.0000 0.42660  0.61490  0.34250  Biso   1.000  N
  N6       1.0000 0.57340  0.11490  0.15750  Biso   1.000  N
  N7       1.0000 0.57340  0.38510  0.65750  Biso   1.000  N
  N8       1.0000 0.42660  0.88510  0.84250  Biso   1.000  N
  N9       1.0000 0.20060  0.54030  0.36550  Biso   1.000  N
  N10      1.0000 0.79940  0.04030  0.13450  Biso   1.000  N
  N11      1.0000 0.79940  0.45970  0.63450  Biso   1.000  N
  N12      1.0000 0.20060  0.95970  0.86550  Biso   1.000  N
  H9       1.0000 0.12030  0.52250  0.39900  Biso   1.000  H
  H10      1.0000 0.87970  0.02250  0.10100  Biso   1.000  H
  H11      1.0000 0.87970  0.47750  0.60100  Biso   1.000  H
  H12      1.0000 0.12030  0.97750  0.89900  Biso   1.000  H
  C1       1.0000 0.80340  0.84720  0.54330  Biso   1.000  C
  C2       1.0000 0.19660  0.34720  0.95670  Biso   1.000  C
  C3       1.0000 0.19660  0.15280  0.45670  Biso   1.000  C
  C4       1.0000 0.80340  0.65280  0.04330  Biso   1.000  C
  H13      1.0000 0.74340  0.89980  0.50870  Biso   1.000  H
  H14      1.0000 0.25660  0.39980  0.99130  Biso   1.000  H
  H15      1.0000 0.25660  0.10020  0.49130  Biso   1.000  H
  H16      1.0000 0.74340  0.60020  0.00870  Biso   1.000  H
  H17      1.0000 0.95700  0.85250  0.62310  Biso   1.000  H
  H18      1.0000 0.04300  0.35250  0.87690  Biso   1.000  H
  H19      1.0000 0.04300  0.14750  0.37690  Biso   1.000  H
  H20      1.0000 0.95700  0.64750  0.12310  Biso   1.000  H
  C5       1.0000 0.69230  0.80630  0.61710  Biso   1.000  C
  C6       1.0000 0.30770  0.30630  0.88290  Biso   1.000  C
  C7       1.0000 0.30770  0.19370  0.38290  Biso   1.000  C
  C8       1.0000 0.69230  0.69370  0.11710  Biso   1.000  C
  C9       1.0000 0.36710  0.55190  0.23810  Biso   1.000  C
  C10      1.0000 0.63290  0.05190  0.26190  Biso   1.000  C
  C11      1.0000 0.63290  0.44810  0.76190  Biso   1.000  C
  C12      1.0000 0.36710  0.94810  0.73810  Biso   1.000  C
  C13      1.0000 0.22900  0.50600  0.25390  Biso   1.000  C
  C14      1.0000 0.77100  0.00600  0.24610  Biso   1.000  C
  C15      1.0000 0.77100  0.49400  0.74610  Biso   1.000  C
  C16      1.0000 0.22900  0.99400  0.75390  Biso   1.000  C
  H21      1.0000 0.16490  0.45940  0.19840  Biso   1.000  H
  H22      1.0000 0.83510  0.95940  0.30160  Biso   1.000  H
  H23      1.0000 0.83510  0.54060  0.80160  Biso   1.000  H
  H24      1.0000 0.16490  0.04060  0.69840  Biso   1.000  H
  C17      1.0000 0.32060  0.60490  0.41710  Biso   1.000  C
  C18      1.0000 0.67940  0.10490  0.08290  Biso   1.000  C
  C19      1.0000 0.67940  0.39510  0.58290  Biso   1.000  C
  C20      1.0000 0.32060  0.89510  0.91710  Biso   1.000  C
  H25      1.0000 0.32950  0.63870  0.49520  Biso   1.000  H
  H26      1.0000 0.67050  0.13870  0.00480  Biso   1.000  H
  H27      1.0000 0.67050  0.36130  0.50480  Biso   1.000  H
  H28      1.0000 0.32950  0.86130  0.99520  Biso   1.000  H
  Cl1      1.0000 0.16680  0.85970  0.22670  Biso   1.000  Cl
  Cl2      1.0000 0.83320  0.35970  0.27330  Biso   1.000  Cl
  Cl3      1.0000 0.83320  0.14030  0.77330  Biso   1.000  Cl
  Cl4      1.0000 0.16680  0.64030  0.72670  Biso   1.000  Cl
  O9       1.0000 0.35430  0.90820  0.30040  Biso   1.000  O
  O10      1.0000 0.64570  0.40820  0.19960  Biso   1.000  O
  O11      1.0000 0.64570  0.09180  0.69960  Biso   1.000  O
  O12      1.0000 0.35430  0.59180  0.80040  Biso   1.000  O
  O13      1.0000 0.98650  0.88960  0.08460  Biso   1.000  O
  O14      1.0000 0.01350  0.38960  0.41540  Biso   1.000  O
  O15      1.0000 0.01350  0.11040  0.91540  Biso   1.000  O
  O16      1.0000 0.98650  0.61040  0.58460  Biso   1.000  O
  O17      1.0000 0.22100  0.78520  0.17600  Biso   1.000  O
  O18      1.0000 0.77900  0.28520  0.32400  Biso   1.000  O
  O19      1.0000 0.77900  0.21480  0.82400  Biso   1.000  O
  O20      1.0000 0.22100  0.71480  0.67600  Biso   1.000  O
  O21      1.0000 0.12900  0.85480  0.35190  Biso   1.000  O
  O22      1.0000 0.87100  0.35480  0.14810  Biso   1.000  O
  O23      1.0000 0.87100  0.14520  0.64810  Biso   1.000  O
  O24      1.0000 0.12900  0.64520  0.85190  Biso   1.000  O
  O25      1.0000 0.08700  0.81610  0.31000  Biso   1.000  O
  O26      1.0000 0.91300  0.31610  0.19000  Biso   1.000  O
  O27      1.0000 0.91300  0.18390  0.69000  Biso   1.000  O
  O28      1.0000 0.08700  0.68390  0.81000  Biso   1.000  O
  O29      1.0000 0.30000  0.80780  0.20400  Biso   1.000  O
  O30      1.0000 0.70000  0.30780  0.29600  Biso   1.000  O
  O31      1.0000 0.70000  0.19220  0.79600  Biso   1.000  O
  O32      1.0000 0.30000  0.69220  0.70400  Biso   1.000  O
  O33      1.0000 0.25200  0.93300  0.28600  Biso   1.000  O
  O34      1.0000 0.74800  0.43300  0.21400  Biso   1.000  O
  O35      1.0000 0.74800  0.06700  0.71400  Biso   1.000  O
  O36      1.0000 0.25200  0.56700  0.78600  Biso   1.000  O
