data_image0
_cell_length_a       7.692
_cell_length_b       18.15
_cell_length_c       9.59
_cell_angle_alpha    90
_cell_angle_beta     110
_cell_angle_gamma    90

_symmetry_space_group_name_H-M    "P 1"
_symmetry_int_tables_number       1

loop_
  _symmetry_equiv_pos_as_xyz
  'x, y, z'

loop_
  _atom_site_label
  _atom_site_occupancy
  _atom_site_fract_x
  _atom_site_fract_y
  _atom_site_fract_z
  _atom_site_thermal_displace_type
  _atom_site_B_iso_or_equiv
  _atom_site_type_symbol
  Cu1      1.0000 0.39546  0.22091  0.45455  Biso   1.000  Cu
  Cu2      1.0000 0.10454  0.72091  0.04545  Biso   1.000  Cu
  Cu3      1.0000 0.60454  0.77909  0.54545  Biso   1.000  Cu
  Cu4      1.0000 0.89546  0.27909  0.95455  Biso   1.000  Cu
  Cl1      1.0000 0.70126  0.32623  0.30130  Biso   1.000  Cl
  Cl2      1.0000 0.79874  0.82623  0.19870  Biso   1.000  Cl
  Cl3      1.0000 0.29874  0.67377  0.69870  Biso   1.000  Cl
  Cl4      1.0000 0.20126  0.17377  0.80130  Biso   1.000  Cl
  O1       1.0000 0.60130  0.25410  0.62930  Biso   1.000  O
  O2       1.0000 0.89870  0.75410  0.87070  Biso   1.000  O
  O3       1.0000 0.39870  0.74590  0.37070  Biso   1.000  O
  O4       1.0000 0.10130  0.24590  0.12930  Biso   1.000  O
  O5       1.0000 0.67150  0.32827  0.82610  Biso   1.000  O
  O6       1.0000 0.82850  0.82827  0.67390  Biso   1.000  O
  O7       1.0000 0.32850  0.67173  0.17390  Biso   1.000  O
  O8       1.0000 0.17150  0.17173  0.32610  Biso   1.000  O
  O9       1.0000 0.53070  0.28476  0.26660  Biso   1.000  O
  O10      1.0000 0.96930  0.78476  0.23340  Biso   1.000  O
  O11      1.0000 0.46930  0.71524  0.73340  Biso   1.000  O
  O12      1.0000 0.03070  0.21524  0.76660  Biso   1.000  O
  O13      1.0000 0.74040  0.33881  0.16690  Biso   1.000  O
  O14      1.0000 0.75960  0.83881  0.33310  Biso   1.000  O
  O15      1.0000 0.25960  0.66119  0.83310  Biso   1.000  O
  O16      1.0000 0.24040  0.16119  0.66690  Biso   1.000  O
  O17      1.0000 0.68110  0.39369  0.36440  Biso   1.000  O
  O18      1.0000 0.81890  0.89369  0.13560  Biso   1.000  O
  O19      1.0000 0.31890  0.60631  0.63560  Biso   1.000  O
  O20      1.0000 0.18110  0.10631  0.86440  Biso   1.000  O
  O21      1.0000 0.85310  0.28291  0.40150  Biso   1.000  O
  O22      1.0000 0.64690  0.78291  0.09850  Biso   1.000  O
  O23      1.0000 0.14690  0.71709  0.59850  Biso   1.000  O
  O24      1.0000 0.35310  0.21709  0.90150  Biso   1.000  O
  N1       1.0000 0.26180  0.31063  0.49110  Biso   1.000  N
  N2       1.0000 0.23820  0.81063  0.00890  Biso   1.000  N
  N3       1.0000 0.73820  0.68937  0.50890  Biso   1.000  N
  N4       1.0000 0.76180  0.18937  0.99110  Biso   1.000  N
  H1       1.0000 0.15320  0.29510  0.49930  Biso   1.000  H
  H2       1.0000 0.34680  0.79510  0.00070  Biso   1.000  H
  H3       1.0000 0.84680  0.70490  0.50070  Biso   1.000  H
  H4       1.0000 0.65320  0.20490  0.99930  Biso   1.000  H
  N5       1.0000 0.54890  0.13576  0.43990  Biso   1.000  N
  N6       1.0000 0.95110  0.63576  0.06010  Biso   1.000  N
  N7       1.0000 0.45110  0.86424  0.56010  Biso   1.000  N
  N8       1.0000 0.04890  0.36424  0.93990  Biso   1.000  N
  N9       1.0000 0.73670  0.13681  0.50800  Biso   1.000  N
  N10      1.0000 0.76330  0.63681  0.99200  Biso   1.000  N
  N11      1.0000 0.26330  0.86319  0.49200  Biso   1.000  N
  N12      1.0000 0.23670  0.36319  0.00800  Biso   1.000  N
  C1       1.0000 0.56310  0.30575  0.70200  Biso   1.000  C
  C2       1.0000 0.93690  0.80575  0.79800  Biso   1.000  C
  C3       1.0000 0.43690  0.69425  0.29800  Biso   1.000  C
  C4       1.0000 0.06310  0.19425  0.20200  Biso   1.000  C
  C5       1.0000 0.37600  0.34384  0.63840  Biso   1.000  C
  C6       1.0000 0.12400  0.84384  0.86160  Biso   1.000  C
  C7       1.0000 0.62400  0.65616  0.36160  Biso   1.000  C
  C8       1.0000 0.87600  0.15616  0.13840  Biso   1.000  C
  H5       1.0000 0.30910  0.33800  0.70820  Biso   1.000  H
  H6       1.0000 0.19090  0.83800  0.79180  Biso   1.000  H
  H7       1.0000 0.69090  0.66200  0.29180  Biso   1.000  H
  H8       1.0000 0.80910  0.16200  0.20820  Biso   1.000  H
  C9       1.0000 0.39360  0.42548  0.61090  Biso   1.000  C
  C10      1.0000 0.10640  0.92548  0.88910  Biso   1.000  C
  C11      1.0000 0.60640  0.57452  0.38910  Biso   1.000  C
  C12      1.0000 0.89360  0.07452  0.11090  Biso   1.000  C
  H9       1.0000 0.50610  0.43570  0.59020  Biso   1.000  H
  H10      1.0000 0.99390  0.93570  0.90980  Biso   1.000  H
  H11      1.0000 0.49390  0.56430  0.40980  Biso   1.000  H
  H12      1.0000 0.00610  0.06430  0.09020  Biso   1.000  H
  H13      1.0000 0.39280  0.45470  0.69550  Biso   1.000  H
  H14      1.0000 0.10720  0.95470  0.80450  Biso   1.000  H
  H15      1.0000 0.60720  0.54530  0.30450  Biso   1.000  H
  H16      1.0000 0.89280  0.04530  0.19550  Biso   1.000  H
  C13      1.0000 0.22060  0.44098  0.47410  Biso   1.000  C
  C14      1.0000 0.27940  0.94098  0.02590  Biso   1.000  C
  C15      1.0000 0.77940  0.55902  0.52590  Biso   1.000  C
  C16      1.0000 0.72060  0.05902  0.97410  Biso   1.000  C
  H17      1.0000 0.10990  0.44450  0.50050  Biso   1.000  H
  H18      1.0000 0.39010  0.94450  0.99950  Biso   1.000  H
  H19      1.0000 0.89010  0.55550  0.49950  Biso   1.000  H
  H20      1.0000 0.60990  0.05550  0.00050  Biso   1.000  H
  H21      1.0000 0.23450  0.48560  0.42330  Biso   1.000  H
  H22      1.0000 0.26550  0.98560  0.07670  Biso   1.000  H
  H23      1.0000 0.76550  0.51440  0.57670  Biso   1.000  H
  H24      1.0000 0.73450  0.01440  0.92330  Biso   1.000  H
  C17      1.0000 0.21810  0.37218  0.38090  Biso   1.000  C
  C18      1.0000 0.28190  0.87218  0.11910  Biso   1.000  C
  C19      1.0000 0.78190  0.62782  0.61910  Biso   1.000  C
  C20      1.0000 0.71810  0.12782  0.88090  Biso   1.000  C
  H25      1.0000 0.09740  0.36530  0.30550  Biso   1.000  H
  H26      1.0000 0.40260  0.86530  0.19450  Biso   1.000  H
  H27      1.0000 0.90260  0.63470  0.69450  Biso   1.000  H
  H28      1.0000 0.59740  0.13470  0.80550  Biso   1.000  H
  H29      1.0000 0.31040  0.37560  0.33320  Biso   1.000  H
  H30      1.0000 0.18960  0.87560  0.16680  Biso   1.000  H
  H31      1.0000 0.68960  0.62440  0.66680  Biso   1.000  H
  H32      1.0000 0.81040  0.12440  0.83320  Biso   1.000  H
  C21      1.0000 0.51090  0.07280  0.36800  Biso   1.000  C
  C22      1.0000 0.98910  0.57280  0.13200  Biso   1.000  C
  C23      1.0000 0.48910  0.92720  0.63200  Biso   1.000  C
  C24      1.0000 0.01090  0.42720  0.86800  Biso   1.000  C
  H33      1.0000 0.39250  0.05770  0.31050  Biso   1.000  H
  H34      1.0000 0.10750  0.55770  0.18950  Biso   1.000  H
  H35      1.0000 0.60750  0.94230  0.68950  Biso   1.000  H
  H36      1.0000 0.89250  0.44230  0.81050  Biso   1.000  H
  C25      1.0000 0.67140  0.03140  0.38900  Biso   1.000  C
  C26      1.0000 0.82860  0.53140  0.11100  Biso   1.000  C
  C27      1.0000 0.32860  0.96860  0.61100  Biso   1.000  C
  C28      1.0000 0.17140  0.46860  0.88900  Biso   1.000  C
  H37      1.0000 0.68070  0.98500  0.35080  Biso   1.000  H
  H38      1.0000 0.81930  0.48500  0.14920  Biso   1.000  H
  H39      1.0000 0.31930  0.01500  0.64920  Biso   1.000  H
  H40      1.0000 0.18070  0.51500  0.85080  Biso   1.000  H
  C29      1.0000 0.81250  0.07470  0.47890  Biso   1.000  C
  C30      1.0000 0.68750  0.57470  0.02110  Biso   1.000  C
  C31      1.0000 0.18750  0.92530  0.52110  Biso   1.000  C
  C32      1.0000 0.31250  0.42530  0.97890  Biso   1.000  C
  H41      1.0000 0.93780  0.06300  0.51330  Biso   1.000  H
  H42      1.0000 0.56220  0.56300  0.98670  Biso   1.000  H
  H43      1.0000 0.06220  0.93700  0.48670  Biso   1.000  H
  H44      1.0000 0.43780  0.43700  0.01330  Biso   1.000  H
