data_image0
_cell_length_a       10.4546
_cell_length_b       11.1659
_cell_length_c       12.8258
_cell_angle_alpha    110.214
_cell_angle_beta     95.78
_cell_angle_gamma    116.818

_symmetry_space_group_name_H-M    "P 1"
_symmetry_int_tables_number       1

loop_
  _symmetry_equiv_pos_as_xyz
  'x, y, z'

loop_
  _atom_site_label
  _atom_site_occupancy
  _atom_site_fract_x
  _atom_site_fract_y
  _atom_site_fract_z
  _atom_site_thermal_displace_type
  _atom_site_B_iso_or_equiv
  _atom_site_type_symbol
  Cu1      1.0000 0.39400  0.01890  0.46186  Biso   1.000  Cu
  Cu2      1.0000 0.60600  0.98110  0.53814  Biso   1.000  Cu
  O1       1.0000 0.55590  0.18200  0.44360  Biso   1.000  O
  O2       1.0000 0.44410  0.81800  0.55640  Biso   1.000  O
  C1       1.0000 0.69150  0.21900  0.47270  Biso   1.000  C
  C2       1.0000 0.30850  0.78100  0.52730  Biso   1.000  C
  O3       1.0000 0.74020  0.15330  0.51379  Biso   1.000  O
  O4       1.0000 0.25980  0.84670  0.48621  Biso   1.000  O
  C3       1.0000 0.80490  0.34850  0.45670  Biso   1.000  C
  C4       1.0000 0.19510  0.65150  0.54330  Biso   1.000  C
  H1       1.0000 0.83970  0.31020  0.39090  Biso   1.000  H
  H2       1.0000 0.16030  0.68980  0.60910  Biso   1.000  H
  H3       1.0000 0.89310  0.41400  0.52790  Biso   1.000  H
  H4       1.0000 0.10690  0.58600  0.47210  Biso   1.000  H
  C5       1.0000 0.74630  0.44080  0.43300  Biso   1.000  C
  C6       1.0000 0.25370  0.55920  0.56700  Biso   1.000  C
  H5       1.0000 0.70020  0.46920  0.49360  Biso   1.000  H
  H6       1.0000 0.29980  0.53080  0.50640  Biso   1.000  H
  H7       1.0000 0.83180  0.53390  0.43880  Biso   1.000  H
  H8       1.0000 0.16820  0.46610  0.56120  Biso   1.000  H
  N1       1.0000 0.63240  0.36020  0.31540  Biso   1.000  N
  N2       1.0000 0.36760  0.63980  0.68460  Biso   1.000  N
  H9       1.0000 0.67770  0.34630  0.25910  Biso   1.000  H
  H10      1.0000 0.32230  0.65370  0.74090  Biso   1.000  H
  H11      1.0000 0.59190  0.41540  0.30900  Biso   1.000  H
  H12      1.0000 0.40810  0.58460  0.69100  Biso   1.000  H
  H13      1.0000 0.55830  0.27000  0.30660  Biso   1.000  H
  H14      1.0000 0.44170  0.73000  0.69340  Biso   1.000  H
  O5       1.0000 0.43930  0.15170  0.62555  Biso   1.000  O
  O6       1.0000 0.56070  0.84830  0.37445  Biso   1.000  O
  C7       1.0000 0.54390  0.17920  0.70560  Biso   1.000  C
  C8       1.0000 0.45610  0.82080  0.29440  Biso   1.000  C
  O7       1.0000 0.62540  0.12220  0.69019  Biso   1.000  O
  O8       1.0000 0.37460  0.87780  0.30981  Biso   1.000  O
  C9       1.0000 0.57100  0.28330  0.82790  Biso   1.000  C
  C10      1.0000 0.42900  0.71670  0.17210  Biso   1.000  C
  H15      1.0000 0.47770  0.24110  0.84950  Biso   1.000  H
  H16      1.0000 0.52230  0.75890  0.15050  Biso   1.000  H
  H17      1.0000 0.59180  0.37990  0.82980  Biso   1.000  H
  H18      1.0000 0.40820  0.62010  0.17020  Biso   1.000  H
  C11      1.0000 0.70000  0.31260  0.91890  Biso   1.000  C
  C12      1.0000 0.30000  0.68740  0.08110  Biso   1.000  C
  H19      1.0000 0.79310  0.35000  0.89630  Biso   1.000  H
  H20      1.0000 0.20690  0.65000  0.10370  Biso   1.000  H
  H21      1.0000 0.71750  0.39050  0.99520  Biso   1.000  H
  H22      1.0000 0.28250  0.60950  0.00480  Biso   1.000  H
  N3       1.0000 0.66570  0.17410  0.93010  Biso   1.000  N
  N4       1.0000 0.33430  0.82590  0.06990  Biso   1.000  N
  H23      1.0000 0.57790  0.13750  0.94770  Biso   1.000  H
  H24      1.0000 0.42210  0.86250  0.05230  Biso   1.000  H
  H25      1.0000 0.74160  0.19510  0.98790  Biso   1.000  H
  H26      1.0000 0.25840  0.80490  0.01210  Biso   1.000  H
  H27      1.0000 0.65650  0.10490  0.86140  Biso   1.000  H
  H28      1.0000 0.34350  0.89510  0.13860  Biso   1.000  H
  V1       1.0000 0.20193  0.34229  0.23808  Biso   1.000  V
  V2       1.0000 0.79807  0.65771  0.76192  Biso   1.000  V
  V3       1.0000 0.17547  0.07654  0.27471  Biso   1.000  V
  V4       1.0000 0.82453  0.92346  0.72529  Biso   1.000  V
  V5       1.0000 0.01893  0.14371  0.97967  Biso   1.000  V
  V6       1.0000 0.98107  0.85629  0.02033  Biso   1.000  V
  V7       1.0000 0.88067  0.07061  0.17342  Biso   1.000  V
  V8       1.0000 0.11933  0.92939  0.82658  Biso   1.000  V
  V9       1.0000 0.30077  0.14068  0.07998  Biso   1.000  V
  V10      1.0000 0.69923  0.85932  0.92002  Biso   1.000  V
  O9       1.0000 0.28030  0.51950  0.31400  Biso   1.000  O
  O10      1.0000 0.71970  0.48050  0.68600  Biso   1.000  O
  O11      1.0000 0.11310  0.32300  0.08073  Biso   1.000  O
  O12      1.0000 0.88690  0.67700  0.91927  Biso   1.000  O
  O13      1.0000 0.35170  0.32780  0.17186  Biso   1.000  O
  O14      1.0000 0.64830  0.67220  0.82814  Biso   1.000  O
  O15      1.0000 0.24730  0.27610  0.34057  Biso   1.000  O
  O16      1.0000 0.75270  0.72390  0.65943  Biso   1.000  O
  O17      1.0000 0.00570  0.27180  0.24805  Biso   1.000  O
  O18      1.0000 0.99430  0.72820  0.75195  Biso   1.000  O
  O19      1.0000 0.32170  0.09350  0.20519  Biso   1.000  O
  O20      1.0000 0.67830  0.90650  0.79481  Biso   1.000  O
  O21      1.0000 0.22440  0.04720  0.38301  Biso   1.000  O
  O22      1.0000 0.77560  0.95280  0.61699  Biso   1.000  O
  O23      1.0000 0.97790  0.03810  0.28026  Biso   1.000  O
  O24      1.0000 0.02210  0.96190  0.71974  Biso   1.000  O
  O25      1.0000 0.72970  0.04560  0.20718  Biso   1.000  O
  O26      1.0000 0.27030  0.95440  0.79282  Biso   1.000  O
  O27      1.0000 0.94560  0.13840  0.85294  Biso   1.000  O
  O28      1.0000 0.05440  0.86160  0.14706  Biso   1.000  O
  O29      1.0000 0.19060  0.13650  0.94514  Biso   1.000  O
  O30      1.0000 0.80940  0.86350  0.05486  Biso   1.000  O
  O31      1.0000 0.45140  0.15980  0.04761  Biso   1.000  O
  O32      1.0000 0.54860  0.84020  0.95239  Biso   1.000  O
  O33      1.0000 0.08229  0.09040  0.11213  Biso   1.000  O
  O34      1.0000 0.91771  0.90960  0.88787  Biso   1.000  O
  O35      1.0000 0.83830  0.07990  0.02425  Biso   1.000  O
  O36      1.0000 0.16170  0.92010  0.97575  Biso   1.000  O
  O37      1.0000 0.40440  0.39350  0.58480  Biso   1.000  O
  O38      1.0000 0.59560  0.60650  0.41520  Biso   1.000  O
  O39      1.0000 0.02850  0.19580  0.51690  Biso   1.000  O
  O40      1.0000 0.97150  0.80420  0.48310  Biso   1.000  O
  H29      1.0000 0.01820  0.14470  0.44740  Biso   1.000  H
  H30      1.0000 0.98180  0.85530  0.55260  Biso   1.000  H
  H31      1.0000 0.94360  0.18200  0.52080  Biso   1.000  H
  H32      1.0000 0.05640  0.81800  0.47920  Biso   1.000  H
  O41      1.0000 0.41670  0.49510  0.90090  Biso   1.000  O
  O42      1.0000 0.58330  0.50490  0.09910  Biso   1.000  O
  O43      1.0000 0.35080  0.41400  0.92780  Biso   1.000  O
  O44      1.0000 0.64920  0.58600  0.07220  Biso   1.000  O
  O45      1.0000 0.17070  0.62570  0.81703  Biso   1.000  O
  O46      1.0000 0.82930  0.37430  0.18297  Biso   1.000  O
  O47      1.0000 0.02180  0.66780  0.24570  Biso   1.000  O
  O48      1.0000 0.97820  0.33220  0.75430  Biso   1.000  O
  N5       1.0000 0.21250  0.21730  0.69750  Biso   1.000  N
  N6       1.0000 0.78750  0.78270  0.30250  Biso   1.000  N
  H33      1.0000 0.47900  0.38100  0.58800  Biso   1.000  H
  H34      1.0000 0.52100  0.61900  0.41200  Biso   1.000  H
  H35      1.0000 0.35700  0.35500  0.51260  Biso   1.000  H
  H36      1.0000 0.64300  0.64500  0.48740  Biso   1.000  H
  H37      1.0000 0.11400  0.64600  0.78500  Biso   1.000  H
  H38      1.0000 0.88600  0.35400  0.21500  Biso   1.000  H
  H39      1.0000 0.11900  0.53230  0.79000  Biso   1.000  H
  H40      1.0000 0.88100  0.46770  0.21000  Biso   1.000  H
  H41      1.0000 0.11100  0.71100  0.28800  Biso   1.000  H
  H42      1.0000 0.88900  0.28900  0.71200  Biso   1.000  H
  H43      1.0000 0.02600  0.71600  0.20600  Biso   1.000  H
  H44      1.0000 0.97400  0.28400  0.79400  Biso   1.000  H
  H45      1.0000 0.25900  0.30400  0.76460  Biso   1.000  H
  H46      1.0000 0.74100  0.69600  0.23540  Biso   1.000  H
  H47      1.0000 0.15900  0.13600  0.70900  Biso   1.000  H
  H48      1.0000 0.84100  0.86400  0.29100  Biso   1.000  H
  H49      1.0000 0.15100  0.22200  0.64400  Biso   1.000  H
  H50      1.0000 0.84900  0.77800  0.35600  Biso   1.000  H
  H51      1.0000 0.28600  0.20900  0.66500  Biso   1.000  H
  H52      1.0000 0.71400  0.79100  0.33500  Biso   1.000  H
