data_image0
_cell_length_a       6.59
_cell_length_b       15.165
_cell_length_c       10.749
_cell_angle_alpha    90
_cell_angle_beta     95.244
_cell_angle_gamma    90

_symmetry_space_group_name_H-M    "P 1"
_symmetry_int_tables_number       1

loop_
  _symmetry_equiv_pos_as_xyz
  'x, y, z'

loop_
  _atom_site_label
  _atom_site_occupancy
  _atom_site_fract_x
  _atom_site_fract_y
  _atom_site_fract_z
  _atom_site_thermal_displace_type
  _atom_site_B_iso_or_equiv
  _atom_site_type_symbol
  C1       1.0000 0.86920  0.81993  0.50500  Biso   1.000  C
  C2       1.0000 0.13080  0.31993  0.49500  Biso   1.000  C
  H1       1.0000 0.95360  0.84450  0.57000  Biso   1.000  H
  H2       1.0000 0.04640  0.34450  0.43000  Biso   1.000  H
  C3       1.0000 0.92220  0.82867  0.38260  Biso   1.000  C
  C4       1.0000 0.07780  0.32867  0.61740  Biso   1.000  C
  H3       1.0000 0.04080  0.85830  0.36690  Biso   1.000  H
  H4       1.0000 0.95920  0.35830  0.63310  Biso   1.000  H
  C5       1.0000 0.79920  0.79351  0.28620  Biso   1.000  C
  C6       1.0000 0.20080  0.29351  0.71380  Biso   1.000  C
  H5       1.0000 0.83410  0.79900  0.20470  Biso   1.000  H
  H6       1.0000 0.16590  0.29900  0.79530  Biso   1.000  H
  C7       1.0000 0.61990  0.74901  0.31010  Biso   1.000  C
  C8       1.0000 0.38010  0.24901  0.68990  Biso   1.000  C
  C9       1.0000 0.47490  0.71054  0.21610  Biso   1.000  C
  C10      1.0000 0.52510  0.21054  0.78390  Biso   1.000  C
  H7       1.0000 0.49720  0.71560  0.13220  Biso   1.000  H
  H8       1.0000 0.50280  0.21560  0.86780  Biso   1.000  H
  C11      1.0000 0.30840  0.66765  0.24790  Biso   1.000  C
  C12      1.0000 0.69160  0.16765  0.75210  Biso   1.000  C
  H9       1.0000 0.21860  0.64340  0.18530  Biso   1.000  H
  H10      1.0000 0.78140  0.14340  0.81470  Biso   1.000  H
  C13      1.0000 0.26600  0.65841  0.37630  Biso   1.000  C
  C14      1.0000 0.73400  0.15841  0.62370  Biso   1.000  C
  C15      1.0000 0.10090  0.61105  0.41780  Biso   1.000  C
  C16      1.0000 0.89910  0.11105  0.58220  Biso   1.000  C
  H11      1.0000 0.00830  0.58280  0.36060  Biso   1.000  H
  H12      1.0000 0.99170  0.08280  0.63940  Biso   1.000  H
  C17      1.0000 0.07790  0.60707  0.54280  Biso   1.000  C
  C18      1.0000 0.92210  0.10707  0.45720  Biso   1.000  C
  H13      1.0000 0.96990  0.57580  0.57110  Biso   1.000  H
  H14      1.0000 0.03010  0.07580  0.42890  Biso   1.000  H
  C19      1.0000 0.21740  0.65023  0.62790  Biso   1.000  C
  C20      1.0000 0.78260  0.15023  0.37210  Biso   1.000  C
  H15      1.0000 0.19950  0.64730  0.71270  Biso   1.000  H
  H16      1.0000 0.80050  0.14730  0.28730  Biso   1.000  H
  C21      1.0000 0.40030  0.69806  0.46831  Biso   1.000  C
  C22      1.0000 0.59970  0.19806  0.53169  Biso   1.000  C
  C23      1.0000 0.57890  0.74318  0.43543  Biso   1.000  C
  C24      1.0000 0.42110  0.24318  0.56457  Biso   1.000  C
  C25      1.0000 0.00480  0.90548  0.94151  Biso   1.000  C
  C26      1.0000 0.99520  0.40548  0.05849  Biso   1.000  C
  H17      1.0000 0.92890  0.88140  0.00800  Biso   1.000  H
  H18      1.0000 0.07110  0.38140  0.99200  Biso   1.000  H
  C27      1.0000 0.03870  0.00356  0.97408  Biso   1.000  C
  C28      1.0000 0.96130  0.50356  0.02592  Biso   1.000  C
  H19      1.0000 0.91590  0.03820  0.94970  Biso   1.000  H
  H20      1.0000 0.08410  0.53820  0.05030  Biso   1.000  H
  C29      1.0000 0.09710  0.00950  0.11723  Biso   1.000  C
  C30      1.0000 0.90290  0.50950  0.88277  Biso   1.000  C
  H21      1.0000 0.97820  0.99190  0.15980  Biso   1.000  H
  H22      1.0000 0.02180  0.49190  0.84020  Biso   1.000  H
  C31      1.0000 0.26820  0.94109  0.14952  Biso   1.000  C
  C32      1.0000 0.73180  0.44109  0.85048  Biso   1.000  C
  H23      1.0000 0.19930  0.88730  0.17360  Biso   1.000  H
  H24      1.0000 0.80070  0.38730  0.82640  Biso   1.000  H
  C33      1.0000 0.36790  0.91758  0.02845  Biso   1.000  C
  C34      1.0000 0.63210  0.41758  0.97155  Biso   1.000  C
  H25      1.0000 0.49900  0.88790  0.04790  Biso   1.000  H
  H26      1.0000 0.50100  0.38790  0.95210  Biso   1.000  H
  C35      1.0000 0.21220  0.85576  0.95247  Biso   1.000  C
  C36      1.0000 0.78780  0.35576  0.04753  Biso   1.000  C
  H27      1.0000 0.19780  0.80140  0.00020  Biso   1.000  H
  H28      1.0000 0.80220  0.30140  0.99980  Biso   1.000  H
  C37      1.0000 0.39130  0.99816  0.94838  Biso   1.000  C
  C38      1.0000 0.60870  0.49816  0.05162  Biso   1.000  C
  H29      1.0000 0.51660  0.01680  0.92460  Biso   1.000  H
  H30      1.0000 0.48340  0.51680  0.07540  Biso   1.000  H
  C39      1.0000 0.21950  0.03987  0.91496  Biso   1.000  C
  C40      1.0000 0.78050  0.53987  0.08504  Biso   1.000  C
  H31      1.0000 0.21080  0.08730  0.86000  Biso   1.000  H
  H32      1.0000 0.78920  0.58730  0.14000  Biso   1.000  H
  C41      1.0000 0.87030  0.88961  0.82048  Biso   1.000  C
  C42      1.0000 0.12970  0.38961  0.17952  Biso   1.000  C
  C43      1.0000 0.29840  0.83259  0.82983  Biso   1.000  C
  C44      1.0000 0.70160  0.33259  0.17017  Biso   1.000  C
  C45      1.0000 0.42000  0.96369  0.25930  Biso   1.000  C
  C46      1.0000 0.58000  0.46369  0.74070  Biso   1.000  C
  C47      1.0000 0.15150  0.10347  0.15500  Biso   1.000  C
  C48      1.0000 0.84850  0.60347  0.84500  Biso   1.000  C
  N1       1.0000 0.70200  0.77771  0.53121  Biso   1.000  N
  N2       1.0000 0.29800  0.27771  0.46879  Biso   1.000  N
  N3       1.0000 0.37380  0.69509  0.59172  Biso   1.000  N
  N4       1.0000 0.62620  0.19509  0.40828  Biso   1.000  N
  O1       1.0000 0.79410  0.95074  0.75885  Biso   1.000  O
  O2       1.0000 0.20590  0.45074  0.24115  Biso   1.000  O
  O3       1.0000 0.83490  0.80701  0.79532  Biso   1.000  O
  O4       1.0000 0.16510  0.30701  0.20468  Biso   1.000  O
  O5       1.0000 0.45700  0.98510  0.59374  Biso   1.000  O
  O6       1.0000 0.54300  0.48510  0.40626  Biso   1.000  O
  O7       1.0000 0.44010  0.77476  0.84210  Biso   1.000  O
  O8       1.0000 0.55990  0.27476  0.15790  Biso   1.000  O
  O9       1.0000 0.23810  0.86940  0.73066  Biso   1.000  O
  O10      1.0000 0.76190  0.36940  0.26934  Biso   1.000  O
  O11      1.0000 0.32900  0.95633  0.36461  Biso   1.000  O
  O12      1.0000 0.67100  0.45633  0.63539  Biso   1.000  O
  H33      1.0000 0.41050  0.96850  0.42440  Biso   1.000  H
  H34      1.0000 0.58950  0.46850  0.57560  Biso   1.000  H
  O13      1.0000 0.59750  0.97879  0.25429  Biso   1.000  O
  O14      1.0000 0.40250  0.47879  0.74571  Biso   1.000  O
  O15      1.0000 0.28190  0.12253  0.23587  Biso   1.000  O
  O16      1.0000 0.71810  0.62253  0.76413  Biso   1.000  O
  O17      1.0000 0.03450  0.16299  0.09436  Biso   1.000  O
  O18      1.0000 0.96550  0.66299  0.90564  Biso   1.000  O
  H35      1.0000 0.07030  0.21250  0.11810  Biso   1.000  H
  H36      1.0000 0.92970  0.71250  0.88190  Biso   1.000  H
  Cu1      1.0000 0.59195  0.76054  0.69756  Biso   1.000  Cu
  Cu2      1.0000 0.40805  0.26054  0.30244  Biso   1.000  Cu
  H37      1.0000 0.37800  0.95200  0.62500  Biso   1.000  H
  H38      1.0000 0.62200  0.45200  0.37500  Biso   1.000  H
  H39      1.0000 0.57500  0.96900  0.61300  Biso   1.000  H
  H40      1.0000 0.42500  0.46900  0.38700  Biso   1.000  H
