data_image0
_cell_length_a       13.1807
_cell_length_b       8.2656
_cell_length_c       16.1195
_cell_angle_alpha    90
_cell_angle_beta     110.606
_cell_angle_gamma    90

_symmetry_space_group_name_H-M    "P 1"
_symmetry_int_tables_number       1

loop_
  _symmetry_equiv_pos_as_xyz
  'x, y, z'

loop_
  _atom_site_label
  _atom_site_occupancy
  _atom_site_fract_x
  _atom_site_fract_y
  _atom_site_fract_z
  _atom_site_thermal_displace_type
  _atom_site_B_iso_or_equiv
  _atom_site_type_symbol
  Cu1      1.0000 0.36470  0.28840  0.16757  Biso   1.000  Cu
  Cu2      1.0000 0.63530  0.78840  0.33243  Biso   1.000  Cu
  Cu3      1.0000 0.63530  0.71160  0.83243  Biso   1.000  Cu
  Cu4      1.0000 0.36470  0.21160  0.66757  Biso   1.000  Cu
  Cl1      1.0000 0.17905  0.19812  0.93803  Biso   1.000  Cl
  Cl2      1.0000 0.82095  0.69812  0.56197  Biso   1.000  Cl
  Cl3      1.0000 0.82095  0.80188  0.06197  Biso   1.000  Cl
  Cl4      1.0000 0.17905  0.30188  0.43803  Biso   1.000  Cl
  O1       1.0000 0.43017  0.07522  0.20438  Biso   1.000  O
  O2       1.0000 0.56983  0.57522  0.29562  Biso   1.000  O
  O3       1.0000 0.56983  0.92478  0.79562  Biso   1.000  O
  O4       1.0000 0.43017  0.42478  0.70438  Biso   1.000  O
  O5       1.0000 0.55154  0.90330  0.18782  Biso   1.000  O
  O6       1.0000 0.44846  0.40330  0.31218  Biso   1.000  O
  O7       1.0000 0.44846  0.09670  0.81218  Biso   1.000  O
  O8       1.0000 0.55154  0.59670  0.68782  Biso   1.000  O
  O9       1.0000 0.28355  0.15560  0.00253  Biso   1.000  O
  O10      1.0000 0.71645  0.65560  0.49747  Biso   1.000  O
  O11      1.0000 0.71645  0.84440  0.99747  Biso   1.000  O
  O12      1.0000 0.28355  0.34440  0.50253  Biso   1.000  O
  O13      1.0000 0.16505  0.11970  0.85561  Biso   1.000  O
  O14      1.0000 0.83495  0.61970  0.64439  Biso   1.000  O
  O15      1.0000 0.83495  0.88030  0.14439  Biso   1.000  O
  O16      1.0000 0.16505  0.38030  0.35561  Biso   1.000  O
  O17      1.0000 0.17426  0.37050  0.92577  Biso   1.000  O
  O18      1.0000 0.82574  0.87050  0.57423  Biso   1.000  O
  O19      1.0000 0.82574  0.62950  0.07423  Biso   1.000  O
  O20      1.0000 0.17426  0.12950  0.42577  Biso   1.000  O
  O21      1.0000 0.09645  0.14660  0.97117  Biso   1.000  O
  O22      1.0000 0.90355  0.64660  0.52883  Biso   1.000  O
  O23      1.0000 0.90355  0.85340  0.02883  Biso   1.000  O
  O24      1.0000 0.09645  0.35340  0.47117  Biso   1.000  O
  N1       1.0000 0.28664  0.49720  0.12453  Biso   1.000  N
  N2       1.0000 0.71336  0.99720  0.37547  Biso   1.000  N
  N3       1.0000 0.71336  0.50280  0.87547  Biso   1.000  N
  N4       1.0000 0.28664  0.00280  0.62453  Biso   1.000  N
  N5       1.0000 0.22426  0.23340  0.18192  Biso   1.000  N
  N6       1.0000 0.77574  0.73340  0.31808  Biso   1.000  N
  N7       1.0000 0.77574  0.76660  0.81808  Biso   1.000  N
  N8       1.0000 0.22426  0.26660  0.68192  Biso   1.000  N
  N9       1.0000 0.49264  0.32470  0.13184  Biso   1.000  N
  N10      1.0000 0.50736  0.82470  0.36816  Biso   1.000  N
  N11      1.0000 0.50736  0.67530  0.86816  Biso   1.000  N
  N12      1.0000 0.49264  0.17530  0.63184  Biso   1.000  N
  C1       1.0000 0.32627  0.62920  0.09841  Biso   1.000  C
  C2       1.0000 0.67373  0.12920  0.40159  Biso   1.000  C
  C3       1.0000 0.67373  0.37080  0.90159  Biso   1.000  C
  C4       1.0000 0.32627  0.87080  0.59841  Biso   1.000  C
  C5       1.0000 0.26440  0.76690  0.06765  Biso   1.000  C
  C6       1.0000 0.73560  0.26690  0.43235  Biso   1.000  C
  C7       1.0000 0.73560  0.23310  0.93235  Biso   1.000  C
  C8       1.0000 0.26440  0.73310  0.56765  Biso   1.000  C
  C9       1.0000 0.15790  0.76820  0.06305  Biso   1.000  C
  C10      1.0000 0.84210  0.26820  0.43695  Biso   1.000  C
  C11      1.0000 0.84210  0.23180  0.93695  Biso   1.000  C
  C12      1.0000 0.15790  0.73180  0.56305  Biso   1.000  C
  C13      1.0000 0.11629  0.63310  0.09049  Biso   1.000  C
  C14      1.0000 0.88371  0.13310  0.40951  Biso   1.000  C
  C15      1.0000 0.88371  0.36690  0.90951  Biso   1.000  C
  C16      1.0000 0.11629  0.86690  0.59049  Biso   1.000  C
  C17      1.0000 0.18218  0.49850  0.12098  Biso   1.000  C
  C18      1.0000 0.81782  0.99850  0.37902  Biso   1.000  C
  C19      1.0000 0.81782  0.50150  0.87902  Biso   1.000  C
  C20      1.0000 0.18218  0.00150  0.62098  Biso   1.000  C
  C21      1.0000 0.19879  0.09070  0.20930  Biso   1.000  C
  C22      1.0000 0.80121  0.59070  0.29070  Biso   1.000  C
  C23      1.0000 0.80121  0.90930  0.79070  Biso   1.000  C
  C24      1.0000 0.19879  0.40930  0.70930  Biso   1.000  C
  C25      1.0000 0.09460  0.05580  0.20633  Biso   1.000  C
  C26      1.0000 0.90540  0.55580  0.29367  Biso   1.000  C
  C27      1.0000 0.90540  0.94420  0.79367  Biso   1.000  C
  C28      1.0000 0.09460  0.44420  0.70633  Biso   1.000  C
  C29      1.0000 0.01505  0.17150  0.17510  Biso   1.000  C
  C30      1.0000 0.98495  0.67150  0.32490  Biso   1.000  C
  C31      1.0000 0.98495  0.82850  0.82490  Biso   1.000  C
  C32      1.0000 0.01505  0.32850  0.67510  Biso   1.000  C
  C33      1.0000 0.04044  0.31980  0.14800  Biso   1.000  C
  C34      1.0000 0.95956  0.81980  0.35200  Biso   1.000  C
  C35      1.0000 0.95956  0.68020  0.85200  Biso   1.000  C
  C36      1.0000 0.04044  0.18020  0.64800  Biso   1.000  C
  C37      1.0000 0.14634  0.34740  0.15143  Biso   1.000  C
  C38      1.0000 0.85366  0.84740  0.34857  Biso   1.000  C
  C39      1.0000 0.85366  0.65260  0.84857  Biso   1.000  C
  C40      1.0000 0.14634  0.15260  0.65143  Biso   1.000  C
  C41      1.0000 0.50804  0.03900  0.17798  Biso   1.000  C
  C42      1.0000 0.49196  0.53900  0.32202  Biso   1.000  C
  C43      1.0000 0.49196  0.96100  0.82202  Biso   1.000  C
  C44      1.0000 0.50804  0.46100  0.67798  Biso   1.000  C
  C45      1.0000 0.54660  0.16930  0.12787  Biso   1.000  C
  C46      1.0000 0.45340  0.66930  0.37213  Biso   1.000  C
  C47      1.0000 0.45340  0.83070  0.87213  Biso   1.000  C
  C48      1.0000 0.54660  0.33070  0.62787  Biso   1.000  C
  C49      1.0000 0.66660  0.18140  0.15520  Biso   1.000  C
  C50      1.0000 0.33340  0.68140  0.34480  Biso   1.000  C
  C51      1.0000 0.33340  0.81860  0.84480  Biso   1.000  C
  C52      1.0000 0.66660  0.31860  0.65520  Biso   1.000  C
  H1       1.0000 0.48200  0.35700  0.08700  Biso   1.000  H
  H2       1.0000 0.51800  0.85700  0.41300  Biso   1.000  H
  H3       1.0000 0.51800  0.64300  0.91300  Biso   1.000  H
  H4       1.0000 0.48200  0.14300  0.58700  Biso   1.000  H
  H5       1.0000 0.53600  0.38400  0.17000  Biso   1.000  H
  H6       1.0000 0.46400  0.88400  0.33000  Biso   1.000  H
  H7       1.0000 0.46400  0.61600  0.83000  Biso   1.000  H
  H8       1.0000 0.53600  0.11600  0.67000  Biso   1.000  H
  H9       1.0000 0.39800  0.62800  0.10130  Biso   1.000  H
  H10      1.0000 0.60200  0.12800  0.39870  Biso   1.000  H
  H11      1.0000 0.60200  0.37200  0.89870  Biso   1.000  H
  H12      1.0000 0.39800  0.87200  0.60130  Biso   1.000  H
  H13      1.0000 0.29300  0.84400  0.04880  Biso   1.000  H
  H14      1.0000 0.70700  0.34400  0.45120  Biso   1.000  H
  H15      1.0000 0.70700  0.15600  0.95120  Biso   1.000  H
  H16      1.0000 0.29300  0.65600  0.54880  Biso   1.000  H
  H17      1.0000 0.11600  0.85500  0.04190  Biso   1.000  H
  H18      1.0000 0.88400  0.35500  0.45810  Biso   1.000  H
  H19      1.0000 0.88400  0.14500  0.95810  Biso   1.000  H
  H20      1.0000 0.11600  0.64500  0.54190  Biso   1.000  H
  H21      1.0000 0.04900  0.63400  0.08730  Biso   1.000  H
  H22      1.0000 0.95100  0.13400  0.41270  Biso   1.000  H
  H23      1.0000 0.95100  0.36600  0.91270  Biso   1.000  H
  H24      1.0000 0.04900  0.86600  0.58730  Biso   1.000  H
  H25      1.0000 0.25700  0.01400  0.23130  Biso   1.000  H
  H26      1.0000 0.74300  0.51400  0.26870  Biso   1.000  H
  H27      1.0000 0.74300  0.98600  0.76870  Biso   1.000  H
  H28      1.0000 0.25700  0.48600  0.73130  Biso   1.000  H
  H29      1.0000 0.08200  0.95700  0.22440  Biso   1.000  H
  H30      1.0000 0.91800  0.45700  0.27560  Biso   1.000  H
  H31      1.0000 0.91800  0.04300  0.77560  Biso   1.000  H
  H32      1.0000 0.08200  0.54300  0.72440  Biso   1.000  H
  H33      1.0000 0.94300  0.15100  0.17130  Biso   1.000  H
  H34      1.0000 0.05700  0.65100  0.32870  Biso   1.000  H
  H35      1.0000 0.05700  0.84900  0.82870  Biso   1.000  H
  H36      1.0000 0.94300  0.34900  0.67130  Biso   1.000  H
  H37      1.0000 0.98600  0.40100  0.12420  Biso   1.000  H
  H38      1.0000 0.01400  0.90100  0.37580  Biso   1.000  H
  H39      1.0000 0.01400  0.59900  0.87580  Biso   1.000  H
  H40      1.0000 0.98600  0.09900  0.62420  Biso   1.000  H
  H41      1.0000 0.53900  0.12400  0.05900  Biso   1.000  H
  H42      1.0000 0.46100  0.62400  0.44100  Biso   1.000  H
  H43      1.0000 0.46100  0.87600  0.94100  Biso   1.000  H
  H44      1.0000 0.53900  0.37600  0.55900  Biso   1.000  H
  H45      1.0000 0.69100  0.26100  0.11600  Biso   1.000  H
  H46      1.0000 0.30900  0.76100  0.38400  Biso   1.000  H
  H47      1.0000 0.30900  0.73900  0.88400  Biso   1.000  H
  H48      1.0000 0.69100  0.23900  0.61600  Biso   1.000  H
  H49      1.0000 0.69900  0.07200  0.14500  Biso   1.000  H
  H50      1.0000 0.30100  0.57200  0.35500  Biso   1.000  H
  H51      1.0000 0.30100  0.92800  0.85500  Biso   1.000  H
  H52      1.0000 0.69900  0.42800  0.64500  Biso   1.000  H
  H53      1.0000 0.69100  0.22500  0.22800  Biso   1.000  H
  H54      1.0000 0.30900  0.72500  0.27200  Biso   1.000  H
  H55      1.0000 0.30900  0.77500  0.77200  Biso   1.000  H
  H56      1.0000 0.69100  0.27500  0.72800  Biso   1.000  H
  O25      1.0000 0.41740  0.13910  0.41504  Biso   1.000  O
  O26      1.0000 0.58260  0.63910  0.08496  Biso   1.000  O
  O27      1.0000 0.58260  0.86090  0.58496  Biso   1.000  O
  O28      1.0000 0.41740  0.36090  0.91504  Biso   1.000  O
  H57      1.0000 0.41800  0.22000  0.38900  Biso   1.000  H
  H58      1.0000 0.58200  0.72000  0.11100  Biso   1.000  H
  H59      1.0000 0.58200  0.78000  0.61100  Biso   1.000  H
  H60      1.0000 0.41800  0.28000  0.88900  Biso   1.000  H
  H61      1.0000 0.36700  0.14200  0.41900  Biso   1.000  H
  H62      1.0000 0.63300  0.64200  0.08100  Biso   1.000  H
  H63      1.0000 0.63300  0.85800  0.58100  Biso   1.000  H
  H64      1.0000 0.36700  0.35800  0.91900  Biso   1.000  H
