data_image0
_cell_length_a       5.2143
_cell_length_b       7.0214
_cell_length_c       10.6476
_cell_angle_alpha    105.144
_cell_angle_beta     100
_cell_angle_gamma    93.958

_symmetry_space_group_name_H-M    "P 1"
_symmetry_int_tables_number       1

loop_
  _symmetry_equiv_pos_as_xyz
  'x, y, z'

loop_
  _atom_site_label
  _atom_site_occupancy
  _atom_site_fract_x
  _atom_site_fract_y
  _atom_site_fract_z
  _atom_site_thermal_displace_type
  _atom_site_B_iso_or_equiv
  _atom_site_type_symbol
  C1       1.0000 0.63010  0.48780  0.48230  Biso   1.000  C
  C2       1.0000 0.36990  0.51220  0.51770  Biso   1.000  C
  H1       1.0000 0.76020  0.59210  0.54220  Biso   1.000  H
  H2       1.0000 0.23980  0.40790  0.45780  Biso   1.000  H
  H3       1.0000 0.62430  0.49720  0.39260  Biso   1.000  H
  H4       1.0000 0.37570  0.50280  0.60740  Biso   1.000  H
  C3       1.0000 0.47460  0.41630  0.52980  Biso   1.000  C
  C4       1.0000 0.52540  0.58370  0.47020  Biso   1.000  C
  H5       1.0000 0.29880  0.34850  0.49170  Biso   1.000  H
  H6       1.0000 0.70120  0.65150  0.50830  Biso   1.000  H
  H7       1.0000 0.48900  0.46800  0.62490  Biso   1.000  H
  H8       1.0000 0.51100  0.53200  0.37510  Biso   1.000  H
  Cu1      1.0000 0.00000  0.00000  0.00000  Biso   1.000  Cu
  S1       1.0000 0.69970  0.87983  0.26648  Biso   1.000  S
  S2       1.0000 0.30030  0.12017  0.73352  Biso   1.000  S
  S3       1.0000 0.72070  0.23982  0.49437  Biso   1.000  S
  S4       1.0000 0.27930  0.76018  0.50563  Biso   1.000  S
  O1       1.0000 0.20240  0.36680  0.05760  Biso   1.000  O
  O2       1.0000 0.79760  0.63320  0.94240  Biso   1.000  O
  O3       1.0000 0.03930  0.53520  0.21880  Biso   1.000  O
  O4       1.0000 0.96070  0.46480  0.78120  Biso   1.000  O
  O5       1.0000 0.88990  0.22550  0.12440  Biso   1.000  O
  O6       1.0000 0.11010  0.77450  0.87560  Biso   1.000  O
  N1       1.0000 0.04910  0.38290  0.13530  Biso   1.000  N
  N2       1.0000 0.95090  0.61710  0.86470  Biso   1.000  N
  N3       1.0000 0.30110  0.98330  0.14090  Biso   1.000  N
  N4       1.0000 0.69890  0.01670  0.85910  Biso   1.000  N
  N5       1.0000 0.36720  0.13120  0.26050  Biso   1.000  N
  N6       1.0000 0.63280  0.86880  0.73950  Biso   1.000  N
  C5       1.0000 0.45540  0.84370  0.13210  Biso   1.000  C
  C6       1.0000 0.54460  0.15630  0.86790  Biso   1.000  C
  H9       1.0000 0.43300  0.73370  0.05830  Biso   1.000  H
  H10      1.0000 0.56700  0.26630  0.94170  Biso   1.000  H
  C7       1.0000 0.57160  0.09580  0.33530  Biso   1.000  C
  C8       1.0000 0.42840  0.90420  0.66470  Biso   1.000  C
