data_image0
_cell_length_a       10.2348
_cell_length_b       9.1386
_cell_length_c       14.8521
_cell_angle_alpha    90
_cell_angle_beta     97.455
_cell_angle_gamma    90

_symmetry_space_group_name_H-M    "P 1"
_symmetry_int_tables_number       1

loop_
  _symmetry_equiv_pos_as_xyz
  'x, y, z'

loop_
  _atom_site_label
  _atom_site_occupancy
  _atom_site_fract_x
  _atom_site_fract_y
  _atom_site_fract_z
  _atom_site_thermal_displace_type
  _atom_site_B_iso_or_equiv
  _atom_site_type_symbol
  Hg1      1.0000 0.63262  0.93482  0.34485  Biso   1.000  Hg
  Hg2      1.0000 0.36738  0.43482  0.65515  Biso   1.000  Hg
  Hg3      1.0000 0.36264  0.82033  0.15129  Biso   1.000  Hg
  Hg4      1.0000 0.63736  0.32033  0.84871  Biso   1.000  Hg
  Cu1      1.0000 0.49015  0.37889  0.25574  Biso   1.000  Cu
  Cu2      1.0000 0.50985  0.87889  0.74426  Biso   1.000  Cu
  Cl1      1.0000 0.52320  0.01770  0.46577  Biso   1.000  Cl
  Cl2      1.0000 0.47680  0.51770  0.53423  Biso   1.000  Cl
  Cl3      1.0000 0.84010  0.88000  0.30212  Biso   1.000  Cl
  Cl4      1.0000 0.15990  0.38000  0.69788  Biso   1.000  Cl
  Cl5      1.0000 0.52160  0.06300  0.19286  Biso   1.000  Cl
  Cl6      1.0000 0.47840  0.56300  0.80714  Biso   1.000  Cl
  Cl7      1.0000 0.47240  0.69170  0.30469  Biso   1.000  Cl
  Cl8      1.0000 0.52760  0.19170  0.69531  Biso   1.000  Cl
  Cl9      1.0000 0.15380  0.86570  0.19449  Biso   1.000  Cl
  Cl10     1.0000 0.84620  0.36570  0.80551  Biso   1.000  Cl
  Cl11     1.0000 0.47530  0.73520  0.03237  Biso   1.000  Cl
  Cl12     1.0000 0.52470  0.23520  0.96763  Biso   1.000  Cl
  O1       1.0000 0.65790  0.36590  0.33450  Biso   1.000  O
  O2       1.0000 0.34210  0.86590  0.66550  Biso   1.000  O
  O3       1.0000 0.87260  0.41030  0.33600  Biso   1.000  O
  O4       1.0000 0.12740  0.91030  0.66400  Biso   1.000  O
  O5       1.0000 0.31970  0.38640  0.17760  Biso   1.000  O
  O6       1.0000 0.68030  0.88640  0.82240  Biso   1.000  O
  O7       1.0000 0.11390  0.31020  0.16830  Biso   1.000  O
  O8       1.0000 0.88610  0.81020  0.83170  Biso   1.000  O
  N1       1.0000 0.59690  0.44610  0.16060  Biso   1.000  N
  N2       1.0000 0.40310  0.94610  0.83940  Biso   1.000  N
  N3       1.0000 0.05640  0.52930  0.02410  Biso   1.000  N
  N4       1.0000 0.94360  0.02930  0.97590  Biso   1.000  N
  N5       1.0000 0.24450  0.43850  0.97580  Biso   1.000  N
  N6       1.0000 0.75550  0.93850  0.02420  Biso   1.000  N
  N7       1.0000 0.10960  0.59140  0.88040  Biso   1.000  N
  N8       1.0000 0.89040  0.09140  0.11960  Biso   1.000  N
  N9       1.0000 0.38120  0.31210  0.34850  Biso   1.000  N
  N10      1.0000 0.61880  0.81210  0.65150  Biso   1.000  N
  N11      1.0000 0.93870  0.20670  0.48470  Biso   1.000  N
  N12      1.0000 0.06130  0.70670  0.51530  Biso   1.000  N
  N13      1.0000 0.88510  0.13720  0.62410  Biso   1.000  N
  N14      1.0000 0.11490  0.63720  0.37590  Biso   1.000  N
  N15      1.0000 0.75230  0.29370  0.53440  Biso   1.000  N
  N16      1.0000 0.24770  0.79370  0.46560  Biso   1.000  N
  C1       1.0000 0.76010  0.39750  0.29540  Biso   1.000  C
  C2       1.0000 0.23990  0.89750  0.70460  Biso   1.000  C
  C3       1.0000 0.73900  0.41210  0.19140  Biso   1.000  C
  C4       1.0000 0.26100  0.91210  0.80860  Biso   1.000  C
  C5       1.0000 0.83430  0.51740  0.15610  Biso   1.000  C
  C6       1.0000 0.16570  0.01740  0.84390  Biso   1.000  C
  C7       1.0000 0.82470  0.51840  0.05190  Biso   1.000  C
  C8       1.0000 0.17530  0.01840  0.94810  Biso   1.000  C
  C9       1.0000 0.93050  0.60790  0.01600  Biso   1.000  C
  C10      1.0000 0.06950  0.10790  0.98400  Biso   1.000  C
  C11      1.0000 0.13520  0.52030  0.95910  Biso   1.000  C
  C12      1.0000 0.86480  0.02030  0.04090  Biso   1.000  C
  C13      1.0000 0.22810  0.31860  0.20980  Biso   1.000  C
  C14      1.0000 0.77190  0.81860  0.79020  Biso   1.000  C
  C15      1.0000 0.26000  0.24170  0.30110  Biso   1.000  C
  C16      1.0000 0.74000  0.74170  0.69890  Biso   1.000  C
  C17      1.0000 0.14320  0.23250  0.35370  Biso   1.000  C
  C18      1.0000 0.85680  0.73250  0.64630  Biso   1.000  C
  C19      1.0000 0.17110  0.18430  0.44790  Biso   1.000  C
  C20      1.0000 0.82890  0.68430  0.55210  Biso   1.000  C
  C21      1.0000 0.05600  0.11210  0.48930  Biso   1.000  C
  C22      1.0000 0.94400  0.61210  0.51070  Biso   1.000  C
  C23      1.0000 0.86080  0.21000  0.54740  Biso   1.000  C
  C24      1.0000 0.13920  0.71000  0.45260  Biso   1.000  C
  H1       1.0000 0.57020  0.40010  0.10780  Biso   1.000  H
  H2       1.0000 0.42980  0.90010  0.89220  Biso   1.000  H
  H3       1.0000 0.58640  0.54300  0.15170  Biso   1.000  H
  H4       1.0000 0.41360  0.04300  0.84830  Biso   1.000  H
  H5       1.0000 0.75630  0.31550  0.16680  Biso   1.000  H
  H6       1.0000 0.24370  0.81550  0.83320  Biso   1.000  H
  H7       1.0000 0.08160  0.48540  0.07460  Biso   1.000  H
  H8       1.0000 0.91840  0.98540  0.92540  Biso   1.000  H
  H9       1.0000 0.92340  0.49120  0.18140  Biso   1.000  H
  H10      1.0000 0.07660  0.99120  0.81860  Biso   1.000  H
  H11      1.0000 0.81700  0.61530  0.17690  Biso   1.000  H
  H12      1.0000 0.18300  0.11530  0.82310  Biso   1.000  H
  H13      1.0000 0.29790  0.43200  0.93580  Biso   1.000  H
  H14      1.0000 0.70210  0.93200  0.06420  Biso   1.000  H
  H15      1.0000 0.26120  0.39250  0.02650  Biso   1.000  H
  H16      1.0000 0.73880  0.89250  0.97350  Biso   1.000  H
  H17      1.0000 0.83010  0.41840  0.03080  Biso   1.000  H
  H18      1.0000 0.16990  0.91840  0.96920  Biso   1.000  H
  H19      1.0000 0.73930  0.55670  0.02700  Biso   1.000  H
  H20      1.0000 0.26070  0.05670  0.97300  Biso   1.000  H
  H21      1.0000 0.04040  0.64540  0.87000  Biso   1.000  H
  H22      1.0000 0.95960  0.14540  0.13000  Biso   1.000  H
  H23      1.0000 0.16230  0.58330  0.84000  Biso   1.000  H
  H24      1.0000 0.83770  0.08330  0.16000  Biso   1.000  H
  H25      1.0000 0.90290  0.63130  0.95270  Biso   1.000  H
  H26      1.0000 0.09710  0.13130  0.04730  Biso   1.000  H
  H27      1.0000 0.94220  0.69910  0.04940  Biso   1.000  H
  H28      1.0000 0.05780  0.19910  0.95060  Biso   1.000  H
  H29      1.0000 0.42660  0.24750  0.38620  Biso   1.000  H
  H30      1.0000 0.57340  0.74750  0.61380  Biso   1.000  H
  H31      1.0000 0.35930  0.38870  0.38160  Biso   1.000  H
  H32      1.0000 0.64070  0.88870  0.61840  Biso   1.000  H
  H33      1.0000 0.28400  0.14090  0.28790  Biso   1.000  H
  H34      1.0000 0.71600  0.64090  0.71210  Biso   1.000  H
  H35      1.0000 0.92080  0.26270  0.43820  Biso   1.000  H
  H36      1.0000 0.07920  0.76270  0.56180  Biso   1.000  H
  H37      1.0000 0.10230  0.32830  0.35310  Biso   1.000  H
  H38      1.0000 0.89770  0.82830  0.64690  Biso   1.000  H
  H39      1.0000 0.07920  0.16600  0.32200  Biso   1.000  H
  H40      1.0000 0.92080  0.66600  0.67800  Biso   1.000  H
  H41      1.0000 0.95500  0.08450  0.63460  Biso   1.000  H
  H42      1.0000 0.04500  0.58450  0.36540  Biso   1.000  H
  H43      1.0000 0.83100  0.14240  0.66380  Biso   1.000  H
  H44      1.0000 0.16900  0.64240  0.33620  Biso   1.000  H
  H45      1.0000 0.20080  0.26830  0.48490  Biso   1.000  H
  H46      1.0000 0.79920  0.76830  0.51510  Biso   1.000  H
  H47      1.0000 0.24350  0.11510  0.45220  Biso   1.000  H
  H48      1.0000 0.75650  0.61510  0.54780  Biso   1.000  H
  H49      1.0000 0.73530  0.34400  0.48530  Biso   1.000  H
  H50      1.0000 0.26470  0.84400  0.51470  Biso   1.000  H
  H51      1.0000 0.69980  0.29720  0.57510  Biso   1.000  H
  H52      1.0000 0.30020  0.79720  0.42490  Biso   1.000  H
  H53      1.0000 0.03210  0.02160  0.45720  Biso   1.000  H
  H54      1.0000 0.96790  0.52160  0.54280  Biso   1.000  H
  H55      1.0000 0.08510  0.08790  0.55230  Biso   1.000  H
  H56      1.0000 0.91490  0.58790  0.44770  Biso   1.000  H
