data_image0
_cell_length_a       10.42
_cell_length_b       13.118
_cell_length_c       14.863
_cell_angle_alpha    90
_cell_angle_beta     93.05
_cell_angle_gamma    90

_symmetry_space_group_name_H-M    "P 1"
_symmetry_int_tables_number       1

loop_
  _symmetry_equiv_pos_as_xyz
  'x, y, z'

loop_
  _atom_site_label
  _atom_site_occupancy
  _atom_site_fract_x
  _atom_site_fract_y
  _atom_site_fract_z
  _atom_site_thermal_displace_type
  _atom_site_B_iso_or_equiv
  _atom_site_type_symbol
  Cu1      1.0000 0.34086  0.05653  0.13134  Biso   1.000  Cu
  Cu2      1.0000 0.65914  0.55653  0.36866  Biso   1.000  Cu
  Cu3      1.0000 0.65914  0.94347  0.86866  Biso   1.000  Cu
  Cu4      1.0000 0.34086  0.44347  0.63134  Biso   1.000  Cu
  Cu5      1.0000 0.44558  0.91352  0.42263  Biso   1.000  Cu
  Cu6      1.0000 0.55442  0.41352  0.07737  Biso   1.000  Cu
  Cu7      1.0000 0.55442  0.08648  0.57737  Biso   1.000  Cu
  Cu8      1.0000 0.44558  0.58648  0.92263  Biso   1.000  Cu
  Cl1      1.0000 0.00600  0.16870  0.37480  Biso   1.000  Cl
  Cl2      1.0000 0.99400  0.66870  0.12520  Biso   1.000  Cl
  Cl3      1.0000 0.99400  0.83130  0.62520  Biso   1.000  Cl
  Cl4      1.0000 0.00600  0.33130  0.87480  Biso   1.000  Cl
  O1       1.0000 0.50780  0.05370  0.41710  Biso   1.000  O
  O2       1.0000 0.49220  0.55370  0.08290  Biso   1.000  O
  O3       1.0000 0.49220  0.94630  0.58290  Biso   1.000  O
  O4       1.0000 0.50780  0.44630  0.91710  Biso   1.000  O
  O5       1.0000 0.37430  0.07750  0.29760  Biso   1.000  O
  O6       1.0000 0.62570  0.57750  0.20240  Biso   1.000  O
  O7       1.0000 0.62570  0.92250  0.70240  Biso   1.000  O
  O8       1.0000 0.37430  0.42250  0.79760  Biso   1.000  O
  O9       1.0000 0.37810  0.35660  0.08780  Biso   1.000  O
  O10      1.0000 0.62190  0.85660  0.41220  Biso   1.000  O
  O11      1.0000 0.62190  0.64340  0.91220  Biso   1.000  O
  O12      1.0000 0.37810  0.14340  0.58780  Biso   1.000  O
  O13      1.0000 0.52100  0.11290  0.11430  Biso   1.000  O
  O14      1.0000 0.47900  0.61290  0.38570  Biso   1.000  O
  O15      1.0000 0.47900  0.88710  0.88570  Biso   1.000  O
  O16      1.0000 0.52100  0.38710  0.61430  Biso   1.000  O
  O17      1.0000 0.28970  0.99650  0.97790  Biso   1.000  O
  O18      1.0000 0.71030  0.49650  0.52210  Biso   1.000  O
  O19      1.0000 0.71030  0.00350  0.02210  Biso   1.000  O
  O20      1.0000 0.28970  0.50350  0.47790  Biso   1.000  O
  O21      1.0000 0.78120  0.97450  0.30670  Biso   1.000  O
  O22      1.0000 0.21880  0.47450  0.19330  Biso   1.000  O
  O23      1.0000 0.21880  0.02550  0.69330  Biso   1.000  O
  O24      1.0000 0.78120  0.52550  0.80670  Biso   1.000  O
  O25      1.0000 0.88820  0.92680  0.15280  Biso   1.000  O
  O26      1.0000 0.11180  0.42680  0.34720  Biso   1.000  O
  O27      1.0000 0.11180  0.07320  0.84720  Biso   1.000  O
  O28      1.0000 0.88820  0.57320  0.65280  Biso   1.000  O
  O29      1.0000 0.13620  0.18500  0.38330  Biso   1.000  O
  O30      1.0000 0.86380  0.68500  0.11670  Biso   1.000  O
  O31      1.0000 0.86380  0.81500  0.61670  Biso   1.000  O
  O32      1.0000 0.13620  0.31500  0.88330  Biso   1.000  O
  O33      1.0000 0.93400  0.16800  0.44600  Biso   1.000  O
  O34      1.0000 0.06600  0.66800  0.05400  Biso   1.000  O
  O35      1.0000 0.06600  0.83200  0.55400  Biso   1.000  O
  O36      1.0000 0.93400  0.33200  0.94600  Biso   1.000  O
  O37      1.0000 0.02900  0.06800  0.34100  Biso   1.000  O
  O38      1.0000 0.97100  0.56800  0.15900  Biso   1.000  O
  O39      1.0000 0.97100  0.93200  0.65900  Biso   1.000  O
  O40      1.0000 0.02900  0.43200  0.84100  Biso   1.000  O
  O41      1.0000 0.95300  0.22700  0.30500  Biso   1.000  O
  O42      1.0000 0.04700  0.72700  0.19500  Biso   1.000  O
  O43      1.0000 0.04700  0.77300  0.69500  Biso   1.000  O
  O44      1.0000 0.95300  0.27300  0.80500  Biso   1.000  O
  O45      1.0000 0.96200  0.25400  0.42300  Biso   1.000  O
  O46      1.0000 0.03800  0.75400  0.07700  Biso   1.000  O
  O47      1.0000 0.03800  0.74600  0.57700  Biso   1.000  O
  O48      1.0000 0.96200  0.24600  0.92300  Biso   1.000  O
  O49      1.0000 0.96400  0.07500  0.43000  Biso   1.000  O
  O50      1.0000 0.03600  0.57500  0.07000  Biso   1.000  O
  O51      1.0000 0.03600  0.92500  0.57000  Biso   1.000  O
  O52      1.0000 0.96400  0.42500  0.93000  Biso   1.000  O
  O53      1.0000 0.95000  0.16600  0.29300  Biso   1.000  O
  O54      1.0000 0.05000  0.66600  0.20700  Biso   1.000  O
  O55      1.0000 0.05000  0.83400  0.70700  Biso   1.000  O
  O56      1.0000 0.95000  0.33400  0.79300  Biso   1.000  O
  N1       1.0000 0.15010  0.04520  0.15700  Biso   1.000  N
  N2       1.0000 0.84990  0.54520  0.34300  Biso   1.000  N
  N3       1.0000 0.84990  0.95480  0.84300  Biso   1.000  N
  N4       1.0000 0.15010  0.45480  0.65700  Biso   1.000  N
  N5       1.0000 0.29210  0.19630  0.10840  Biso   1.000  N
  N6       1.0000 0.70790  0.69630  0.39160  Biso   1.000  N
  N7       1.0000 0.70790  0.80370  0.89160  Biso   1.000  N
  N8       1.0000 0.29210  0.30370  0.60840  Biso   1.000  N
  N9       1.0000 0.60640  0.27520  0.09850  Biso   1.000  N
  N10      1.0000 0.39360  0.77520  0.40150  Biso   1.000  N
  N11      1.0000 0.39360  0.72480  0.90150  Biso   1.000  N
  N12      1.0000 0.60640  0.22480  0.59850  Biso   1.000  N
  N13      1.0000 0.74470  0.43620  0.07470  Biso   1.000  N
  N14      1.0000 0.25530  0.93620  0.42530  Biso   1.000  N
  N15      1.0000 0.25530  0.56380  0.92530  Biso   1.000  N
  N16      1.0000 0.74470  0.06380  0.57470  Biso   1.000  N
  N17      1.0000 0.59740  0.41360  0.34970  Biso   1.000  N
  N18      1.0000 0.40260  0.91360  0.15030  Biso   1.000  N
  N19      1.0000 0.40260  0.58640  0.65030  Biso   1.000  N
  N20      1.0000 0.59740  0.08640  0.84970  Biso   1.000  N
  C1       1.0000 0.08220  0.12630  0.10320  Biso   1.000  C
  C2       1.0000 0.91780  0.62630  0.39680  Biso   1.000  C
  C3       1.0000 0.91780  0.87370  0.89680  Biso   1.000  C
  C4       1.0000 0.08220  0.37370  0.60320  Biso   1.000  C
  C5       1.0000 0.15820  0.22270  0.11530  Biso   1.000  C
  C6       1.0000 0.84180  0.72270  0.38470  Biso   1.000  C
  C7       1.0000 0.84180  0.77730  0.88470  Biso   1.000  C
  C8       1.0000 0.15820  0.27730  0.61530  Biso   1.000  C
  C9       1.0000 0.38390  0.25910  0.09800  Biso   1.000  C
  C10      1.0000 0.61610  0.75910  0.40200  Biso   1.000  C
  C11      1.0000 0.61610  0.74090  0.90200  Biso   1.000  C
  C12      1.0000 0.38390  0.24090  0.59800  Biso   1.000  C
  C13      1.0000 0.51510  0.20950  0.10400  Biso   1.000  C
  C14      1.0000 0.48490  0.70950  0.39600  Biso   1.000  C
  C15      1.0000 0.48490  0.79050  0.89600  Biso   1.000  C
  C16      1.0000 0.51510  0.29050  0.60400  Biso   1.000  C
  C17      1.0000 0.74370  0.25470  0.10870  Biso   1.000  C
  C18      1.0000 0.25630  0.75470  0.39130  Biso   1.000  C
  C19      1.0000 0.25630  0.74530  0.89130  Biso   1.000  C
  C20      1.0000 0.74370  0.24530  0.60870  Biso   1.000  C
  C21      1.0000 0.80670  0.35570  0.13200  Biso   1.000  C
  C22      1.0000 0.19330  0.85570  0.36800  Biso   1.000  C
  C23      1.0000 0.19330  0.64430  0.86800  Biso   1.000  C
  C24      1.0000 0.80670  0.14430  0.63200  Biso   1.000  C
  C25      1.0000 0.47740  0.39230  0.32340  Biso   1.000  C
  C26      1.0000 0.52260  0.89230  0.17660  Biso   1.000  C
  C27      1.0000 0.52260  0.60770  0.67660  Biso   1.000  C
  C28      1.0000 0.47740  0.10770  0.82340  Biso   1.000  C
  C29      1.0000 0.42830  0.29510  0.32260  Biso   1.000  C
  C30      1.0000 0.57170  0.79510  0.17740  Biso   1.000  C
  C31      1.0000 0.57170  0.70490  0.67740  Biso   1.000  C
  C32      1.0000 0.42830  0.20490  0.82260  Biso   1.000  C
  C33      1.0000 0.50660  0.21560  0.34890  Biso   1.000  C
  C34      1.0000 0.49340  0.71560  0.15110  Biso   1.000  C
  C35      1.0000 0.49340  0.78440  0.65110  Biso   1.000  C
  C36      1.0000 0.50660  0.28440  0.84890  Biso   1.000  C
  C37      1.0000 0.63480  0.23660  0.37290  Biso   1.000  C
  C38      1.0000 0.36520  0.73660  0.12710  Biso   1.000  C
  C39      1.0000 0.36520  0.76340  0.62710  Biso   1.000  C
  C40      1.0000 0.63480  0.26340  0.87290  Biso   1.000  C
  C41      1.0000 0.67750  0.33640  0.37220  Biso   1.000  C
  C42      1.0000 0.32250  0.83640  0.12780  Biso   1.000  C
  C43      1.0000 0.32250  0.66360  0.62780  Biso   1.000  C
  C44      1.0000 0.67750  0.16360  0.87220  Biso   1.000  C
  C45      1.0000 0.45660  0.10700  0.35330  Biso   1.000  C
  C46      1.0000 0.54340  0.60700  0.14670  Biso   1.000  C
  C47      1.0000 0.54340  0.89300  0.64670  Biso   1.000  C
  C48      1.0000 0.45660  0.39300  0.85330  Biso   1.000  C
  H1       1.0000 0.11630  0.97660  0.13830  Biso   1.000  H
  H2       1.0000 0.88370  0.47660  0.36170  Biso   1.000  H
  H3       1.0000 0.88370  0.02340  0.86170  Biso   1.000  H
  H4       1.0000 0.11630  0.52340  0.63830  Biso   1.000  H
  H5       1.0000 0.13800  0.05570  0.22260  Biso   1.000  H
  H6       1.0000 0.86200  0.55570  0.27740  Biso   1.000  H
  H7       1.0000 0.86200  0.94430  0.77740  Biso   1.000  H
  H8       1.0000 0.13800  0.44430  0.72260  Biso   1.000  H
  H9       1.0000 0.77270  0.43050  0.01150  Biso   1.000  H
  H10      1.0000 0.22730  0.93050  0.48850  Biso   1.000  H
  H11      1.0000 0.22730  0.56950  0.98850  Biso   1.000  H
  H12      1.0000 0.77270  0.06950  0.51150  Biso   1.000  H
  H13      1.0000 0.76780  0.50520  0.09920  Biso   1.000  H
  H14      1.0000 0.23220  0.00520  0.40080  Biso   1.000  H
  H15      1.0000 0.23220  0.49480  0.90080  Biso   1.000  H
  H16      1.0000 0.76780  0.99480  0.59920  Biso   1.000  H
  H17      1.0000 0.07610  0.10670  0.03810  Biso   1.000  H
  H18      1.0000 0.92390  0.60670  0.46190  Biso   1.000  H
  H19      1.0000 0.92390  0.89330  0.96190  Biso   1.000  H
  H20      1.0000 0.07610  0.39330  0.53810  Biso   1.000  H
  H21      1.0000 0.99390  0.13640  0.12490  Biso   1.000  H
  H22      1.0000 0.00610  0.63640  0.37510  Biso   1.000  H
  H23      1.0000 0.00610  0.86360  0.87510  Biso   1.000  H
  H24      1.0000 0.99390  0.36360  0.62490  Biso   1.000  H
  H25      1.0000 0.14460  0.25290  0.17590  Biso   1.000  H
  H26      1.0000 0.85540  0.75290  0.32410  Biso   1.000  H
  H27      1.0000 0.85540  0.74710  0.82410  Biso   1.000  H
  H28      1.0000 0.14460  0.24710  0.67590  Biso   1.000  H
  H29      1.0000 0.13120  0.27290  0.06730  Biso   1.000  H
  H30      1.0000 0.86880  0.77290  0.43270  Biso   1.000  H
  H31      1.0000 0.86880  0.72710  0.93270  Biso   1.000  H
  H32      1.0000 0.13120  0.22710  0.56730  Biso   1.000  H
  H33      1.0000 0.76220  0.20420  0.15810  Biso   1.000  H
  H34      1.0000 0.23780  0.70420  0.34190  Biso   1.000  H
  H35      1.0000 0.23780  0.79580  0.84190  Biso   1.000  H
  H36      1.0000 0.76220  0.29580  0.65810  Biso   1.000  H
  H37      1.0000 0.77570  0.22760  0.05110  Biso   1.000  H
  H38      1.0000 0.22430  0.72760  0.44890  Biso   1.000  H
  H39      1.0000 0.22430  0.77240  0.94890  Biso   1.000  H
  H40      1.0000 0.77570  0.27240  0.55110  Biso   1.000  H
  H41      1.0000 0.90030  0.35200  0.12070  Biso   1.000  H
  H42      1.0000 0.09970  0.85200  0.37930  Biso   1.000  H
  H43      1.0000 0.09970  0.64800  0.87930  Biso   1.000  H
  H44      1.0000 0.90030  0.14800  0.62070  Biso   1.000  H
  H45      1.0000 0.79580  0.37170  0.19690  Biso   1.000  H
  H46      1.0000 0.20420  0.87170  0.30310  Biso   1.000  H
  H47      1.0000 0.20420  0.62830  0.80310  Biso   1.000  H
  H48      1.0000 0.79580  0.12830  0.69690  Biso   1.000  H
  H49      1.0000 0.41950  0.44960  0.30300  Biso   1.000  H
  H50      1.0000 0.58050  0.94960  0.19700  Biso   1.000  H
  H51      1.0000 0.58050  0.55040  0.69700  Biso   1.000  H
  H52      1.0000 0.41950  0.05040  0.80300  Biso   1.000  H
  H53      1.0000 0.33630  0.28260  0.30310  Biso   1.000  H
  H54      1.0000 0.66370  0.78260  0.19690  Biso   1.000  H
  H55      1.0000 0.66370  0.71740  0.69690  Biso   1.000  H
  H56      1.0000 0.33630  0.21740  0.80310  Biso   1.000  H
  H57      1.0000 0.69560  0.18010  0.39050  Biso   1.000  H
  H58      1.0000 0.30440  0.68010  0.10950  Biso   1.000  H
  H59      1.0000 0.30440  0.81990  0.60950  Biso   1.000  H
  H60      1.0000 0.69560  0.31990  0.89050  Biso   1.000  H
