data_image0
_cell_length_a       9.1736
_cell_length_b       6.8909
_cell_length_c       16.9201
_cell_angle_alpha    90
_cell_angle_beta     103.292
_cell_angle_gamma    90

_symmetry_space_group_name_H-M    "P 1"
_symmetry_int_tables_number       1

loop_
  _symmetry_equiv_pos_as_xyz
  'x, y, z'

loop_
  _atom_site_label
  _atom_site_occupancy
  _atom_site_fract_x
  _atom_site_fract_y
  _atom_site_fract_z
  _atom_site_thermal_displace_type
  _atom_site_B_iso_or_equiv
  _atom_site_type_symbol
  Cu1      1.0000 0.34932  0.18003  0.12761  Biso   1.000  Cu
  Cu2      1.0000 0.65068  0.68003  0.37239  Biso   1.000  Cu
  Cu3      1.0000 0.65068  0.81997  0.87239  Biso   1.000  Cu
  Cu4      1.0000 0.34932  0.31997  0.62761  Biso   1.000  Cu
  Cl1      1.0000 0.13629  0.03947  0.14091  Biso   1.000  Cl
  Cl2      1.0000 0.86371  0.53947  0.35909  Biso   1.000  Cl
  Cl3      1.0000 0.86371  0.96053  0.85909  Biso   1.000  Cl
  Cl4      1.0000 0.13629  0.46053  0.64091  Biso   1.000  Cl
  O1       1.0000 0.47509  0.03160  0.21985  Biso   1.000  O
  O2       1.0000 0.52491  0.53160  0.28015  Biso   1.000  O
  O3       1.0000 0.52491  0.96840  0.78015  Biso   1.000  O
  O4       1.0000 0.47509  0.46840  0.71985  Biso   1.000  O
  O5       1.0000 0.67933  0.95950  0.31388  Biso   1.000  O
  O6       1.0000 0.32067  0.45950  0.18612  Biso   1.000  O
  O7       1.0000 0.32067  0.04050  0.68612  Biso   1.000  O
  O8       1.0000 0.67933  0.54050  0.81388  Biso   1.000  O
  N1       1.0000 0.52877  0.22290  0.08822  Biso   1.000  N
  N2       1.0000 0.47123  0.72290  0.41178  Biso   1.000  N
  N3       1.0000 0.47123  0.77710  0.91178  Biso   1.000  N
  N4       1.0000 0.52877  0.27710  0.58822  Biso   1.000  N
  N5       1.0000 0.67149  0.17440  0.11978  Biso   1.000  N
  N6       1.0000 0.32851  0.67440  0.38022  Biso   1.000  N
  N7       1.0000 0.32851  0.82560  0.88022  Biso   1.000  N
  N8       1.0000 0.67149  0.32560  0.61978  Biso   1.000  N
  N9       1.0000 0.26077  0.27720  0.01113  Biso   1.000  N
  N10      1.0000 0.73923  0.77720  0.48887  Biso   1.000  N
  N11      1.0000 0.73923  0.72280  0.98887  Biso   1.000  N
  N12      1.0000 0.26077  0.22280  0.51113  Biso   1.000  N
  C1       1.0000 0.75030  0.17720  0.06119  Biso   1.000  C
  C2       1.0000 0.24970  0.67720  0.43881  Biso   1.000  C
  C3       1.0000 0.24970  0.82280  0.93881  Biso   1.000  C
  C4       1.0000 0.75030  0.32280  0.56119  Biso   1.000  C
  H1       1.0000 0.85400  0.14930  0.06860  Biso   1.000  H
  H2       1.0000 0.14600  0.64930  0.43140  Biso   1.000  H
  H3       1.0000 0.14600  0.85070  0.93140  Biso   1.000  H
  H4       1.0000 0.85400  0.35070  0.56860  Biso   1.000  H
  C5       1.0000 0.65400  0.22750  0.98920  Biso   1.000  C
  C6       1.0000 0.34600  0.72750  0.51080  Biso   1.000  C
  C7       1.0000 0.34600  0.77250  0.01080  Biso   1.000  C
  C8       1.0000 0.65400  0.27250  0.48920  Biso   1.000  C
  H5       1.0000 0.67680  0.24200  0.93750  Biso   1.000  H
  H6       1.0000 0.32320  0.74200  0.56250  Biso   1.000  H
  H7       1.0000 0.32320  0.75800  0.06250  Biso   1.000  H
  H8       1.0000 0.67680  0.25800  0.43750  Biso   1.000  H
  C9       1.0000 0.51550  0.25250  0.00861  Biso   1.000  C
  C10      1.0000 0.48450  0.75250  0.49139  Biso   1.000  C
  C11      1.0000 0.48450  0.74750  0.99139  Biso   1.000  C
  C12      1.0000 0.51550  0.24750  0.50861  Biso   1.000  C
  C13      1.0000 0.36150  0.29320  0.96403  Biso   1.000  C
  C14      1.0000 0.63850  0.79320  0.53597  Biso   1.000  C
  C15      1.0000 0.63850  0.70680  0.03597  Biso   1.000  C
  C16      1.0000 0.36150  0.20680  0.46403  Biso   1.000  C
  C17      1.0000 0.31910  0.34220  0.88260  Biso   1.000  C
  C18      1.0000 0.68090  0.84220  0.61740  Biso   1.000  C
  C19      1.0000 0.68090  0.65780  0.11740  Biso   1.000  C
  C20      1.0000 0.31910  0.15780  0.38260  Biso   1.000  C
  H9       1.0000 0.39100  0.35000  0.85030  Biso   1.000  H
  H10      1.0000 0.60900  0.85000  0.64970  Biso   1.000  H
  H11      1.0000 0.60900  0.65000  0.14970  Biso   1.000  H
  H12      1.0000 0.39100  0.15000  0.35030  Biso   1.000  H
  C21      1.0000 0.16890  0.37960  0.84947  Biso   1.000  C
  C22      1.0000 0.83110  0.87960  0.65053  Biso   1.000  C
  C23      1.0000 0.83110  0.62040  0.15053  Biso   1.000  C
  C24      1.0000 0.16890  0.12040  0.34947  Biso   1.000  C
  H13      1.0000 0.13630  0.41240  0.79370  Biso   1.000  H
  H14      1.0000 0.86370  0.91240  0.70630  Biso   1.000  H
  H15      1.0000 0.86370  0.58760  0.20630  Biso   1.000  H
  H16      1.0000 0.13630  0.08760  0.29370  Biso   1.000  H
  C25      1.0000 0.06710  0.36890  0.89776  Biso   1.000  C
  C26      1.0000 0.93290  0.86890  0.60224  Biso   1.000  C
  C27      1.0000 0.93290  0.63110  0.10224  Biso   1.000  C
  C28      1.0000 0.06710  0.13110  0.39776  Biso   1.000  C
  H17      1.0000 0.96440  0.39830  0.87610  Biso   1.000  H
  H18      1.0000 0.03560  0.89830  0.62390  Biso   1.000  H
  H19      1.0000 0.03560  0.60170  0.12390  Biso   1.000  H
  H20      1.0000 0.96440  0.10170  0.37610  Biso   1.000  H
  C29      1.0000 0.11640  0.31500  0.97810  Biso   1.000  C
  C30      1.0000 0.88360  0.81500  0.52190  Biso   1.000  C
  C31      1.0000 0.88360  0.68500  0.02190  Biso   1.000  C
  C32      1.0000 0.11640  0.18500  0.47810  Biso   1.000  C
  H21      1.0000 0.04560  0.30430  0.01100  Biso   1.000  H
  H22      1.0000 0.95440  0.80430  0.48900  Biso   1.000  H
  H23      1.0000 0.95440  0.69570  0.98900  Biso   1.000  H
  H24      1.0000 0.04560  0.19570  0.51100  Biso   1.000  H
  C33      1.0000 0.72250  0.14620  0.20714  Biso   1.000  C
  C34      1.0000 0.27750  0.64620  0.29286  Biso   1.000  C
  C35      1.0000 0.27750  0.85380  0.79286  Biso   1.000  C
  C36      1.0000 0.72250  0.35380  0.70714  Biso   1.000  C
  H25      1.0000 0.74200  0.27530  0.23310  Biso   1.000  H
  H26      1.0000 0.25800  0.77530  0.26690  Biso   1.000  H
  H27      1.0000 0.25800  0.72470  0.76690  Biso   1.000  H
  H28      1.0000 0.74200  0.22470  0.73310  Biso   1.000  H
  H29      1.0000 0.81900  0.07560  0.21760  Biso   1.000  H
  H30      1.0000 0.18100  0.57560  0.28240  Biso   1.000  H
  H31      1.0000 0.18100  0.92440  0.78240  Biso   1.000  H
  H32      1.0000 0.81900  0.42440  0.71760  Biso   1.000  H
  C37      1.0000 0.61540  0.03530  0.24892  Biso   1.000  C
  C38      1.0000 0.38460  0.53530  0.25108  Biso   1.000  C
  C39      1.0000 0.38460  0.96470  0.75108  Biso   1.000  C
  C40      1.0000 0.61540  0.46470  0.74892  Biso   1.000  C
