data_image0
_cell_length_a       6.864
_cell_length_b       23.286
_cell_length_c       9.758
_cell_angle_alpha    90
_cell_angle_beta     113.86
_cell_angle_gamma    90

_symmetry_space_group_name_H-M    "P 1"
_symmetry_int_tables_number       1

loop_
  _symmetry_equiv_pos_as_xyz
  'x, y, z'

loop_
  _atom_site_label
  _atom_site_occupancy
  _atom_site_fract_x
  _atom_site_fract_y
  _atom_site_fract_z
  _atom_site_thermal_displace_type
  _atom_site_B_iso_or_equiv
  _atom_site_type_symbol
  Cu1      1.0000 0.58720  0.19558  0.46036  Biso   1.000  Cu
  Cu2      1.0000 0.41280  0.69558  0.03964  Biso   1.000  Cu
  Cu3      1.0000 0.41280  0.80442  0.53964  Biso   1.000  Cu
  Cu4      1.0000 0.58720  0.30442  0.96036  Biso   1.000  Cu
  O1       1.0000 0.30700  0.17340  0.44310  Biso   1.000  O
  O2       1.0000 0.69300  0.67340  0.05690  Biso   1.000  O
  O3       1.0000 0.69300  0.82660  0.55690  Biso   1.000  O
  O4       1.0000 0.30700  0.32660  0.94310  Biso   1.000  O
  O5       1.0000 0.00430  0.12610  0.33100  Biso   1.000  O
  O6       1.0000 0.99570  0.62610  0.16900  Biso   1.000  O
  O7       1.0000 0.99570  0.87390  0.66900  Biso   1.000  O
  O8       1.0000 0.00430  0.37390  0.83100  Biso   1.000  O
  C1       1.0000 0.19200  0.13840  0.34810  Biso   1.000  C
  C2       1.0000 0.80800  0.63840  0.15190  Biso   1.000  C
  C3       1.0000 0.80800  0.86160  0.65190  Biso   1.000  C
  C4       1.0000 0.19200  0.36160  0.84810  Biso   1.000  C
  C5       1.0000 0.27620  0.10810  0.24220  Biso   1.000  C
  C6       1.0000 0.72380  0.60810  0.25780  Biso   1.000  C
  C7       1.0000 0.72380  0.89190  0.75780  Biso   1.000  C
  C8       1.0000 0.27620  0.39190  0.74220  Biso   1.000  C
  H1       1.0000 0.15700  0.08800  0.16460  Biso   1.000  H
  H2       1.0000 0.84300  0.58800  0.33540  Biso   1.000  H
  H3       1.0000 0.84300  0.91200  0.83540  Biso   1.000  H
  H4       1.0000 0.15700  0.41200  0.66460  Biso   1.000  H
  C9       1.0000 0.36410  0.15240  0.16560  Biso   1.000  C
  C10      1.0000 0.63590  0.65240  0.33440  Biso   1.000  C
  C11      1.0000 0.63590  0.84760  0.83440  Biso   1.000  C
  C12      1.0000 0.36410  0.34760  0.66560  Biso   1.000  C
  O9       1.0000 0.50560  0.18730  0.24500  Biso   1.000  O
  O10      1.0000 0.49440  0.68730  0.25500  Biso   1.000  O
  O11      1.0000 0.49440  0.81270  0.75500  Biso   1.000  O
  O12      1.0000 0.50560  0.31270  0.74500  Biso   1.000  O
  O13      1.0000 0.29530  0.15220  0.02580  Biso   1.000  O
  O14      1.0000 0.70470  0.65220  0.47420  Biso   1.000  O
  O15      1.0000 0.70470  0.84780  0.97420  Biso   1.000  O
  O16      1.0000 0.29530  0.34780  0.52580  Biso   1.000  O
  C13      1.0000 0.44430  0.06430  0.32640  Biso   1.000  C
  C14      1.0000 0.55570  0.56430  0.17360  Biso   1.000  C
  C15      1.0000 0.55570  0.93570  0.67360  Biso   1.000  C
  C16      1.0000 0.44430  0.43570  0.82640  Biso   1.000  C
  H5       1.0000 0.38060  0.03560  0.36780  Biso   1.000  H
  H6       1.0000 0.61940  0.53560  0.13220  Biso   1.000  H
  H7       1.0000 0.61940  0.96440  0.63220  Biso   1.000  H
  H8       1.0000 0.38060  0.46440  0.86780  Biso   1.000  H
  H9       1.0000 0.55570  0.08330  0.40980  Biso   1.000  H
  H10      1.0000 0.44430  0.58330  0.09020  Biso   1.000  H
  H11      1.0000 0.44430  0.91670  0.59020  Biso   1.000  H
  H12      1.0000 0.55570  0.41670  0.90980  Biso   1.000  H
  C17      1.0000 0.54700  0.03340  0.23310  Biso   1.000  C
  C18      1.0000 0.45300  0.53340  0.26690  Biso   1.000  C
  C19      1.0000 0.45300  0.96660  0.76690  Biso   1.000  C
  C20      1.0000 0.54700  0.46660  0.73310  Biso   1.000  C
  H13      1.0000 0.43880  0.01050  0.15700  Biso   1.000  H
  H14      1.0000 0.56120  0.51050  0.34300  Biso   1.000  H
  H15      1.0000 0.56120  0.98950  0.84300  Biso   1.000  H
  H16      1.0000 0.43880  0.48950  0.65700  Biso   1.000  H
  H17      1.0000 0.59620  0.06200  0.18230  Biso   1.000  H
  H18      1.0000 0.40380  0.56200  0.31770  Biso   1.000  H
  H19      1.0000 0.40380  0.93800  0.81770  Biso   1.000  H
  H20      1.0000 0.59620  0.43800  0.68230  Biso   1.000  H
  C21      1.0000 0.72600  0.99600  0.32040  Biso   1.000  C
  C22      1.0000 0.27400  0.49600  0.17960  Biso   1.000  C
  C23      1.0000 0.27400  0.00400  0.67960  Biso   1.000  C
  C24      1.0000 0.72600  0.50400  0.82040  Biso   1.000  C
  H21      1.0000 0.67240  0.96440  0.35970  Biso   1.000  H
  H22      1.0000 0.32760  0.46440  0.14030  Biso   1.000  H
  H23      1.0000 0.32760  0.03560  0.64030  Biso   1.000  H
  H24      1.0000 0.67240  0.53560  0.85970  Biso   1.000  H
  H25      1.0000 0.82410  0.01760  0.40520  Biso   1.000  H
  H26      1.0000 0.17590  0.51760  0.09480  Biso   1.000  H
  H27      1.0000 0.17590  0.98240  0.59480  Biso   1.000  H
  H28      1.0000 0.82410  0.48240  0.90520  Biso   1.000  H
  C25      1.0000 0.85000  0.97130  0.23500  Biso   1.000  C
  C26      1.0000 0.15000  0.47130  0.26500  Biso   1.000  C
  C27      1.0000 0.15000  0.02870  0.76500  Biso   1.000  C
  C28      1.0000 0.85000  0.52870  0.73500  Biso   1.000  C
  H29      1.0000 0.75180  0.95760  0.13940  Biso   1.000  H
  H30      1.0000 0.24820  0.45760  0.36060  Biso   1.000  H
  H31      1.0000 0.24820  0.04240  0.86060  Biso   1.000  H
  H32      1.0000 0.75180  0.54240  0.63940  Biso   1.000  H
  H33      1.0000 0.93710  0.94010  0.29140  Biso   1.000  H
  H34      1.0000 0.06290  0.44010  0.20860  Biso   1.000  H
  H35      1.0000 0.06290  0.05990  0.70860  Biso   1.000  H
  H36      1.0000 0.93710  0.55990  0.79140  Biso   1.000  H
  H37      1.0000 0.93830  0.00070  0.22150  Biso   1.000  H
  H38      1.0000 0.06170  0.50070  0.27850  Biso   1.000  H
  H39      1.0000 0.06170  0.99930  0.77850  Biso   1.000  H
  H40      1.0000 0.93830  0.49930  0.72150  Biso   1.000  H
  O17      1.0000 0.88840  0.19480  0.49410  Biso   1.000  O
  O18      1.0000 0.11160  0.69480  0.00590  Biso   1.000  O
  O19      1.0000 0.11160  0.80520  0.50590  Biso   1.000  O
  O20      1.0000 0.88840  0.30520  0.99410  Biso   1.000  O
  H41      1.0000 0.91200  0.15530  0.47200  Biso   1.000  H
  H42      1.0000 0.08800  0.65530  0.02800  Biso   1.000  H
  H43      1.0000 0.08800  0.84470  0.52800  Biso   1.000  H
  H44      1.0000 0.91200  0.34470  0.97200  Biso   1.000  H
  C29      1.0000 0.03250  0.19450  0.64960  Biso   1.000  C
  C30      1.0000 0.96750  0.69450  0.85040  Biso   1.000  C
  C31      1.0000 0.96750  0.80550  0.35040  Biso   1.000  C
  C32      1.0000 0.03250  0.30550  0.14960  Biso   1.000  C
  H45      1.0000 0.16500  0.21340  0.66310  Biso   1.000  H
  H46      1.0000 0.83500  0.71340  0.83690  Biso   1.000  H
  H47      1.0000 0.83500  0.78660  0.33690  Biso   1.000  H
  H48      1.0000 0.16500  0.28660  0.16310  Biso   1.000  H
  H49      1.0000 0.06400  0.15540  0.68620  Biso   1.000  H
  H50      1.0000 0.93600  0.65540  0.81380  Biso   1.000  H
  H51      1.0000 0.93600  0.84460  0.31380  Biso   1.000  H
  H52      1.0000 0.06400  0.34460  0.18620  Biso   1.000  H
  C33      1.0000 0.92160  0.22670  0.73370  Biso   1.000  C
  C34      1.0000 0.07840  0.72670  0.76630  Biso   1.000  C
  C35      1.0000 0.07840  0.77330  0.26630  Biso   1.000  C
  C36      1.0000 0.92160  0.27330  0.23370  Biso   1.000  C
  H53      1.0000 0.99790  0.22110  0.84080  Biso   1.000  H
  H54      1.0000 0.00210  0.72110  0.65920  Biso   1.000  H
  H55      1.0000 0.00210  0.77890  0.15920  Biso   1.000  H
  H56      1.0000 0.99790  0.27890  0.34080  Biso   1.000  H
  H57      1.0000 0.91810  0.26750  0.71280  Biso   1.000  H
  H58      1.0000 0.08190  0.76750  0.78720  Biso   1.000  H
  H59      1.0000 0.08190  0.73250  0.28720  Biso   1.000  H
  H60      1.0000 0.91810  0.23250  0.21280  Biso   1.000  H
  N1       1.0000 0.69790  0.20360  0.68230  Biso   1.000  N
  N2       1.0000 0.30210  0.70360  0.81770  Biso   1.000  N
  N3       1.0000 0.30210  0.79640  0.31770  Biso   1.000  N
  N4       1.0000 0.69790  0.29640  0.18230  Biso   1.000  N
  H61      1.0000 0.61900  0.23160  0.70080  Biso   1.000  H
  H62      1.0000 0.38100  0.73160  0.79920  Biso   1.000  H
  H63      1.0000 0.38100  0.76840  0.29920  Biso   1.000  H
  H64      1.0000 0.61900  0.26840  0.20080  Biso   1.000  H
  C37      1.0000 0.68490  0.15190  0.76890  Biso   1.000  C
  C38      1.0000 0.31510  0.65190  0.73110  Biso   1.000  C
  C39      1.0000 0.31510  0.84810  0.23110  Biso   1.000  C
  C40      1.0000 0.68490  0.34810  0.26890  Biso   1.000  C
  H65      1.0000 0.79630  0.12520  0.77450  Biso   1.000  H
  H66      1.0000 0.20370  0.62520  0.72550  Biso   1.000  H
  H67      1.0000 0.20370  0.87480  0.22550  Biso   1.000  H
  H68      1.0000 0.79630  0.37480  0.27450  Biso   1.000  H
  H69      1.0000 0.54910  0.13310  0.71520  Biso   1.000  H
  H70      1.0000 0.45090  0.63310  0.78480  Biso   1.000  H
  H71      1.0000 0.45090  0.86690  0.28480  Biso   1.000  H
  H72      1.0000 0.54910  0.36690  0.21520  Biso   1.000  H
  C41      1.0000 0.70700  0.16530  0.92490  Biso   1.000  C
  C42      1.0000 0.29300  0.66530  0.57510  Biso   1.000  C
  C43      1.0000 0.29300  0.83470  0.07510  Biso   1.000  C
  C44      1.0000 0.70700  0.33470  0.42490  Biso   1.000  C
  H73      1.0000 0.68700  0.13030  0.97150  Biso   1.000  H
  H74      1.0000 0.31300  0.63030  0.52850  Biso   1.000  H
  H75      1.0000 0.31300  0.86970  0.02850  Biso   1.000  H
  H76      1.0000 0.68700  0.36970  0.47150  Biso   1.000  H
  H77      1.0000 0.85020  0.17910  0.98320  Biso   1.000  H
  H78      1.0000 0.14980  0.67910  0.51680  Biso   1.000  H
  H79      1.0000 0.14980  0.82090  0.01680  Biso   1.000  H
  H80      1.0000 0.85020  0.32090  0.48320  Biso   1.000  H
  O21      1.0000 0.55840  0.20700  0.92770  Biso   1.000  O
  O22      1.0000 0.44160  0.70700  0.57230  Biso   1.000  O
  O23      1.0000 0.44160  0.79300  0.07230  Biso   1.000  O
  O24      1.0000 0.55840  0.29300  0.42770  Biso   1.000  O
  H81      1.0000 0.43800  0.18900  0.93700  Biso   1.000  H
  H82      1.0000 0.56200  0.68900  0.56300  Biso   1.000  H
  H83      1.0000 0.56200  0.81100  0.06300  Biso   1.000  H
  H84      1.0000 0.43800  0.31100  0.43700  Biso   1.000  H
