data_image0
_cell_length_a       8.3838
_cell_length_b       6.6051
_cell_length_c       15.2829
_cell_angle_alpha    90
_cell_angle_beta     90.847
_cell_angle_gamma    90

_symmetry_space_group_name_H-M    "P 1"
_symmetry_int_tables_number       1

loop_
  _symmetry_equiv_pos_as_xyz
  'x, y, z'

loop_
  _atom_site_label
  _atom_site_occupancy
  _atom_site_fract_x
  _atom_site_fract_y
  _atom_site_fract_z
  _atom_site_thermal_displace_type
  _atom_site_B_iso_or_equiv
  _atom_site_type_symbol
  Cu1      1.0000 0.50000  0.00000  0.50000  Biso   1.000  Cu
  Cu2      1.0000 0.00000  0.50000  0.00000  Biso   1.000  Cu
  Cl1      1.0000 0.52774  0.76565  0.38997  Biso   1.000  Cl
  Cl2      1.0000 0.97226  0.26565  0.11003  Biso   1.000  Cl
  Cl3      1.0000 0.47226  0.23435  0.61003  Biso   1.000  Cl
  Cl4      1.0000 0.02774  0.73435  0.88997  Biso   1.000  Cl
  N1       1.0000 0.32028  0.13100  0.43283  Biso   1.000  N
  N2       1.0000 0.17972  0.63100  0.06717  Biso   1.000  N
  N3       1.0000 0.67972  0.86900  0.56717  Biso   1.000  N
  N4       1.0000 0.82028  0.36900  0.93283  Biso   1.000  N
  N5       1.0000 0.11000  0.16490  0.34874  Biso   1.000  N
  N6       1.0000 0.39000  0.66490  0.15126  Biso   1.000  N
  N7       1.0000 0.89000  0.83510  0.65126  Biso   1.000  N
  N8       1.0000 0.61000  0.33510  0.84874  Biso   1.000  N
  N9       1.0000 0.68280  0.24420  0.41638  Biso   1.000  N
  N10      1.0000 0.81720  0.74420  0.08362  Biso   1.000  N
  N11      1.0000 0.31720  0.75580  0.58362  Biso   1.000  N
  N12      1.0000 0.18280  0.25580  0.91638  Biso   1.000  N
  C1       1.0000 0.30890  0.32370  0.41177  Biso   1.000  C
  C2       1.0000 0.19110  0.82370  0.08823  Biso   1.000  C
  C3       1.0000 0.69110  0.67630  0.58823  Biso   1.000  C
  C4       1.0000 0.80890  0.17630  0.91177  Biso   1.000  C
  N13      1.0000 0.65440  0.25930  0.32831  Biso   1.000  N
  N14      1.0000 0.84560  0.75930  0.17169  Biso   1.000  N
  N15      1.0000 0.34560  0.74070  0.67169  Biso   1.000  N
  N16      1.0000 0.15440  0.24070  0.82831  Biso   1.000  N
  C5       1.0000 0.75610  0.39580  0.30093  Biso   1.000  C
  C6       1.0000 0.74390  0.89580  0.19907  Biso   1.000  C
  C7       1.0000 0.24390  0.60420  0.69907  Biso   1.000  C
  C8       1.0000 0.25610  0.10420  0.80093  Biso   1.000  C
  N17      1.0000 0.18175  0.34820  0.35981  Biso   1.000  N
  N18      1.0000 0.31825  0.84820  0.14019  Biso   1.000  N
  N19      1.0000 0.81825  0.65180  0.64019  Biso   1.000  N
  N20      1.0000 0.68175  0.15180  0.85981  Biso   1.000  N
  N21      1.0000 0.79600  0.36650  0.44121  Biso   1.000  N
  N22      1.0000 0.70400  0.86650  0.05879  Biso   1.000  N
  N23      1.0000 0.20400  0.63350  0.55879  Biso   1.000  N
  N24      1.0000 0.29600  0.13350  0.94121  Biso   1.000  N
  N25      1.0000 0.84362  0.46400  0.36857  Biso   1.000  N
  N26      1.0000 0.65638  0.96400  0.13143  Biso   1.000  N
  N27      1.0000 0.15638  0.53600  0.63143  Biso   1.000  N
  N28      1.0000 0.34362  0.03600  0.86857  Biso   1.000  N
  N29      1.0000 0.19470  0.03500  0.39268  Biso   1.000  N
  N30      1.0000 0.30530  0.53500  0.10732  Biso   1.000  N
  N31      1.0000 0.80530  0.96500  0.60732  Biso   1.000  N
  N32      1.0000 0.69470  0.46500  0.89268  Biso   1.000  N
  C9       1.0000 0.97370  0.61140  0.37051  Biso   1.000  C
  C10      1.0000 0.52630  0.11140  0.12949  Biso   1.000  C
  C11      1.0000 0.02630  0.38860  0.62949  Biso   1.000  C
  C12      1.0000 0.47370  0.88860  0.87051  Biso   1.000  C
  C13      1.0000 0.11690  0.53360  0.32064  Biso   1.000  C
  C14      1.0000 0.38310  0.03360  0.17936  Biso   1.000  C
  C15      1.0000 0.88310  0.46640  0.67936  Biso   1.000  C
  C16      1.0000 0.61690  0.96640  0.82064  Biso   1.000  C
  H1       1.0000 0.19100  0.62800  0.32430  Biso   1.000  H
  H2       1.0000 0.30900  0.12800  0.17570  Biso   1.000  H
  H3       1.0000 0.80900  0.37200  0.67570  Biso   1.000  H
  H4       1.0000 0.69100  0.87200  0.82430  Biso   1.000  H
  H5       1.0000 0.99800  0.63000  0.42930  Biso   1.000  H
  H6       1.0000 0.50200  0.13000  0.07070  Biso   1.000  H
  H7       1.0000 0.00200  0.37000  0.57070  Biso   1.000  H
  H8       1.0000 0.49800  0.87000  0.92930  Biso   1.000  H
  H9       1.0000 0.37400  0.42200  0.42610  Biso   1.000  H
  H10      1.0000 0.12600  0.92200  0.07390  Biso   1.000  H
  H11      1.0000 0.62600  0.57800  0.57390  Biso   1.000  H
  H12      1.0000 0.87400  0.07800  0.92610  Biso   1.000  H
  H13      1.0000 0.93600  0.73700  0.34450  Biso   1.000  H
  H14      1.0000 0.56400  0.23700  0.15550  Biso   1.000  H
  H15      1.0000 0.06400  0.26300  0.65550  Biso   1.000  H
  H16      1.0000 0.43600  0.76300  0.84450  Biso   1.000  H
  H17      1.0000 0.09200  0.50500  0.26350  Biso   1.000  H
  H18      1.0000 0.40800  0.00500  0.23650  Biso   1.000  H
  H19      1.0000 0.90800  0.49500  0.73650  Biso   1.000  H
  H20      1.0000 0.59200  0.99500  0.76350  Biso   1.000  H
  H21      1.0000 0.77400  0.43500  0.24730  Biso   1.000  H
  H22      1.0000 0.72600  0.93500  0.25270  Biso   1.000  H
  H23      1.0000 0.22600  0.56500  0.75270  Biso   1.000  H
  H24      1.0000 0.27400  0.06500  0.74730  Biso   1.000  H
