data_image0
_cell_length_a       8.391
_cell_length_b       10.486
_cell_length_c       11.642
_cell_angle_alpha    81.07
_cell_angle_beta     87.27
_cell_angle_gamma    72.04

_symmetry_space_group_name_H-M    "P 1"
_symmetry_int_tables_number       1

loop_
  _symmetry_equiv_pos_as_xyz
  'x, y, z'

loop_
  _atom_site_label
  _atom_site_occupancy
  _atom_site_fract_x
  _atom_site_fract_y
  _atom_site_fract_z
  _atom_site_thermal_displace_type
  _atom_site_B_iso_or_equiv
  _atom_site_type_symbol
  Cu1      1.0000 0.46880  0.46200  0.16300  Biso   1.000  Cu
  Cu2      1.0000 0.53120  0.53800  0.83700  Biso   1.000  Cu
  Cl1      1.0000 0.45130  0.66160  0.04340  Biso   1.000  Cl
  Cl2      1.0000 0.54870  0.33840  0.95660  Biso   1.000  Cl
  Cl3      1.0000 0.49650  0.27150  0.29230  Biso   1.000  Cl
  Cl4      1.0000 0.50350  0.72850  0.70770  Biso   1.000  Cl
  O1       1.0000 0.68250  0.47890  0.21170  Biso   1.000  O
  O2       1.0000 0.31750  0.52110  0.78830  Biso   1.000  O
  O3       1.0000 0.22250  0.50780  0.15680  Biso   1.000  O
  O4       1.0000 0.77750  0.49220  0.84320  Biso   1.000  O
  N1       1.0000 0.75840  0.70390  0.23090  Biso   1.000  N
  N2       1.0000 0.24160  0.29610  0.76910  Biso   1.000  N
  C1       1.0000 0.90660  0.61590  0.25400  Biso   1.000  C
  C2       1.0000 0.09340  0.38410  0.74600  Biso   1.000  C
  C3       1.0000 0.01300  0.64730  0.33460  Biso   1.000  C
  C4       1.0000 0.98700  0.35270  0.66540  Biso   1.000  C
  C5       1.0000 0.14150  0.54460  0.39550  Biso   1.000  C
  C6       1.0000 0.85850  0.45540  0.60450  Biso   1.000  C
  C7       1.0000 0.23580  0.57580  0.47490  Biso   1.000  C
  C8       1.0000 0.76420  0.42420  0.52510  Biso   1.000  C
  C9       1.0000 0.20480  0.70780  0.49340  Biso   1.000  C
  C10      1.0000 0.79520  0.29220  0.50660  Biso   1.000  C
  C11      1.0000 0.07660  0.80960  0.43330  Biso   1.000  C
  C12      1.0000 0.92340  0.19040  0.56670  Biso   1.000  C
  C13      1.0000 0.97790  0.78160  0.35450  Biso   1.000  C
  C14      1.0000 0.02210  0.21840  0.64550  Biso   1.000  C
  C15      1.0000 0.83550  0.88780  0.28970  Biso   1.000  C
  C16      1.0000 0.16450  0.11220  0.71030  Biso   1.000  C
  C17      1.0000 0.68900  0.83500  0.27610  Biso   1.000  C
  C18      1.0000 0.31100  0.16500  0.72390  Biso   1.000  C
  C19      1.0000 0.60480  0.80930  0.39310  Biso   1.000  C
  C20      1.0000 0.39520  0.19070  0.60690  Biso   1.000  C
  C21      1.0000 0.56470  0.92950  0.18600  Biso   1.000  C
  C22      1.0000 0.43530  0.07050  0.81400  Biso   1.000  C
  C23      1.0000 0.95560  0.49120  0.20300  Biso   1.000  C
  C24      1.0000 0.04440  0.50880  0.79700  Biso   1.000  C
  C25      1.0000 0.83290  0.42670  0.18560  Biso   1.000  C
  C26      1.0000 0.16710  0.57330  0.81440  Biso   1.000  C
  C27      1.0000 0.88250  0.29820  0.13400  Biso   1.000  C
  C28      1.0000 0.11750  0.70180  0.86600  Biso   1.000  C
  C29      1.0000 0.06690  0.21680  0.14800  Biso   1.000  C
  C30      1.0000 0.93310  0.78320  0.85200  Biso   1.000  C
  C31      1.0000 0.16920  0.31230  0.10620  Biso   1.000  C
  C32      1.0000 0.83080  0.68770  0.89380  Biso   1.000  C
  C33      1.0000 0.12100  0.44080  0.15880  Biso   1.000  C
  C34      1.0000 0.87900  0.55920  0.84120  Biso   1.000  C
  C35      1.0000 0.10540  0.10320  0.07410  Biso   1.000  C
  C36      1.0000 0.89460  0.89680  0.92590  Biso   1.000  C
  C37      1.0000 0.10590  0.15600  0.27560  Biso   1.000  C
  C38      1.0000 0.89410  0.84400  0.72440  Biso   1.000  C
  H1       1.0000 0.16900  0.47000  0.37600  Biso   1.000  H
  H2       1.0000 0.83100  0.53000  0.62400  Biso   1.000  H
  H3       1.0000 0.31400  0.50800  0.51300  Biso   1.000  H
  H4       1.0000 0.68600  0.49200  0.48700  Biso   1.000  H
  H5       1.0000 0.26900  0.72700  0.55200  Biso   1.000  H
  H6       1.0000 0.73100  0.27300  0.44800  Biso   1.000  H
  H7       1.0000 0.04500  0.90300  0.43900  Biso   1.000  H
  H8       1.0000 0.95500  0.09700  0.56100  Biso   1.000  H
  H9       1.0000 0.87100  0.91100  0.21200  Biso   1.000  H
  H10      1.0000 0.12900  0.08900  0.78800  Biso   1.000  H
  H11      1.0000 0.80200  0.96100  0.32000  Biso   1.000  H
  H12      1.0000 0.19800  0.03900  0.68000  Biso   1.000  H
  H13      1.0000 0.52300  0.77400  0.38100  Biso   1.000  H
  H14      1.0000 0.47700  0.22600  0.61900  Biso   1.000  H
  H15      1.0000 0.69600  0.73900  0.44600  Biso   1.000  H
  H16      1.0000 0.30400  0.26100  0.55400  Biso   1.000  H
  H17      1.0000 0.55600  0.87500  0.41700  Biso   1.000  H
  H18      1.0000 0.44400  0.12500  0.58300  Biso   1.000  H
  H19      1.0000 0.46400  0.89500  0.18100  Biso   1.000  H
  H20      1.0000 0.53600  0.10500  0.81900  Biso   1.000  H
  H21      1.0000 0.52600  0.01400  0.20900  Biso   1.000  H
  H22      1.0000 0.47400  0.98600  0.79100  Biso   1.000  H
  H23      1.0000 0.62300  0.94000  0.10700  Biso   1.000  H
  H24      1.0000 0.37700  0.06000  0.89300  Biso   1.000  H
  H25      1.0000 0.69700  0.68200  0.19300  Biso   1.000  H
  H26      1.0000 0.30300  0.31800  0.80700  Biso   1.000  H
  H27      1.0000 0.81100  0.24300  0.16500  Biso   1.000  H
  H28      1.0000 0.18900  0.75700  0.83500  Biso   1.000  H
  H29      1.0000 0.85400  0.32800  0.04900  Biso   1.000  H
  H30      1.0000 0.14600  0.67200  0.95100  Biso   1.000  H
  H31      1.0000 0.28500  0.27500  0.11200  Biso   1.000  H
  H32      1.0000 0.71500  0.72500  0.88800  Biso   1.000  H
  H33      1.0000 0.14900  0.35100  0.02500  Biso   1.000  H
  H34      1.0000 0.85100  0.64900  0.97500  Biso   1.000  H
  H35      1.0000 0.04400  0.05400  0.09900  Biso   1.000  H
  H36      1.0000 0.95600  0.94600  0.90100  Biso   1.000  H
  H37      1.0000 0.22600  0.04800  0.08900  Biso   1.000  H
  H38      1.0000 0.77400  0.95200  0.91100  Biso   1.000  H
  H39      1.0000 0.07100  0.14100  0.00000  Biso   1.000  H
  H40      1.0000 0.92900  0.85900  0.00000  Biso   1.000  H
  H41      1.0000 0.09300  0.21900  0.32100  Biso   1.000  H
  H42      1.0000 0.90700  0.78100  0.67900  Biso   1.000  H
  H43      1.0000 0.02400  0.11000  0.30500  Biso   1.000  H
  H44      1.0000 0.97600  0.89000  0.69500  Biso   1.000  H
  H45      1.0000 0.21200  0.10200  0.28500  Biso   1.000  H
  H46      1.0000 0.78800  0.89800  0.71500  Biso   1.000  H
