data_image0
_cell_length_a       12.167
_cell_length_b       14.712
_cell_length_c       10.18
_cell_angle_alpha    90
_cell_angle_beta     103.48
_cell_angle_gamma    90

_symmetry_space_group_name_H-M    "P 1"
_symmetry_int_tables_number       1

loop_
  _symmetry_equiv_pos_as_xyz
  'x, y, z'

loop_
  _atom_site_label
  _atom_site_occupancy
  _atom_site_fract_x
  _atom_site_fract_y
  _atom_site_fract_z
  _atom_site_thermal_displace_type
  _atom_site_B_iso_or_equiv
  _atom_site_type_symbol
  Cu1      1.0000 0.00000  0.50000  0.00000  Biso   1.000  Cu
  Cu2      1.0000 0.50000  0.00000  0.00000  Biso   1.000  Cu
  Cu3      1.0000 0.00000  0.50000  0.50000  Biso   1.000  Cu
  Cu4      1.0000 0.50000  0.00000  0.50000  Biso   1.000  Cu
  O1       1.0000 0.00000  0.46611  0.75000  Biso   1.000  O
  O2       1.0000 0.50000  0.96611  0.75000  Biso   1.000  O
  O3       1.0000 0.00000  0.53389  0.25000  Biso   1.000  O
  O4       1.0000 0.50000  0.03389  0.25000  Biso   1.000  O
  O5       1.0000 0.90978  0.39349  0.02736  Biso   1.000  O
  O6       1.0000 0.40978  0.89349  0.02736  Biso   1.000  O
  O7       1.0000 0.09022  0.39349  0.47264  Biso   1.000  O
  O8       1.0000 0.59022  0.89349  0.47264  Biso   1.000  O
  O9       1.0000 0.09022  0.60651  0.97264  Biso   1.000  O
  O10      1.0000 0.59022  0.10651  0.97264  Biso   1.000  O
  O11      1.0000 0.90978  0.60651  0.52736  Biso   1.000  O
  O12      1.0000 0.40978  0.10651  0.52736  Biso   1.000  O
  O13      1.0000 0.86249  0.33452  0.81951  Biso   1.000  O
  O14      1.0000 0.36249  0.83452  0.81951  Biso   1.000  O
  O15      1.0000 0.13751  0.33452  0.68049  Biso   1.000  O
  O16      1.0000 0.63751  0.83452  0.68049  Biso   1.000  O
  O17      1.0000 0.13751  0.66548  0.18049  Biso   1.000  O
  O18      1.0000 0.63751  0.16548  0.18049  Biso   1.000  O
  O19      1.0000 0.86249  0.66548  0.31951  Biso   1.000  O
  O20      1.0000 0.36249  0.16548  0.31951  Biso   1.000  O
  N1       1.0000 0.14088  0.42555  0.05960  Biso   1.000  N
  N2       1.0000 0.64088  0.92555  0.05960  Biso   1.000  N
  N3       1.0000 0.85912  0.42555  0.44040  Biso   1.000  N
  N4       1.0000 0.35912  0.92555  0.44040  Biso   1.000  N
  N5       1.0000 0.85912  0.57445  0.94040  Biso   1.000  N
  N6       1.0000 0.35912  0.07445  0.94040  Biso   1.000  N
  N7       1.0000 0.14088  0.57445  0.55960  Biso   1.000  N
  N8       1.0000 0.64088  0.07445  0.55960  Biso   1.000  N
  C1       1.0000 0.15342  0.36154  0.15290  Biso   1.000  C
  C2       1.0000 0.65342  0.86154  0.15290  Biso   1.000  C
  C3       1.0000 0.84658  0.36154  0.34710  Biso   1.000  C
  C4       1.0000 0.34658  0.86154  0.34710  Biso   1.000  C
  C5       1.0000 0.84658  0.63846  0.84710  Biso   1.000  C
  C6       1.0000 0.34658  0.13846  0.84710  Biso   1.000  C
  C7       1.0000 0.15342  0.63846  0.65290  Biso   1.000  C
  C8       1.0000 0.65342  0.13846  0.65290  Biso   1.000  C
  N9       1.0000 0.25201  0.31748  0.16980  Biso   1.000  N
  N10      1.0000 0.75201  0.81748  0.16980  Biso   1.000  N
  N11      1.0000 0.74799  0.31748  0.33020  Biso   1.000  N
  N12      1.0000 0.24799  0.81748  0.33020  Biso   1.000  N
  N13      1.0000 0.74799  0.68252  0.83020  Biso   1.000  N
  N14      1.0000 0.24799  0.18252  0.83020  Biso   1.000  N
  N15      1.0000 0.25201  0.68252  0.66980  Biso   1.000  N
  N16      1.0000 0.75201  0.18252  0.66980  Biso   1.000  N
  C9       1.0000 0.30904  0.35318  0.08040  Biso   1.000  C
  C10      1.0000 0.80904  0.85318  0.08040  Biso   1.000  C
  C11      1.0000 0.69096  0.35318  0.41960  Biso   1.000  C
  C12      1.0000 0.19096  0.85318  0.41960  Biso   1.000  C
  C13      1.0000 0.69096  0.64682  0.91960  Biso   1.000  C
  C14      1.0000 0.19096  0.14682  0.91960  Biso   1.000  C
  C15      1.0000 0.30904  0.64682  0.58040  Biso   1.000  C
  C16      1.0000 0.80904  0.14682  0.58040  Biso   1.000  C
  C17      1.0000 0.41270  0.33150  0.05240  Biso   1.000  C
  C18      1.0000 0.91270  0.83150  0.05240  Biso   1.000  C
  C19      1.0000 0.58730  0.33150  0.44760  Biso   1.000  C
  C20      1.0000 0.08730  0.83150  0.44760  Biso   1.000  C
  C21      1.0000 0.58730  0.66850  0.94760  Biso   1.000  C
  C22      1.0000 0.08730  0.16850  0.94760  Biso   1.000  C
  C23      1.0000 0.41270  0.66850  0.55240  Biso   1.000  C
  C24      1.0000 0.91270  0.16850  0.55240  Biso   1.000  C
  C25      1.0000 0.44410  0.37980  0.95330  Biso   1.000  C
  C26      1.0000 0.94410  0.87980  0.95330  Biso   1.000  C
  C27      1.0000 0.55590  0.37980  0.54670  Biso   1.000  C
  C28      1.0000 0.05590  0.87980  0.54670  Biso   1.000  C
  C29      1.0000 0.55590  0.62020  0.04670  Biso   1.000  C
  C30      1.0000 0.05590  0.12020  0.04670  Biso   1.000  C
  C31      1.0000 0.44410  0.62020  0.45330  Biso   1.000  C
  C32      1.0000 0.94410  0.12020  0.45330  Biso   1.000  C
  C33      1.0000 0.37590  0.44930  0.88350  Biso   1.000  C
  C34      1.0000 0.87590  0.94930  0.88350  Biso   1.000  C
  C35      1.0000 0.62410  0.44930  0.61650  Biso   1.000  C
  C36      1.0000 0.12410  0.94930  0.61650  Biso   1.000  C
  C37      1.0000 0.62410  0.55070  0.11650  Biso   1.000  C
  C38      1.0000 0.12410  0.05070  0.11650  Biso   1.000  C
  C39      1.0000 0.37590  0.55070  0.38350  Biso   1.000  C
  C40      1.0000 0.87590  0.05070  0.38350  Biso   1.000  C
  C41      1.0000 0.27380  0.47144  0.91200  Biso   1.000  C
  C42      1.0000 0.77380  0.97144  0.91200  Biso   1.000  C
  C43      1.0000 0.72620  0.47144  0.58800  Biso   1.000  C
  C44      1.0000 0.22620  0.97144  0.58800  Biso   1.000  C
  C45      1.0000 0.72620  0.52856  0.08800  Biso   1.000  C
  C46      1.0000 0.22620  0.02856  0.08800  Biso   1.000  C
  C47      1.0000 0.27380  0.52856  0.41200  Biso   1.000  C
  C48      1.0000 0.77380  0.02856  0.41200  Biso   1.000  C
  C49      1.0000 0.23981  0.42193  0.01170  Biso   1.000  C
  C50      1.0000 0.73981  0.92193  0.01170  Biso   1.000  C
  C51      1.0000 0.76019  0.42193  0.48830  Biso   1.000  C
  C52      1.0000 0.26019  0.92193  0.48830  Biso   1.000  C
  C53      1.0000 0.76019  0.57807  0.98830  Biso   1.000  C
  C54      1.0000 0.26019  0.07807  0.98830  Biso   1.000  C
  C55      1.0000 0.23981  0.57807  0.51170  Biso   1.000  C
  C56      1.0000 0.73981  0.07807  0.51170  Biso   1.000  C
  C57      1.0000 0.85720  0.34038  0.93820  Biso   1.000  C
  C58      1.0000 0.35720  0.84038  0.93820  Biso   1.000  C
  C59      1.0000 0.14280  0.34038  0.56180  Biso   1.000  C
  C60      1.0000 0.64280  0.84038  0.56180  Biso   1.000  C
  C61      1.0000 0.14280  0.65962  0.06180  Biso   1.000  C
  C62      1.0000 0.64280  0.15962  0.06180  Biso   1.000  C
  C63      1.0000 0.85720  0.65962  0.43820  Biso   1.000  C
  C64      1.0000 0.35720  0.15962  0.43820  Biso   1.000  C
  C65      1.0000 0.78176  0.27642  0.98490  Biso   1.000  C
  C66      1.0000 0.28176  0.77642  0.98490  Biso   1.000  C
  C67      1.0000 0.21824  0.27642  0.51510  Biso   1.000  C
  C68      1.0000 0.71824  0.77642  0.51510  Biso   1.000  C
  C69      1.0000 0.21824  0.72358  0.01510  Biso   1.000  C
  C70      1.0000 0.71824  0.22358  0.01510  Biso   1.000  C
  C71      1.0000 0.78176  0.72358  0.48490  Biso   1.000  C
  C72      1.0000 0.28176  0.22358  0.48490  Biso   1.000  C
  H1       1.0000 0.95000  0.43310  0.75500  Biso   1.000  H
  H2       1.0000 0.45000  0.93310  0.75500  Biso   1.000  H
  H3       1.0000 0.05000  0.43310  0.74500  Biso   1.000  H
  H4       1.0000 0.55000  0.93310  0.74500  Biso   1.000  H
  H5       1.0000 0.05000  0.56690  0.24500  Biso   1.000  H
  H6       1.0000 0.55000  0.06690  0.24500  Biso   1.000  H
  H7       1.0000 0.95000  0.56690  0.25500  Biso   1.000  H
  H8       1.0000 0.45000  0.06690  0.25500  Biso   1.000  H
  H9       1.0000 0.10050  0.34660  0.20300  Biso   1.000  H
  H10      1.0000 0.60050  0.84660  0.20300  Biso   1.000  H
  H11      1.0000 0.89950  0.34660  0.29700  Biso   1.000  H
  H12      1.0000 0.39950  0.84660  0.29700  Biso   1.000  H
  H13      1.0000 0.89950  0.65340  0.79700  Biso   1.000  H
  H14      1.0000 0.39950  0.15340  0.79700  Biso   1.000  H
  H15      1.0000 0.10050  0.65340  0.70300  Biso   1.000  H
  H16      1.0000 0.60050  0.15340  0.70300  Biso   1.000  H
  H17      1.0000 0.27100  0.27700  0.21800  Biso   1.000  H
  H18      1.0000 0.77100  0.77700  0.21800  Biso   1.000  H
  H19      1.0000 0.72900  0.27700  0.28200  Biso   1.000  H
  H20      1.0000 0.22900  0.77700  0.28200  Biso   1.000  H
  H21      1.0000 0.72900  0.72300  0.78200  Biso   1.000  H
  H22      1.0000 0.22900  0.22300  0.78200  Biso   1.000  H
  H23      1.0000 0.27100  0.72300  0.71800  Biso   1.000  H
  H24      1.0000 0.77100  0.22300  0.71800  Biso   1.000  H
  H25      1.0000 0.44800  0.29100  0.10000  Biso   1.000  H
  H26      1.0000 0.94800  0.79100  0.10000  Biso   1.000  H
  H27      1.0000 0.55200  0.29100  0.40000  Biso   1.000  H
  H28      1.0000 0.05200  0.79100  0.40000  Biso   1.000  H
  H29      1.0000 0.55200  0.70900  0.90000  Biso   1.000  H
  H30      1.0000 0.05200  0.20900  0.90000  Biso   1.000  H
  H31      1.0000 0.44800  0.70900  0.60000  Biso   1.000  H
  H32      1.0000 0.94800  0.20900  0.60000  Biso   1.000  H
  H33      1.0000 0.51400  0.36700  0.92800  Biso   1.000  H
  H34      1.0000 0.01400  0.86700  0.92800  Biso   1.000  H
  H35      1.0000 0.48600  0.36700  0.57200  Biso   1.000  H
  H36      1.0000 0.98600  0.86700  0.57200  Biso   1.000  H
  H37      1.0000 0.48600  0.63300  0.07200  Biso   1.000  H
  H38      1.0000 0.98600  0.13300  0.07200  Biso   1.000  H
  H39      1.0000 0.51400  0.63300  0.42800  Biso   1.000  H
  H40      1.0000 0.01400  0.13300  0.42800  Biso   1.000  H
  H41      1.0000 0.39600  0.47900  0.81300  Biso   1.000  H
  H42      1.0000 0.89600  0.97900  0.81300  Biso   1.000  H
  H43      1.0000 0.60400  0.47900  0.68700  Biso   1.000  H
  H44      1.0000 0.10400  0.97900  0.68700  Biso   1.000  H
  H45      1.0000 0.60400  0.52100  0.18700  Biso   1.000  H
  H46      1.0000 0.10400  0.02100  0.18700  Biso   1.000  H
  H47      1.0000 0.39600  0.52100  0.31300  Biso   1.000  H
  H48      1.0000 0.89600  0.02100  0.31300  Biso   1.000  H
  H49      1.0000 0.22900  0.51470  0.86800  Biso   1.000  H
  H50      1.0000 0.72900  0.01470  0.86800  Biso   1.000  H
  H51      1.0000 0.77100  0.51470  0.63200  Biso   1.000  H
  H52      1.0000 0.27100  0.01470  0.63200  Biso   1.000  H
  H53      1.0000 0.77100  0.48530  0.13200  Biso   1.000  H
  H54      1.0000 0.27100  0.98530  0.13200  Biso   1.000  H
  H55      1.0000 0.22900  0.48530  0.36800  Biso   1.000  H
  H56      1.0000 0.72900  0.98530  0.36800  Biso   1.000  H
