data_image0
_cell_length_a       12.941
_cell_length_b       13.292
_cell_length_c       10.398
_cell_angle_alpha    90
_cell_angle_beta     100.09
_cell_angle_gamma    90

_symmetry_space_group_name_H-M    "P 1"
_symmetry_int_tables_number       1

loop_
  _symmetry_equiv_pos_as_xyz
  'x, y, z'

loop_
  _atom_site_label
  _atom_site_occupancy
  _atom_site_fract_x
  _atom_site_fract_y
  _atom_site_fract_z
  _atom_site_thermal_displace_type
  _atom_site_B_iso_or_equiv
  _atom_site_type_symbol
  Cu1      1.0000 0.00000  0.50000  0.00000  Biso   1.000  Cu
  Cu2      1.0000 0.50000  0.00000  0.00000  Biso   1.000  Cu
  Cu3      1.0000 0.00000  0.50000  0.50000  Biso   1.000  Cu
  Cu4      1.0000 0.50000  0.00000  0.50000  Biso   1.000  Cu
  O1       1.0000 0.00000  0.45470  0.75000  Biso   1.000  O
  O2       1.0000 0.50000  0.95470  0.75000  Biso   1.000  O
  O3       1.0000 0.00000  0.54530  0.25000  Biso   1.000  O
  O4       1.0000 0.50000  0.04530  0.25000  Biso   1.000  O
  O5       1.0000 0.92754  0.37887  0.04052  Biso   1.000  O
  O6       1.0000 0.42754  0.87887  0.04052  Biso   1.000  O
  O7       1.0000 0.07246  0.37887  0.45948  Biso   1.000  O
  O8       1.0000 0.57246  0.87887  0.45948  Biso   1.000  O
  O9       1.0000 0.07246  0.62113  0.95948  Biso   1.000  O
  O10      1.0000 0.57246  0.12113  0.95948  Biso   1.000  O
  O11      1.0000 0.92754  0.62113  0.54052  Biso   1.000  O
  O12      1.0000 0.42754  0.12113  0.54052  Biso   1.000  O
  O13      1.0000 0.85583  0.32996  0.83929  Biso   1.000  O
  O14      1.0000 0.35583  0.82996  0.83929  Biso   1.000  O
  O15      1.0000 0.14417  0.32996  0.66071  Biso   1.000  O
  O16      1.0000 0.64417  0.82996  0.66071  Biso   1.000  O
  O17      1.0000 0.14417  0.67004  0.16071  Biso   1.000  O
  O18      1.0000 0.64417  0.17004  0.16071  Biso   1.000  O
  O19      1.0000 0.85583  0.67004  0.33929  Biso   1.000  O
  O20      1.0000 0.35583  0.17004  0.33929  Biso   1.000  O
  N1       1.0000 0.13576  0.42477  0.05563  Biso   1.000  N
  N2       1.0000 0.63576  0.92477  0.05563  Biso   1.000  N
  N3       1.0000 0.86424  0.42477  0.44437  Biso   1.000  N
  N4       1.0000 0.36424  0.92477  0.44437  Biso   1.000  N
  N5       1.0000 0.86424  0.57523  0.94437  Biso   1.000  N
  N6       1.0000 0.36424  0.07523  0.94437  Biso   1.000  N
  N7       1.0000 0.13576  0.57523  0.55563  Biso   1.000  N
  N8       1.0000 0.63576  0.07523  0.55563  Biso   1.000  N
  N9       1.0000 0.24643  0.31795  0.17270  Biso   1.000  N
  N10      1.0000 0.74643  0.81795  0.17270  Biso   1.000  N
  N11      1.0000 0.75357  0.31795  0.32730  Biso   1.000  N
  N12      1.0000 0.25357  0.81795  0.32730  Biso   1.000  N
  N13      1.0000 0.75357  0.68205  0.82730  Biso   1.000  N
  N14      1.0000 0.25357  0.18205  0.82730  Biso   1.000  N
  N15      1.0000 0.24643  0.68205  0.67270  Biso   1.000  N
  N16      1.0000 0.74643  0.18205  0.67270  Biso   1.000  N
  C1       1.0000 0.15040  0.36010  0.15280  Biso   1.000  C
  C2       1.0000 0.65040  0.86010  0.15280  Biso   1.000  C
  C3       1.0000 0.84960  0.36010  0.34720  Biso   1.000  C
  C4       1.0000 0.34960  0.86010  0.34720  Biso   1.000  C
  C5       1.0000 0.84960  0.63990  0.84720  Biso   1.000  C
  C6       1.0000 0.34960  0.13990  0.84720  Biso   1.000  C
  C7       1.0000 0.15040  0.63990  0.65280  Biso   1.000  C
  C8       1.0000 0.65040  0.13990  0.65280  Biso   1.000  C
  C9       1.0000 0.29980  0.35642  0.08060  Biso   1.000  C
  C10      1.0000 0.79980  0.85642  0.08060  Biso   1.000  C
  C11      1.0000 0.70020  0.35642  0.41940  Biso   1.000  C
  C12      1.0000 0.20020  0.85642  0.41940  Biso   1.000  C
  C13      1.0000 0.70020  0.64358  0.91940  Biso   1.000  C
  C14      1.0000 0.20020  0.14358  0.91940  Biso   1.000  C
  C15      1.0000 0.29980  0.64358  0.58060  Biso   1.000  C
  C16      1.0000 0.79980  0.14358  0.58060  Biso   1.000  C
  C17      1.0000 0.40030  0.33890  0.05580  Biso   1.000  C
  C18      1.0000 0.90030  0.83890  0.05580  Biso   1.000  C
  C19      1.0000 0.59970  0.33890  0.44420  Biso   1.000  C
  C20      1.0000 0.09970  0.83890  0.44420  Biso   1.000  C
  C21      1.0000 0.59970  0.66110  0.94420  Biso   1.000  C
  C22      1.0000 0.09970  0.16110  0.94420  Biso   1.000  C
  C23      1.0000 0.40030  0.66110  0.55580  Biso   1.000  C
  C24      1.0000 0.90030  0.16110  0.55580  Biso   1.000  C
  C25      1.0000 0.42800  0.38990  0.95300  Biso   1.000  C
  C26      1.0000 0.92800  0.88990  0.95300  Biso   1.000  C
  C27      1.0000 0.57200  0.38990  0.54700  Biso   1.000  C
  C28      1.0000 0.07200  0.88990  0.54700  Biso   1.000  C
  C29      1.0000 0.57200  0.61010  0.04700  Biso   1.000  C
  C30      1.0000 0.07200  0.11010  0.04700  Biso   1.000  C
  C31      1.0000 0.42800  0.61010  0.45300  Biso   1.000  C
  C32      1.0000 0.92800  0.11010  0.45300  Biso   1.000  C
  C33      1.0000 0.35900  0.45660  0.87670  Biso   1.000  C
  C34      1.0000 0.85900  0.95660  0.87670  Biso   1.000  C
  C35      1.0000 0.64100  0.45660  0.62330  Biso   1.000  C
  C36      1.0000 0.14100  0.95660  0.62330  Biso   1.000  C
  C37      1.0000 0.64100  0.54340  0.12330  Biso   1.000  C
  C38      1.0000 0.14100  0.04340  0.12330  Biso   1.000  C
  C39      1.0000 0.35900  0.54340  0.37670  Biso   1.000  C
  C40      1.0000 0.85900  0.04340  0.37670  Biso   1.000  C
  C41      1.0000 0.26010  0.47410  0.90250  Biso   1.000  C
  C42      1.0000 0.76010  0.97410  0.90250  Biso   1.000  C
  C43      1.0000 0.73990  0.47410  0.59750  Biso   1.000  C
  C44      1.0000 0.23990  0.97410  0.59750  Biso   1.000  C
  C45      1.0000 0.73990  0.52590  0.09750  Biso   1.000  C
  C46      1.0000 0.23990  0.02590  0.09750  Biso   1.000  C
  C47      1.0000 0.26010  0.52590  0.40250  Biso   1.000  C
  C48      1.0000 0.76010  0.02590  0.40250  Biso   1.000  C
  C49      1.0000 0.23025  0.42381  0.00610  Biso   1.000  C
  C50      1.0000 0.73025  0.92381  0.00610  Biso   1.000  C
  C51      1.0000 0.76975  0.42381  0.49390  Biso   1.000  C
  C52      1.0000 0.26975  0.92381  0.49390  Biso   1.000  C
  C53      1.0000 0.76975  0.57619  0.99390  Biso   1.000  C
  C54      1.0000 0.26975  0.07619  0.99390  Biso   1.000  C
  C55      1.0000 0.23025  0.57619  0.50610  Biso   1.000  C
  C56      1.0000 0.73025  0.07619  0.50610  Biso   1.000  C
  C57      1.0000 0.86626  0.32638  0.95980  Biso   1.000  C
  C58      1.0000 0.36626  0.82638  0.95980  Biso   1.000  C
  C59      1.0000 0.13374  0.32638  0.54020  Biso   1.000  C
  C60      1.0000 0.63374  0.82638  0.54020  Biso   1.000  C
  C61      1.0000 0.13374  0.67362  0.04020  Biso   1.000  C
  C62      1.0000 0.63374  0.17362  0.04020  Biso   1.000  C
  C63      1.0000 0.86626  0.67362  0.45980  Biso   1.000  C
  C64      1.0000 0.36626  0.17362  0.45980  Biso   1.000  C
  C65      1.0000 0.79996  0.25624  0.02220  Biso   1.000  C
  C66      1.0000 0.29996  0.75624  0.02220  Biso   1.000  C
  C67      1.0000 0.20004  0.25624  0.47780  Biso   1.000  C
  C68      1.0000 0.70004  0.75624  0.47780  Biso   1.000  C
  C69      1.0000 0.20004  0.74376  0.97780  Biso   1.000  C
  C70      1.0000 0.70004  0.24376  0.97780  Biso   1.000  C
  C71      1.0000 0.79996  0.74376  0.52220  Biso   1.000  C
  C72      1.0000 0.29996  0.24376  0.52220  Biso   1.000  C
  H1       1.0000 0.95300  0.41800  0.76400  Biso   1.000  H
  H2       1.0000 0.45300  0.91800  0.76400  Biso   1.000  H
  H3       1.0000 0.04700  0.41800  0.73600  Biso   1.000  H
  H4       1.0000 0.54700  0.91800  0.73600  Biso   1.000  H
  H5       1.0000 0.04700  0.58200  0.23600  Biso   1.000  H
  H6       1.0000 0.54700  0.08200  0.23600  Biso   1.000  H
  H7       1.0000 0.95300  0.58200  0.26400  Biso   1.000  H
  H8       1.0000 0.45300  0.08200  0.26400  Biso   1.000  H
  H9       1.0000 0.09800  0.34200  0.21100  Biso   1.000  H
  H10      1.0000 0.59800  0.84200  0.21100  Biso   1.000  H
  H11      1.0000 0.90200  0.34200  0.28900  Biso   1.000  H
  H12      1.0000 0.40200  0.84200  0.28900  Biso   1.000  H
  H13      1.0000 0.90200  0.65800  0.78900  Biso   1.000  H
  H14      1.0000 0.40200  0.15800  0.78900  Biso   1.000  H
  H15      1.0000 0.09800  0.65800  0.71100  Biso   1.000  H
  H16      1.0000 0.59800  0.15800  0.71100  Biso   1.000  H
  H17      1.0000 0.27000  0.27300  0.22600  Biso   1.000  H
  H18      1.0000 0.77000  0.77300  0.22600  Biso   1.000  H
  H19      1.0000 0.73000  0.27300  0.27400  Biso   1.000  H
  H20      1.0000 0.23000  0.77300  0.27400  Biso   1.000  H
  H21      1.0000 0.73000  0.72700  0.77400  Biso   1.000  H
  H22      1.0000 0.23000  0.22700  0.77400  Biso   1.000  H
  H23      1.0000 0.27000  0.72700  0.72600  Biso   1.000  H
  H24      1.0000 0.77000  0.22700  0.72600  Biso   1.000  H
  H25      1.0000 0.44400  0.29900  0.10600  Biso   1.000  H
  H26      1.0000 0.94400  0.79900  0.10600  Biso   1.000  H
  H27      1.0000 0.55600  0.29900  0.39400  Biso   1.000  H
  H28      1.0000 0.05600  0.79900  0.39400  Biso   1.000  H
  H29      1.0000 0.55600  0.70100  0.89400  Biso   1.000  H
  H30      1.0000 0.05600  0.20100  0.89400  Biso   1.000  H
  H31      1.0000 0.44400  0.70100  0.60600  Biso   1.000  H
  H32      1.0000 0.94400  0.20100  0.60600  Biso   1.000  H
  H33      1.0000 0.49800  0.38000  0.92300  Biso   1.000  H
  H34      1.0000 0.99800  0.88000  0.92300  Biso   1.000  H
  H35      1.0000 0.50200  0.38000  0.57700  Biso   1.000  H
  H36      1.0000 0.00200  0.88000  0.57700  Biso   1.000  H
  H37      1.0000 0.50200  0.62000  0.07700  Biso   1.000  H
  H38      1.0000 0.00200  0.12000  0.07700  Biso   1.000  H
  H39      1.0000 0.49800  0.62000  0.42300  Biso   1.000  H
  H40      1.0000 0.99800  0.12000  0.42300  Biso   1.000  H
  H41      1.0000 0.38000  0.48600  0.80500  Biso   1.000  H
  H42      1.0000 0.88000  0.98600  0.80500  Biso   1.000  H
  H43      1.0000 0.62000  0.48600  0.69500  Biso   1.000  H
  H44      1.0000 0.12000  0.98600  0.69500  Biso   1.000  H
  H45      1.0000 0.62000  0.51400  0.19500  Biso   1.000  H
  H46      1.0000 0.12000  0.01400  0.19500  Biso   1.000  H
  H47      1.0000 0.38000  0.51400  0.30500  Biso   1.000  H
  H48      1.0000 0.88000  0.01400  0.30500  Biso   1.000  H
  H49      1.0000 0.21300  0.51800  0.85600  Biso   1.000  H
  H50      1.0000 0.71300  0.01800  0.85600  Biso   1.000  H
  H51      1.0000 0.78700  0.51800  0.64400  Biso   1.000  H
  H52      1.0000 0.28700  0.01800  0.64400  Biso   1.000  H
  H53      1.0000 0.78700  0.48200  0.14400  Biso   1.000  H
  H54      1.0000 0.28700  0.98200  0.14400  Biso   1.000  H
  H55      1.0000 0.21300  0.48200  0.35600  Biso   1.000  H
  H56      1.0000 0.71300  0.98200  0.35600  Biso   1.000  H
  H57      1.0000 0.83300  0.22200  0.10000  Biso   1.000  H
  H58      1.0000 0.33300  0.72200  0.10000  Biso   1.000  H
  H59      1.0000 0.16700  0.22200  0.40000  Biso   1.000  H
  H60      1.0000 0.66700  0.72200  0.40000  Biso   1.000  H
  H61      1.0000 0.16700  0.77800  0.90000  Biso   1.000  H
  H62      1.0000 0.66700  0.27800  0.90000  Biso   1.000  H
  H63      1.0000 0.83300  0.77800  0.60000  Biso   1.000  H
  H64      1.0000 0.33300  0.27800  0.60000  Biso   1.000  H
