data_image0
_cell_length_a       6.073
_cell_length_b       8.8632
_cell_length_c       11.334
_cell_angle_alpha    110.97
_cell_angle_beta     92.94
_cell_angle_gamma    108.14

_symmetry_space_group_name_H-M    "P 1"
_symmetry_int_tables_number       1

loop_
  _symmetry_equiv_pos_as_xyz
  'x, y, z'

loop_
  _atom_site_label
  _atom_site_occupancy
  _atom_site_fract_x
  _atom_site_fract_y
  _atom_site_fract_z
  _atom_site_thermal_displace_type
  _atom_site_B_iso_or_equiv
  _atom_site_type_symbol
  C1       1.0000 0.24780  0.58070  0.36250  Biso   1.000  C
  C2       1.0000 0.75220  0.41930  0.63750  Biso   1.000  C
  H1       1.0000 0.15130  0.57260  0.42280  Biso   1.000  H
  H2       1.0000 0.84870  0.42740  0.57720  Biso   1.000  H
  C3       1.0000 0.36370  0.53430  0.18700  Biso   1.000  C
  C4       1.0000 0.63630  0.46570  0.81300  Biso   1.000  C
  H3       1.0000 0.37070  0.49080  0.10010  Biso   1.000  H
  H4       1.0000 0.62930  0.50920  0.89990  Biso   1.000  H
  C5       1.0000 0.78360  0.73540  0.26330  Biso   1.000  C
  C6       1.0000 0.21640  0.26460  0.73670  Biso   1.000  C
  H5       1.0000 0.82580  0.64850  0.19790  Biso   1.000  H
  H6       1.0000 0.17420  0.35150  0.80210  Biso   1.000  H
  H7       1.0000 0.88970  0.77310  0.34350  Biso   1.000  H
  H8       1.0000 0.11030  0.22690  0.65650  Biso   1.000  H
  C7       1.0000 0.81910  0.89060  0.22520  Biso   1.000  C
  C8       1.0000 0.18090  0.10940  0.77480  Biso   1.000  C
  Cu1      1.0000 0.61906  0.89841  0.56535  Biso   1.000  Cu
  Cu2      1.0000 0.38094  0.10159  0.43465  Biso   1.000  Cu
  Cu3      1.0000 0.90550  0.22120  0.14066  Biso   1.000  Cu
  Cu4      1.0000 0.09450  0.77880  0.85934  Biso   1.000  Cu
  N1       1.0000 0.54230  0.65700  0.27860  Biso   1.000  N
  N2       1.0000 0.45770  0.34300  0.72140  Biso   1.000  N
  N3       1.0000 0.46700  0.68930  0.39360  Biso   1.000  N
  N4       1.0000 0.53300  0.31070  0.60640  Biso   1.000  N
  N5       1.0000 0.17560  0.48250  0.23580  Biso   1.000  N
  N6       1.0000 0.82440  0.51750  0.76420  Biso   1.000  N
  O1       1.0000 0.67340  0.05800  0.44200  Biso   1.000  O
  O2       1.0000 0.32660  0.94200  0.55800  Biso   1.000  O
  O3       1.0000 0.82470  0.21860  0.30410  Biso   1.000  O
  O4       1.0000 0.17530  0.78140  0.69590  Biso   1.000  O
  O5       1.0000 0.10300  0.15670  0.44080  Biso   1.000  O
  O6       1.0000 0.89700  0.84330  0.55920  Biso   1.000  O
  O7       1.0000 0.05080  0.78100  0.02870  Biso   1.000  O
  O8       1.0000 0.94920  0.21900  0.97130  Biso   1.000  O
  O9       1.0000 0.13740  0.10390  0.14460  Biso   1.000  O
  O10      1.0000 0.86260  0.89610  0.85540  Biso   1.000  O
  O11      1.0000 0.27860  0.93680  0.25320  Biso   1.000  O
  O12      1.0000 0.72140  0.06320  0.74680  Biso   1.000  O
  O13      1.0000 0.61950  0.85300  0.13100  Biso   1.000  O
  O14      1.0000 0.38050  0.14700  0.86900  Biso   1.000  O
  O15      1.0000 0.59840  0.26120  0.11530  Biso   1.000  O
  O16      1.0000 0.40160  0.73880  0.88470  Biso   1.000  O
  P1       1.0000 0.86142  0.09585  0.36127  Biso   1.000  P
  P2       1.0000 0.13858  0.90415  0.63873  Biso   1.000  P
  P3       1.0000 0.08785  0.93043  0.15494  Biso   1.000  P
  P4       1.0000 0.91215  0.06957  0.84506  Biso   1.000  P
  H9       1.0000 0.50300  0.86500  0.16900  Biso   1.000  H
  H10      1.0000 0.49700  0.13500  0.83100  Biso   1.000  H
