data_image0
_cell_length_a       5.4886
_cell_length_b       9.5526
_cell_length_c       10.6823
_cell_angle_alpha    70.396
_cell_angle_beta     82.478
_cell_angle_gamma    78.258

_symmetry_space_group_name_H-M    "P 1"
_symmetry_int_tables_number       1

loop_
  _symmetry_equiv_pos_as_xyz
  'x, y, z'

loop_
  _atom_site_label
  _atom_site_occupancy
  _atom_site_fract_x
  _atom_site_fract_y
  _atom_site_fract_z
  _atom_site_thermal_displace_type
  _atom_site_B_iso_or_equiv
  _atom_site_type_symbol
  Cu1      1.0000 0.93270  0.12120  0.06230  Biso   1.000  Cu
  Cu2      1.0000 0.06730  0.87880  0.93770  Biso   1.000  Cu
  Cu3      1.0000 0.50000  0.50000  0.00000  Biso   1.000  Cu
  Cu4      1.0000 0.50000  0.00000  0.00000  Biso   1.000  Cu
  Cu5      1.0000 0.00000  0.50000  0.00000  Biso   1.000  Cu
  S1       1.0000 0.37060  0.34920  0.77670  Biso   1.000  S
  S2       1.0000 0.62940  0.65080  0.22330  Biso   1.000  S
  P1       1.0000 0.32240  0.18740  0.19370  Biso   1.000  P
  P2       1.0000 0.67760  0.81260  0.80630  Biso   1.000  P
  O1       1.0000 0.05820  0.14840  0.23060  Biso   1.000  O
  O2       1.0000 0.94180  0.85160  0.76940  Biso   1.000  O
  O3       1.0000 0.51240  0.08860  0.13190  Biso   1.000  O
  O4       1.0000 0.48760  0.91140  0.86810  Biso   1.000  O
  O5       1.0000 0.26290  0.34240  0.09710  Biso   1.000  O
  O6       1.0000 0.73710  0.65760  0.90290  Biso   1.000  O
  O7       1.0000 0.26010  0.21750  0.85940  Biso   1.000  O
  O8       1.0000 0.73990  0.78250  0.14060  Biso   1.000  O
  O9       1.0000 0.65150  0.32120  0.76270  Biso   1.000  O
  O10      1.0000 0.34850  0.67880  0.23730  Biso   1.000  O
  O11      1.0000 0.25800  0.49320  0.80740  Biso   1.000  O
  O12      1.0000 0.74200  0.50680  0.19260  Biso   1.000  O
  O13      1.0000 0.80380  0.07270  0.90120  Biso   1.000  O
  O14      1.0000 0.19620  0.92730  0.09880  Biso   1.000  O
  O15      1.0000 0.19280  0.66000  0.02660  Biso   1.000  O
  O16      1.0000 0.80720  0.34000  0.97340  Biso   1.000  O
  C1       1.0000 0.44910  0.18110  0.34490  Biso   1.000  C
  C2       1.0000 0.55090  0.81890  0.65510  Biso   1.000  C
  C3       1.0000 0.26630  0.26770  0.43180  Biso   1.000  C
  C4       1.0000 0.73370  0.73230  0.56820  Biso   1.000  C
  C5       1.0000 0.38470  0.25860  0.55430  Biso   1.000  C
  C6       1.0000 0.61530  0.74140  0.44570  Biso   1.000  C
  C7       1.0000 0.27490  0.38800  0.61310  Biso   1.000  C
  C8       1.0000 0.72510  0.61200  0.38690  Biso   1.000  C
