data_image0
_cell_length_a       11.384
_cell_length_b       12.189
_cell_length_c       23.331
_cell_angle_alpha    83.75
_cell_angle_beta     82.022
_cell_angle_gamma    70.697

_symmetry_space_group_name_H-M    "P 1"
_symmetry_int_tables_number       1

loop_
  _symmetry_equiv_pos_as_xyz
  'x, y, z'

loop_
  _atom_site_label
  _atom_site_occupancy
  _atom_site_fract_x
  _atom_site_fract_y
  _atom_site_fract_z
  _atom_site_thermal_displace_type
  _atom_site_B_iso_or_equiv
  _atom_site_type_symbol
  W1       1.0000 0.91117  0.49088  0.76447  Biso   1.000  W
  W2       1.0000 0.08883  0.50912  0.23553  Biso   1.000  W
  W3       1.0000 0.01059  0.34366  0.63091  Biso   1.000  W
  W4       1.0000 0.98941  0.65634  0.36909  Biso   1.000  W
  W5       1.0000 0.01731  0.98575  0.74517  Biso   1.000  W
  W6       1.0000 0.98269  0.01425  0.25483  Biso   1.000  W
  W7       1.0000 0.23396  0.07845  0.63100  Biso   1.000  W
  W8       1.0000 0.76604  0.92155  0.36900  Biso   1.000  W
  W9       1.0000 0.31600  0.31348  0.64562  Biso   1.000  W
  W10      1.0000 0.68400  0.68652  0.35438  Biso   1.000  W
  W11      1.0000 0.21112  0.46532  0.78200  Biso   1.000  W
  W12      1.0000 0.78888  0.53468  0.21800  Biso   1.000  W
  W13      1.0000 0.02890  0.37080  0.88917  Biso   1.000  W
  W14      1.0000 0.97110  0.62920  0.11083  Biso   1.000  W
  W15      1.0000 0.25684  0.07533  0.89234  Biso   1.000  W
  W16      1.0000 0.74316  0.92467  0.10766  Biso   1.000  W
  W17      1.0000 0.35001  0.93168  0.76910  Biso   1.000  W
  W18      1.0000 0.64999  0.06832  0.23090  Biso   1.000  W
  W19      1.0000 0.92758  0.11811  0.86721  Biso   1.000  W
  W20      1.0000 0.07242  0.88189  0.13279  Biso   1.000  W
  W21      1.0000 0.43711  0.16576  0.78342  Biso   1.000  W
  W22      1.0000 0.56289  0.83424  0.21658  Biso   1.000  W
  Cu1      1.0000 0.89140  0.75750  0.74498  Biso   1.000  Cu
  Cu2      1.0000 0.10860  0.24250  0.25502  Biso   1.000  Cu
  Cu3      1.0000 0.30840  0.86950  0.02778  Biso   1.000  Cu
  Cu4      1.0000 0.69160  0.13050  0.97222  Biso   1.000  Cu
  Cu5      1.0000 0.50000  0.50000  0.50000  Biso   1.000  Cu
  Sm1      1.0000 0.73650  0.26703  0.73989  Biso   1.000  Sm
  Sm2      1.0000 0.26350  0.73297  0.26011  Biso   1.000  Sm
  Si1      1.0000 0.12640  0.21270  0.76270  Biso   1.000  Si
  Si2      1.0000 0.87360  0.78730  0.23730  Biso   1.000  Si
  O1       1.0000 0.80730  0.63010  0.75750  Biso   1.000  O
  O2       1.0000 0.19270  0.36990  0.24250  Biso   1.000  O
  O3       1.0000 0.94220  0.42680  0.57300  Biso   1.000  O
  O4       1.0000 0.05780  0.57320  0.42700  Biso   1.000  O
  O5       1.0000 0.01230  0.84840  0.73390  Biso   1.000  O
  O6       1.0000 0.98770  0.15160  0.26610  Biso   1.000  O
  O7       1.0000 0.28160  0.98210  0.57730  Biso   1.000  O
  O8       1.0000 0.71840  0.01790  0.42270  Biso   1.000  O
  O9       1.0000 0.42480  0.36750  0.60420  Biso   1.000  O
  O10      1.0000 0.57520  0.63250  0.39580  Biso   1.000  O
  O11      1.0000 0.29080  0.56360  0.78480  Biso   1.000  O
  O12      1.0000 0.70920  0.43640  0.21520  Biso   1.000  O
  O13      1.0000 0.98060  0.41680  0.95780  Biso   1.000  O
  O14      1.0000 0.01940  0.58320  0.04220  Biso   1.000  O
  O15      1.0000 0.29450  0.02030  0.96250  Biso   1.000  O
  O16      1.0000 0.70550  0.97970  0.03750  Biso   1.000  O
  O17      1.0000 0.44500  0.78840  0.76060  Biso   1.000  O
  O18      1.0000 0.55500  0.21160  0.23940  Biso   1.000  O
  O19      1.0000 0.86020  0.07220  0.93350  Biso   1.000  O
  O20      1.0000 0.13980  0.92780  0.06650  Biso   1.000  O
  O21      1.0000 0.59340  0.16230  0.78180  Biso   1.000  O
  O22      1.0000 0.40660  0.83770  0.21820  Biso   1.000  O
  O23      1.0000 0.24830  0.13500  0.79200  Biso   1.000  O
  O24      1.0000 0.75170  0.86500  0.20800  Biso   1.000  O
  O25      1.0000 0.34720  0.16600  0.60610  Biso   1.000  O
  O26      1.0000 0.65280  0.83400  0.39390  Biso   1.000  O
  O27      1.0000 0.10500  0.20300  0.59500  Biso   1.000  O
  O28      1.0000 0.89500  0.79700  0.40500  Biso   1.000  O
  O29      1.0000 0.17730  0.38110  0.61050  Biso   1.000  O
  O30      1.0000 0.82270  0.61890  0.38950  Biso   1.000  O
  O31      1.0000 0.32820  0.00050  0.69070  Biso   1.000  O
  O32      1.0000 0.67180  0.99950  0.30930  Biso   1.000  O
  O33      1.0000 0.25870  0.41890  0.70430  Biso   1.000  O
  O34      1.0000 0.74130  0.58110  0.29570  Biso   1.000  O
  O35      1.0000 0.97720  0.46100  0.68670  Biso   1.000  O
  O36      1.0000 0.02280  0.53900  0.31330  Biso   1.000  O
  O37      1.0000 0.89770  0.28500  0.66780  Biso   1.000  O
  O38      1.0000 0.10230  0.71500  0.33220  Biso   1.000  O
  O39      1.0000 0.18750  0.92970  0.77140  Biso   1.000  O
  O40      1.0000 0.81250  0.07030  0.22860  Biso   1.000  O
  O41      1.0000 0.86380  0.07160  0.73110  Biso   1.000  O
  O42      1.0000 0.13620  0.92840  0.26890  Biso   1.000  O
  O43      1.0000 0.81690  0.40460  0.76820  Biso   1.000  O
  O44      1.0000 0.18310  0.59540  0.23180  Biso   1.000  O
  O45      1.0000 0.79100  0.18770  0.83530  Biso   1.000  O
  O46      1.0000 0.20900  0.81230  0.16470  Biso   1.000  O
  O47      1.0000 0.96740  0.97860  0.82650  Biso   1.000  O
  O48      1.0000 0.03260  0.02140  0.17350  Biso   1.000  O
  O49      1.0000 0.10540  0.05590  0.89030  Biso   1.000  O
  O50      1.0000 0.89460  0.94410  0.10970  Biso   1.000  O
  O51      1.0000 0.33900  0.93490  0.85210  Biso   1.000  O
  O52      1.0000 0.66100  0.06510  0.14790  Biso   1.000  O
  O53      1.0000 0.17070  0.23950  0.90270  Biso   1.000  O
  O54      1.0000 0.82930  0.76050  0.09730  Biso   1.000  O
  O55      1.0000 0.90730  0.48950  0.84860  Biso   1.000  O
  O56      1.0000 0.09270  0.51050  0.15140  Biso   1.000  O
  O57      1.0000 0.05820  0.56000  0.76310  Biso   1.000  O
  O58      1.0000 0.94180  0.44000  0.23690  Biso   1.000  O
  O59      1.0000 0.47670  0.00990  0.76610  Biso   1.000  O
  O60      1.0000 0.52330  0.99010  0.23390  Biso   1.000  O
  O61      1.0000 0.14380  0.45680  0.86240  Biso   1.000  O
  O62      1.0000 0.85620  0.54320  0.13760  Biso   1.000  O
  O63      1.0000 0.33740  0.32150  0.79980  Biso   1.000  O
  O64      1.0000 0.66260  0.67850  0.20020  Biso   1.000  O
  O65      1.0000 0.94620  0.25890  0.88590  Biso   1.000  O
  O66      1.0000 0.05380  0.74110  0.11410  Biso   1.000  O
  O67      1.0000 0.41160  0.21310  0.70540  Biso   1.000  O
  O68      1.0000 0.58840  0.78690  0.29460  Biso   1.000  O
  O69      1.0000 0.10550  0.02170  0.67420  Biso   1.000  O
  O70      1.0000 0.89450  0.97830  0.32580  Biso   1.000  O
  O71      1.0000 0.41120  0.11570  0.86400  Biso   1.000  O
  O72      1.0000 0.58880  0.88430  0.13600  Biso   1.000  O
  O73      1.0000 0.16310  0.22970  0.69180  Biso   1.000  O
  O74      1.0000 0.83690  0.77030  0.30820  Biso   1.000  O
  O75      1.0000 0.08570  0.33560  0.78850  Biso   1.000  O
  O76      1.0000 0.91430  0.66440  0.21150  Biso   1.000  O
  O77      1.0000 0.02200  0.15100  0.77880  Biso   1.000  O
  O78      1.0000 0.97800  0.84900  0.22120  Biso   1.000  O
  O79      1.0000 0.56360  0.40610  0.80650  Biso   1.000  O
  O80      1.0000 0.43640  0.59390  0.19350  Biso   1.000  O
  O81      1.0000 0.59800  0.42000  0.67980  Biso   1.000  O
  O82      1.0000 0.40200  0.58000  0.32020  Biso   1.000  O
  O83      1.0000 0.67730  0.18210  0.65860  Biso   1.000  O
  O84      1.0000 0.32270  0.81790  0.34140  Biso   1.000  O
  O85      1.0000 0.73380  0.90700  0.74010  Biso   1.000  O
  O86      1.0000 0.26620  0.09300  0.25990  Biso   1.000  O
  O87      1.0000 0.36280  0.93070  0.09330  Biso   1.000  O
  O88      1.0000 0.63720  0.06930  0.90670  Biso   1.000  O
  C1       1.0000 0.99640  0.73170  0.62640  Biso   1.000  C
  C2       1.0000 0.00360  0.26830  0.37360  Biso   1.000  C
  H1       1.0000 0.06250  0.74480  0.64080  Biso   1.000  H
  H2       1.0000 0.93750  0.25520  0.35920  Biso   1.000  H
  C3       1.0000 0.01220  0.70040  0.56870  Biso   1.000  C
  C4       1.0000 0.98780  0.29960  0.43130  Biso   1.000  C
  C5       1.0000 0.91200  0.68800  0.54150  Biso   1.000  C
  C6       1.0000 0.08800  0.31200  0.45850  Biso   1.000  C
  H3       1.0000 0.91800  0.66900  0.50350  Biso   1.000  H
  H4       1.0000 0.08200  0.33100  0.49650  Biso   1.000  H
  C7       1.0000 0.79720  0.71190  0.58420  Biso   1.000  C
  C8       1.0000 0.20280  0.28810  0.41580  Biso   1.000  C
  C9       1.0000 0.79570  0.73470  0.63910  Biso   1.000  C
  C10      1.0000 0.20430  0.26530  0.36090  Biso   1.000  C
  H5       1.0000 0.72170  0.74520  0.66370  Biso   1.000  H
  H6       1.0000 0.27830  0.25480  0.33630  Biso   1.000  H
  C11      1.0000 0.24100  0.60320  0.54870  Biso   1.000  C
  C12      1.0000 0.75900  0.39680  0.45130  Biso   1.000  C
  H7       1.0000 0.25210  0.55110  0.58130  Biso   1.000  H
  H8       1.0000 0.74790  0.44890  0.41870  Biso   1.000  H
  C13      1.0000 0.28000  0.68700  0.46610  Biso   1.000  C
  C14      1.0000 0.72000  0.31300  0.53390  Biso   1.000  C
  H9       1.0000 0.32370  0.70190  0.43100  Biso   1.000  H
  H10      1.0000 0.67630  0.29810  0.56900  Biso   1.000  H
  C15      1.0000 0.15200  0.74000  0.48240  Biso   1.000  C
  C16      1.0000 0.84800  0.26000  0.51760  Biso   1.000  C
  H11      1.0000 0.09530  0.80070  0.46250  Biso   1.000  H
  H12      1.0000 0.90470  0.19930  0.53750  Biso   1.000  H
  C17      1.0000 0.57100  0.77700  0.57040  Biso   1.000  C
  C18      1.0000 0.42900  0.22300  0.42960  Biso   1.000  C
  H13      1.0000 0.54630  0.85020  0.58540  Biso   1.000  H
  H14      1.0000 0.45370  0.14980  0.41460  Biso   1.000  H
  C19      1.0000 0.50000  0.72500  0.54800  Biso   1.000  C
  C20      1.0000 0.50000  0.27500  0.45200  Biso   1.000  C
  H15      1.0000 0.41550  0.76130  0.54320  Biso   1.000  H
  H16      1.0000 0.58450  0.23870  0.45680  Biso   1.000  H
  C21      1.0000 0.67900  0.59800  0.54520  Biso   1.000  C
  C22      1.0000 0.32100  0.40200  0.45480  Biso   1.000  C
  H17      1.0000 0.74460  0.52880  0.54050  Biso   1.000  H
  H18      1.0000 0.25540  0.47120  0.45950  Biso   1.000  H
  C23      1.0000 0.99500  0.75110  0.85160  Biso   1.000  C
  C24      1.0000 0.00500  0.24890  0.14840  Biso   1.000  C
  H19      1.0000 0.06630  0.74890  0.82640  Biso   1.000  H
  H20      1.0000 0.93370  0.25110  0.17360  Biso   1.000  H
  C25      1.0000 0.99910  0.74870  0.91100  Biso   1.000  C
  C26      1.0000 0.00090  0.25130  0.08900  Biso   1.000  C
  C27      1.0000 0.89200  0.75350  0.94970  Biso   1.000  C
  C28      1.0000 0.10800  0.24650  0.05030  Biso   1.000  C
  H21      1.0000 0.89200  0.75210  0.98960  Biso   1.000  H
  H22      1.0000 0.10800  0.24790  0.01040  Biso   1.000  H
  C29      1.0000 0.78600  0.76020  0.92570  Biso   1.000  C
  C30      1.0000 0.21400  0.23980  0.07430  Biso   1.000  C
  C31      1.0000 0.78600  0.76040  0.86630  Biso   1.000  C
  C32      1.0000 0.21400  0.23960  0.13370  Biso   1.000  C
  H23      1.0000 0.71330  0.76320  0.85120  Biso   1.000  H
  H24      1.0000 0.28670  0.23680  0.14880  Biso   1.000  H
  C33      1.0000 0.56600  0.81800  0.95860  Biso   1.000  C
  C34      1.0000 0.43400  0.18200  0.04140  Biso   1.000  C
  H25      1.0000 0.54140  0.87620  0.92960  Biso   1.000  H
  H26      1.0000 0.45860  0.12380  0.07040  Biso   1.000  H
  C35      1.0000 0.68300  0.67600  0.00970  Biso   1.000  C
  C36      1.0000 0.31700  0.32400  0.99030  Biso   1.000  C
  H27      1.0000 0.75480  0.62280  0.02330  Biso   1.000  H
  H28      1.0000 0.24520  0.37720  0.97670  Biso   1.000  H
  C37      1.0000 0.56200  0.69200  0.03270  Biso   1.000  C
  C38      1.0000 0.43800  0.30800  0.96730  Biso   1.000  C
  H29      1.0000 0.53500  0.64750  0.06290  Biso   1.000  H
  H30      1.0000 0.46500  0.35250  0.93710  Biso   1.000  H
  C39      1.0000 0.12600  0.81100  0.96890  Biso   1.000  C
  C40      1.0000 0.87400  0.18900  0.03110  Biso   1.000  C
  H31      1.0000 0.06000  0.86990  0.98600  Biso   1.000  H
  H32      1.0000 0.94000  0.13010  0.01400  Biso   1.000  H
  C41      1.0000 0.23700  0.66300  0.91280  Biso   1.000  C
  C42      1.0000 0.76300  0.33700  0.08720  Biso   1.000  C
  H33      1.0000 0.25700  0.60870  0.88490  Biso   1.000  H
  H34      1.0000 0.74300  0.39130  0.11510  Biso   1.000  H
  C43      1.0000 0.31300  0.68900  0.94520  Biso   1.000  C
  C44      1.0000 0.68700  0.31100  0.05480  Biso   1.000  C
  H35      1.0000 0.39760  0.64740  0.94570  Biso   1.000  H
  H36      1.0000 0.60240  0.35260  0.05430  Biso   1.000  H
  N1       1.0000 0.89330  0.74300  0.66000  Biso   1.000  N
  N2       1.0000 0.10670  0.25700  0.34000  Biso   1.000  N
  N3       1.0000 0.12850  0.68290  0.53480  Biso   1.000  N
  N4       1.0000 0.87150  0.31710  0.46520  Biso   1.000  N
  N5       1.0000 0.32690  0.61370  0.50840  Biso   1.000  N
  N6       1.0000 0.67310  0.38630  0.49160  Biso   1.000  N
  N7       1.0000 0.68640  0.69780  0.56530  Biso   1.000  N
  N8       1.0000 0.31360  0.30220  0.43470  Biso   1.000  N
  N9       1.0000 0.56340  0.61660  0.53380  Biso   1.000  N
  N10      1.0000 0.43660  0.38340  0.46620  Biso   1.000  N
  N11      1.0000 0.89040  0.75660  0.83010  Biso   1.000  N
  N12      1.0000 0.10960  0.24340  0.16990  Biso   1.000  N
  N13      1.0000 0.67790  0.75310  0.96330  Biso   1.000  N
  N14      1.0000 0.32210  0.24690  0.03670  Biso   1.000  N
  N15      1.0000 0.48860  0.78830  0.00250  Biso   1.000  N
  N16      1.0000 0.51140  0.21170  0.99750  Biso   1.000  N
  N17      1.0000 0.11580  0.74080  0.93290  Biso   1.000  N
  N18      1.0000 0.88420  0.25920  0.06710  Biso   1.000  N
  N19      1.0000 0.24860  0.78560  0.97770  Biso   1.000  N
  N20      1.0000 0.75140  0.21440  0.02230  Biso   1.000  N
  O89      1.0000 0.65700  0.43600  0.90500  Biso   1.000  O
  O90      1.0000 0.34300  0.56400  0.09500  Biso   1.000  O
  O91      1.0000 0.57600  0.63400  0.84000  Biso   1.000  O
  O92      1.0000 0.42400  0.36600  0.16000  Biso   1.000  O
  O93      1.0000 0.42700  0.63200  0.68900  Biso   1.000  O
  O94      1.0000 0.57300  0.36800  0.31100  Biso   1.000  O
  O95      1.0000 0.91100  0.99100  0.59400  Biso   1.000  O
  O96      1.0000 0.08900  0.00900  0.40600  Biso   1.000  O
  O97      1.0000 0.58700  0.04900  0.55100  Biso   1.000  O
  O98      1.0000 0.41300  0.95100  0.44900  Biso   1.000  O
