data_image0
_cell_length_a       11.378
_cell_length_b       12.184
_cell_length_c       23.328
_cell_angle_alpha    83.715
_cell_angle_beta     81.99
_cell_angle_gamma    70.714

_symmetry_space_group_name_H-M    "P 1"
_symmetry_int_tables_number       1

loop_
  _symmetry_equiv_pos_as_xyz
  'x, y, z'

loop_
  _atom_site_label
  _atom_site_occupancy
  _atom_site_fract_x
  _atom_site_fract_y
  _atom_site_fract_z
  _atom_site_thermal_displace_type
  _atom_site_B_iso_or_equiv
  _atom_site_type_symbol
  W1       1.0000 0.08841  0.50950  0.23553  Biso   1.000  W
  W2       1.0000 0.91159  0.49050  0.76447  Biso   1.000  W
  W3       1.0000 0.98897  0.65679  0.36914  Biso   1.000  W
  W4       1.0000 0.01103  0.34321  0.63086  Biso   1.000  W
  W5       1.0000 0.98256  0.01434  0.25484  Biso   1.000  W
  W6       1.0000 0.01744  0.98566  0.74516  Biso   1.000  W
  W7       1.0000 0.76538  0.92133  0.36919  Biso   1.000  W
  W8       1.0000 0.23462  0.07867  0.63081  Biso   1.000  W
  W9       1.0000 0.68367  0.68620  0.35466  Biso   1.000  W
  W10      1.0000 0.31633  0.31380  0.64534  Biso   1.000  W
  W11      1.0000 0.78866  0.53435  0.21813  Biso   1.000  W
  W12      1.0000 0.21134  0.46565  0.78187  Biso   1.000  W
  W13      1.0000 0.97035  0.62909  0.11102  Biso   1.000  W
  W14      1.0000 0.02965  0.37091  0.88898  Biso   1.000  W
  W15      1.0000 0.74210  0.92476  0.10777  Biso   1.000  W
  W16      1.0000 0.25790  0.07524  0.89223  Biso   1.000  W
  W17      1.0000 0.64914  0.06816  0.23091  Biso   1.000  W
  W18      1.0000 0.35086  0.93184  0.76909  Biso   1.000  W
  W19      1.0000 0.07163  0.88243  0.13298  Biso   1.000  W
  W20      1.0000 0.92837  0.11757  0.86702  Biso   1.000  W
  W21      1.0000 0.56206  0.83379  0.21687  Biso   1.000  W
  W22      1.0000 0.43794  0.16621  0.78313  Biso   1.000  W
  Cu1      1.0000 0.10846  0.24324  0.25486  Biso   1.000  Cu
  Cu2      1.0000 0.89154  0.75676  0.74514  Biso   1.000  Cu
  Cu3      1.0000 0.69184  0.13081  0.97236  Biso   1.000  Cu
  Cu4      1.0000 0.30816  0.86919  0.02764  Biso   1.000  Cu
  Cu5      1.0000 0.50000  0.50000  0.50000  Biso   1.000  Cu
  Eu1      1.0000 0.26236  0.73370  0.25992  Biso   1.000  Eu
  Eu2      1.0000 0.73764  0.26630  0.74008  Biso   1.000  Eu
  Si1      1.0000 0.87220  0.78670  0.23780  Biso   1.000  Si
  Si2      1.0000 0.12780  0.21330  0.76220  Biso   1.000  Si
  O1       1.0000 0.19490  0.36850  0.24380  Biso   1.000  O
  O2       1.0000 0.80510  0.63150  0.75620  Biso   1.000  O
  O3       1.0000 0.05860  0.57400  0.42600  Biso   1.000  O
  O4       1.0000 0.94140  0.42600  0.57400  Biso   1.000  O
  O5       1.0000 0.98800  0.15280  0.26830  Biso   1.000  O
  O6       1.0000 0.01200  0.84720  0.73170  Biso   1.000  O
  O7       1.0000 0.71680  0.01910  0.42270  Biso   1.000  O
  O8       1.0000 0.28320  0.98090  0.57730  Biso   1.000  O
  O9       1.0000 0.57410  0.63560  0.39510  Biso   1.000  O
  O10      1.0000 0.42590  0.36440  0.60490  Biso   1.000  O
  O11      1.0000 0.71030  0.43540  0.21590  Biso   1.000  O
  O12      1.0000 0.28970  0.56460  0.78410  Biso   1.000  O
  O13      1.0000 0.01840  0.58390  0.04280  Biso   1.000  O
  O14      1.0000 0.98160  0.41610  0.95720  Biso   1.000  O
  O15      1.0000 0.70740  0.97880  0.03870  Biso   1.000  O
  O16      1.0000 0.29260  0.02120  0.96130  Biso   1.000  O
  O17      1.0000 0.55620  0.20620  0.24170  Biso   1.000  O
  O18      1.0000 0.44380  0.79380  0.75830  Biso   1.000  O
  O19      1.0000 0.13640  0.93100  0.06600  Biso   1.000  O
  O20      1.0000 0.86360  0.06900  0.93400  Biso   1.000  O
  O21      1.0000 0.41010  0.83060  0.21840  Biso   1.000  O
  O22      1.0000 0.58990  0.16940  0.78160  Biso   1.000  O
  O23      1.0000 0.74690  0.86870  0.20830  Biso   1.000  O
  O24      1.0000 0.25310  0.13130  0.79170  Biso   1.000  O
  O25      1.0000 0.65460  0.82860  0.39050  Biso   1.000  O
  O26      1.0000 0.34540  0.17140  0.60950  Biso   1.000  O
  O27      1.0000 0.89300  0.79830  0.40610  Biso   1.000  O
  O28      1.0000 0.10700  0.20170  0.59390  Biso   1.000  O
  O29      1.0000 0.82410  0.61790  0.38970  Biso   1.000  O
  O30      1.0000 0.17590  0.38210  0.61030  Biso   1.000  O
  O31      1.0000 0.66610  0.00120  0.31030  Biso   1.000  O
  O32      1.0000 0.33390  0.99880  0.68970  Biso   1.000  O
  O33      1.0000 0.74090  0.57680  0.29530  Biso   1.000  O
  O34      1.0000 0.25910  0.42320  0.70470  Biso   1.000  O
  O35      1.0000 0.02130  0.54100  0.31280  Biso   1.000  O
  O36      1.0000 0.97870  0.45900  0.68720  Biso   1.000  O
  O37      1.0000 0.10290  0.71280  0.33230  Biso   1.000  O
  O38      1.0000 0.89710  0.28720  0.66770  Biso   1.000  O
  O39      1.0000 0.80490  0.07400  0.22990  Biso   1.000  O
  O40      1.0000 0.19510  0.92600  0.77010  Biso   1.000  O
  O41      1.0000 0.13550  0.93070  0.26930  Biso   1.000  O
  O42      1.0000 0.86450  0.06930  0.73070  Biso   1.000  O
  O43      1.0000 0.18380  0.59640  0.23130  Biso   1.000  O
  O44      1.0000 0.81620  0.40360  0.76870  Biso   1.000  O
  O45      1.0000 0.21100  0.81210  0.16540  Biso   1.000  O
  O46      1.0000 0.78900  0.18790  0.83460  Biso   1.000  O
  O47      1.0000 0.03070  0.02150  0.17170  Biso   1.000  O
  O48      1.0000 0.96930  0.97850  0.82830  Biso   1.000  O
  O49      1.0000 0.89230  0.94670  0.11090  Biso   1.000  O
  O50      1.0000 0.10770  0.05330  0.88910  Biso   1.000  O
  O51      1.0000 0.65820  0.06410  0.14750  Biso   1.000  O
  O52      1.0000 0.34180  0.93590  0.85250  Biso   1.000  O
  O53      1.0000 0.82910  0.76520  0.09680  Biso   1.000  O
  O54      1.0000 0.17090  0.23480  0.90320  Biso   1.000  O
  O55      1.0000 0.09180  0.51000  0.15170  Biso   1.000  O
  O56      1.0000 0.90820  0.49000  0.84830  Biso   1.000  O
  O57      1.0000 0.94240  0.43820  0.23720  Biso   1.000  O
  O58      1.0000 0.05760  0.56180  0.76280  Biso   1.000  O
  O59      1.0000 0.51980  0.99520  0.23370  Biso   1.000  O
  O60      1.0000 0.48020  0.00480  0.76630  Biso   1.000  O
  O61      1.0000 0.85490  0.54710  0.13810  Biso   1.000  O
  O62      1.0000 0.14510  0.45290  0.86190  Biso   1.000  O
  O63      1.0000 0.66020  0.67910  0.19870  Biso   1.000  O
  O64      1.0000 0.33980  0.32090  0.80130  Biso   1.000  O
  O65      1.0000 0.05660  0.73830  0.11470  Biso   1.000  O
  O66      1.0000 0.94340  0.26170  0.88530  Biso   1.000  O
  O67      1.0000 0.58610  0.79000  0.29490  Biso   1.000  O
  O68      1.0000 0.41390  0.21000  0.70510  Biso   1.000  O
  O69      1.0000 0.89630  0.97180  0.32460  Biso   1.000  O
  O70      1.0000 0.10370  0.02820  0.67540  Biso   1.000  O
  O71      1.0000 0.59030  0.88190  0.13620  Biso   1.000  O
  O72      1.0000 0.40970  0.11810  0.86380  Biso   1.000  O
  O73      1.0000 0.84000  0.77330  0.30690  Biso   1.000  O
  O74      1.0000 0.16000  0.22670  0.69310  Biso   1.000  O
  O75      1.0000 0.91660  0.65660  0.21210  Biso   1.000  O
  O76      1.0000 0.08340  0.34340  0.78790  Biso   1.000  O
  O77      1.0000 0.97910  0.85170  0.22170  Biso   1.000  O
  O78      1.0000 0.02090  0.14830  0.77830  Biso   1.000  O
  O79      1.0000 0.42990  0.59850  0.19590  Biso   1.000  O
  O80      1.0000 0.57010  0.40150  0.80410  Biso   1.000  O
  O81      1.0000 0.40160  0.58300  0.31890  Biso   1.000  O
  O82      1.0000 0.59840  0.41700  0.68110  Biso   1.000  O
  O83      1.0000 0.32450  0.81560  0.34050  Biso   1.000  O
  O84      1.0000 0.67550  0.18440  0.65950  Biso   1.000  O
  O85      1.0000 0.27370  0.08800  0.25910  Biso   1.000  O
  O86      1.0000 0.72630  0.91200  0.74090  Biso   1.000  O
  O87      1.0000 0.63810  0.07010  0.90680  Biso   1.000  O
  O88      1.0000 0.36190  0.92990  0.09320  Biso   1.000  O
  C1       1.0000 0.99550  0.27220  0.37480  Biso   1.000  C
  C2       1.0000 0.00450  0.72780  0.62520  Biso   1.000  C
  H1       1.0000 0.92700  0.26130  0.36150  Biso   1.000  H
  H2       1.0000 0.07300  0.73870  0.63850  Biso   1.000  H
  C3       1.0000 0.98990  0.30140  0.43090  Biso   1.000  C
  C4       1.0000 0.01010  0.69860  0.56910  Biso   1.000  C
  C5       1.0000 0.09140  0.30670  0.45430  Biso   1.000  C
  C6       1.0000 0.90860  0.69330  0.54570  Biso   1.000  C
  H3       1.0000 0.08700  0.31940  0.49320  Biso   1.000  H
  H4       1.0000 0.91300  0.68060  0.50680  Biso   1.000  H
  C7       1.0000 0.20130  0.29240  0.41740  Biso   1.000  C
  C8       1.0000 0.79870  0.70760  0.58260  Biso   1.000  C
  C9       1.0000 0.20430  0.27030  0.36100  Biso   1.000  C
  C10      1.0000 0.79570  0.72970  0.63900  Biso   1.000  C
  H5       1.0000 0.27790  0.26210  0.33630  Biso   1.000  H
  H6       1.0000 0.72210  0.73790  0.66370  Biso   1.000  H
  C11      1.0000 0.76180  0.39100  0.45090  Biso   1.000  C
  C12      1.0000 0.23820  0.60900  0.54910  Biso   1.000  C
  H7       1.0000 0.75120  0.43700  0.41620  Biso   1.000  H
  H8       1.0000 0.24880  0.56300  0.58380  Biso   1.000  H
  C13      1.0000 0.72400  0.30380  0.53350  Biso   1.000  C
  C14      1.0000 0.27600  0.69620  0.46650  Biso   1.000  C
  H9       1.0000 0.68050  0.27830  0.56610  Biso   1.000  H
  H10      1.0000 0.31950  0.72170  0.43390  Biso   1.000  H
  C15      1.0000 0.85080  0.26210  0.51820  Biso   1.000  C
  C16      1.0000 0.14920  0.73790  0.48180  Biso   1.000  C
  H11      1.0000 0.91000  0.20820  0.53960  Biso   1.000  H
  H12      1.0000 0.09000  0.79180  0.46040  Biso   1.000  H
  C17      1.0000 0.42800  0.22000  0.43050  Biso   1.000  C
  C18      1.0000 0.57200  0.78000  0.56950  Biso   1.000  C
  H13      1.0000 0.45040  0.14490  0.41760  Biso   1.000  H
  H14      1.0000 0.54960  0.85510  0.58240  Biso   1.000  H
  C19      1.0000 0.49980  0.27470  0.45100  Biso   1.000  C
  C20      1.0000 0.50020  0.72530  0.54900  Biso   1.000  C
  H15      1.0000 0.58480  0.23930  0.45420  Biso   1.000  H
  H16      1.0000 0.41520  0.76070  0.54580  Biso   1.000  H
  C21      1.0000 0.32040  0.39950  0.45610  Biso   1.000  C
  C22      1.0000 0.67960  0.60050  0.54390  Biso   1.000  C
  H17      1.0000 0.25290  0.46660  0.46340  Biso   1.000  H
  H18      1.0000 0.74710  0.53340  0.53660  Biso   1.000  H
  C23      1.0000 0.99940  0.25070  0.14850  Biso   1.000  C
  C24      1.0000 0.00060  0.74930  0.85150  Biso   1.000  C
  H19      1.0000 0.92850  0.25060  0.17370  Biso   1.000  H
  H20      1.0000 0.07150  0.74940  0.82630  Biso   1.000  H
  C25      1.0000 0.99850  0.25440  0.08980  Biso   1.000  C
  C26      1.0000 0.00150  0.74560  0.91020  Biso   1.000  C
  C27      1.0000 0.10850  0.24900  0.05040  Biso   1.000  C
  C28      1.0000 0.89150  0.75100  0.94960  Biso   1.000  C
  H21      1.0000 0.10850  0.25190  0.01040  Biso   1.000  H
  H22      1.0000 0.89150  0.74810  0.98960  Biso   1.000  H
  C29      1.0000 0.21120  0.23950  0.07500  Biso   1.000  C
  C30      1.0000 0.78880  0.76050  0.92500  Biso   1.000  C
  C31      1.0000 0.21120  0.23870  0.13440  Biso   1.000  C
  C32      1.0000 0.78880  0.76130  0.86560  Biso   1.000  C
  H23      1.0000 0.28480  0.23210  0.14950  Biso   1.000  H
  H24      1.0000 0.71520  0.76790  0.85050  Biso   1.000  H
  C33      1.0000 0.44040  0.17900  0.03820  Biso   1.000  C
  C34      1.0000 0.55960  0.82100  0.96180  Biso   1.000  C
  H25      1.0000 0.46610  0.11900  0.06660  Biso   1.000  H
  H26      1.0000 0.53390  0.88100  0.93340  Biso   1.000  H
  C35      1.0000 0.31740  0.32810  0.99080  Biso   1.000  C
  C36      1.0000 0.68260  0.67190  0.00920  Biso   1.000  C
  H27      1.0000 0.24630  0.38390  0.97810  Biso   1.000  H
  H28      1.0000 0.75370  0.61610  0.02190  Biso   1.000  H
  C37      1.0000 0.44140  0.31100  0.96570  Biso   1.000  C
  C38      1.0000 0.55860  0.68900  0.03430  Biso   1.000  C
  H29      1.0000 0.47140  0.35560  0.93620  Biso   1.000  H
  H30      1.0000 0.52860  0.64440  0.06380  Biso   1.000  H
  C39      1.0000 0.87100  0.19280  0.03110  Biso   1.000  C
  C40      1.0000 0.12900  0.80720  0.96890  Biso   1.000  C
  H31      1.0000 0.93790  0.13670  0.01250  Biso   1.000  H
  H32      1.0000 0.06210  0.86330  0.98750  Biso   1.000  H
  C41      1.0000 0.76700  0.33200  0.08520  Biso   1.000  C
  C42      1.0000 0.23300  0.66800  0.91480  Biso   1.000  C
  H33      1.0000 0.74600  0.38710  0.11290  Biso   1.000  H
  H34      1.0000 0.25400  0.61290  0.88710  Biso   1.000  H
  C43      1.0000 0.69100  0.31000  0.05520  Biso   1.000  C
  C44      1.0000 0.30900  0.69000  0.94480  Biso   1.000  C
  H35      1.0000 0.60640  0.35240  0.05520  Biso   1.000  H
  H36      1.0000 0.39360  0.64760  0.94480  Biso   1.000  H
  N1       1.0000 0.10450  0.25980  0.33970  Biso   1.000  N
  N2       1.0000 0.89550  0.74020  0.66030  Biso   1.000  N
  N3       1.0000 0.87210  0.31550  0.46560  Biso   1.000  N
  N4       1.0000 0.12790  0.68450  0.53440  Biso   1.000  N
  N5       1.0000 0.67190  0.39000  0.49250  Biso   1.000  N
  N6       1.0000 0.32810  0.61000  0.50750  Biso   1.000  N
  N7       1.0000 0.31090  0.30590  0.43420  Biso   1.000  N
  N8       1.0000 0.68910  0.69410  0.56580  Biso   1.000  N
  N9       1.0000 0.43550  0.38650  0.46630  Biso   1.000  N
  N10      1.0000 0.56450  0.61350  0.53370  Biso   1.000  N
  N11      1.0000 0.10890  0.24700  0.16940  Biso   1.000  N
  N12      1.0000 0.89110  0.75300  0.83060  Biso   1.000  N
  N13      1.0000 0.31940  0.25050  0.03620  Biso   1.000  N
  N14      1.0000 0.68060  0.74950  0.96380  Biso   1.000  N
  N15      1.0000 0.51130  0.20440  0.99750  Biso   1.000  N
  N16      1.0000 0.48870  0.79560  0.00250  Biso   1.000  N
  N17      1.0000 0.88380  0.25940  0.06840  Biso   1.000  N
  N18      1.0000 0.11620  0.74060  0.93160  Biso   1.000  N
  N19      1.0000 0.75370  0.21320  0.02260  Biso   1.000  N
  N20      1.0000 0.24630  0.78680  0.97740  Biso   1.000  N
  O89      1.0000 0.42500  0.38500  0.15940  Biso   1.000  O
  O90      1.0000 0.57500  0.61500  0.84060  Biso   1.000  O
  O91      1.0000 0.40900  0.96700  0.45200  Biso   1.000  O
  O92      1.0000 0.59100  0.03300  0.54800  Biso   1.000  O
  O93      1.0000 0.34500  0.58100  0.09490  Biso   1.000  O
  O94      1.0000 0.65500  0.41900  0.90510  Biso   1.000  O
  O95      1.0000 0.17900  0.99600  0.39950  Biso   1.000  O
  O96      1.0000 0.82100  0.00400  0.60050  Biso   1.000  O
  O97      1.0000 0.96900  0.02500  0.46000  Biso   1.000  O
  O98      1.0000 0.03100  0.97500  0.54000  Biso   1.000  O
  O99      1.0000 0.55900  0.37600  0.31550  Biso   1.000  O
  O100     1.0000 0.44100  0.62400  0.68450  Biso   1.000  O
  O101     1.0000 0.72500  0.26200  0.33770  Biso   1.000  O
  O102     1.0000 0.27500  0.73800  0.66230  Biso   1.000  O
