data_image0
_cell_length_a       11.322
_cell_length_b       12.139
_cell_length_c       23.311
_cell_angle_alpha    83.586
_cell_angle_beta     81.753
_cell_angle_gamma    71.169

_symmetry_space_group_name_H-M    "P 1"
_symmetry_int_tables_number       1

loop_
  _symmetry_equiv_pos_as_xyz
  'x, y, z'

loop_
  _atom_site_label
  _atom_site_occupancy
  _atom_site_fract_x
  _atom_site_fract_y
  _atom_site_fract_z
  _atom_site_thermal_displace_type
  _atom_site_B_iso_or_equiv
  _atom_site_type_symbol
  W1       1.0000 0.91485  0.98821  0.26460  Biso   1.000  W
  W2       1.0000 0.08515  0.01179  0.73540  Biso   1.000  W
  W3       1.0000 0.01340  0.84185  0.13138  Biso   1.000  W
  W4       1.0000 0.98660  0.15815  0.86862  Biso   1.000  W
  W5       1.0000 0.01865  0.48595  0.24556  Biso   1.000  W
  W6       1.0000 0.98135  0.51405  0.75444  Biso   1.000  W
  W7       1.0000 0.23697  0.57908  0.13061  Biso   1.000  W
  W8       1.0000 0.76303  0.42092  0.86939  Biso   1.000  W
  W9       1.0000 0.31911  0.81499  0.14462  Biso   1.000  W
  W10      1.0000 0.68089  0.18501  0.85538  Biso   1.000  W
  W11      1.0000 0.21480  0.96647  0.28099  Biso   1.000  W
  W12      1.0000 0.78520  0.03353  0.71901  Biso   1.000  W
  W13      1.0000 0.03331  0.87031  0.38876  Biso   1.000  W
  W14      1.0000 0.96669  0.12969  0.61124  Biso   1.000  W
  W15      1.0000 0.26055  0.57560  0.39177  Biso   1.000  W
  W16      1.0000 0.73945  0.42440  0.60823  Biso   1.000  W
  W17      1.0000 0.35263  0.43296  0.26886  Biso   1.000  W
  W18      1.0000 0.64737  0.56704  0.73114  Biso   1.000  W
  W19      1.0000 0.93043  0.61678  0.36715  Biso   1.000  W
  W20      1.0000 0.06957  0.38322  0.63285  Biso   1.000  W
  W21      1.0000 0.44112  0.66786  0.28220  Biso   1.000  W
  W22      1.0000 0.55888  0.33214  0.71780  Biso   1.000  W
  Cu1      1.0000 0.89232  0.25578  0.24516  Biso   1.000  Cu
  Cu2      1.0000 0.10768  0.74422  0.75484  Biso   1.000  Cu
  Cu3      1.0000 0.30810  0.36970  0.52783  Biso   1.000  Cu
  Cu4      1.0000 0.69190  0.63030  0.47217  Biso   1.000  Cu
  Cu5      1.0000 0.50000  0.00000  0.00000  Biso   1.000  Cu
  Ce1      1.0000 0.74382  0.76358  0.24117  Biso   1.000  Ce
  Ce2      1.0000 0.25618  0.23642  0.75883  Biso   1.000  Ce
  Si1      1.0000 0.13070  0.71330  0.26240  Biso   1.000  Si
  Si2      1.0000 0.86930  0.28670  0.73760  Biso   1.000  Si
  O1       1.0000 0.80700  0.13000  0.25740  Biso   1.000  O
  O2       1.0000 0.19300  0.87000  0.74260  Biso   1.000  O
  O3       1.0000 0.94240  0.92530  0.07420  Biso   1.000  O
  O4       1.0000 0.05760  0.07470  0.92580  Biso   1.000  O
  O5       1.0000 0.01320  0.34870  0.23290  Biso   1.000  O
  O6       1.0000 0.98680  0.65130  0.76710  Biso   1.000  O
  O7       1.0000 0.28480  0.48300  0.07810  Biso   1.000  O
  O8       1.0000 0.71520  0.51700  0.92190  Biso   1.000  O
  O9       1.0000 0.43020  0.86860  0.10340  Biso   1.000  O
  O10      1.0000 0.56980  0.13140  0.89660  Biso   1.000  O
  O11      1.0000 0.29260  0.06540  0.28300  Biso   1.000  O
  O12      1.0000 0.70740  0.93460  0.71700  Biso   1.000  O
  O13      1.0000 0.98500  0.91340  0.45650  Biso   1.000  O
  O14      1.0000 0.01500  0.08660  0.54350  Biso   1.000  O
  O15      1.0000 0.29620  0.52360  0.46160  Biso   1.000  O
  O16      1.0000 0.70380  0.47640  0.53840  Biso   1.000  O
  O17      1.0000 0.44770  0.29400  0.25840  Biso   1.000  O
  O18      1.0000 0.55230  0.70600  0.74160  Biso   1.000  O
  O19      1.0000 0.86470  0.56800  0.43360  Biso   1.000  O
  O20      1.0000 0.13530  0.43200  0.56640  Biso   1.000  O
  O21      1.0000 0.59550  0.67150  0.28030  Biso   1.000  O
  O22      1.0000 0.40450  0.32850  0.71970  Biso   1.000  O
  O23      1.0000 0.25540  0.63190  0.29140  Biso   1.000  O
  O24      1.0000 0.74460  0.36810  0.70860  Biso   1.000  O
  O25      1.0000 0.34660  0.67030  0.10810  Biso   1.000  O
  O26      1.0000 0.65340  0.32970  0.89190  Biso   1.000  O
  O27      1.0000 0.10750  0.70140  0.09400  Biso   1.000  O
  O28      1.0000 0.89250  0.29860  0.90600  Biso   1.000  O
  O29      1.0000 0.18010  0.88210  0.10860  Biso   1.000  O
  O30      1.0000 0.81990  0.11790  0.89140  Biso   1.000  O
  O31      1.0000 0.33680  0.49750  0.18970  Biso   1.000  O
  O32      1.0000 0.66320  0.50250  0.81030  Biso   1.000  O
  O33      1.0000 0.26100  0.92360  0.20280  Biso   1.000  O
  O34      1.0000 0.73900  0.07640  0.79720  Biso   1.000  O
  O35      1.0000 0.98290  0.95650  0.18680  Biso   1.000  O
  O36      1.0000 0.01710  0.04350  0.81320  Biso   1.000  O
  O37      1.0000 0.89630  0.78540  0.16980  Biso   1.000  O
  O38      1.0000 0.10370  0.21460  0.83020  Biso   1.000  O
  O39      1.0000 0.19410  0.42470  0.27050  Biso   1.000  O
  O40      1.0000 0.80590  0.57530  0.72950  Biso   1.000  O
  O41      1.0000 0.86520  0.57410  0.23170  Biso   1.000  O
  O42      1.0000 0.13480  0.42590  0.76830  Biso   1.000  O
  O43      1.0000 0.81970  0.89810  0.26880  Biso   1.000  O
  O44      1.0000 0.18030  0.10190  0.73120  Biso   1.000  O
  O45      1.0000 0.79180  0.68720  0.33300  Biso   1.000  O
  O46      1.0000 0.20820  0.31280  0.66700  Biso   1.000  O
  O47      1.0000 0.96980  0.47860  0.32840  Biso   1.000  O
  O48      1.0000 0.03020  0.52140  0.67160  Biso   1.000  O
  O49      1.0000 0.10950  0.55510  0.38850  Biso   1.000  O
  O50      1.0000 0.89050  0.44490  0.61150  Biso   1.000  O
  O51      1.0000 0.34490  0.43460  0.35130  Biso   1.000  O
  O52      1.0000 0.65510  0.56540  0.64870  Biso   1.000  O
  O53      1.0000 0.17640  0.73580  0.40220  Biso   1.000  O
  O54      1.0000 0.82360  0.26420  0.59780  Biso   1.000  O
  O55      1.0000 0.91270  0.98580  0.34740  Biso   1.000  O
  O56      1.0000 0.08730  0.01420  0.65260  Biso   1.000  O
  O57      1.0000 0.06050  0.05990  0.26360  Biso   1.000  O
  O58      1.0000 0.93950  0.94010  0.73640  Biso   1.000  O
  O59      1.0000 0.48330  0.50880  0.26420  Biso   1.000  O
  O60      1.0000 0.51670  0.49120  0.73580  Biso   1.000  O
  O61      1.0000 0.14980  0.95450  0.36140  Biso   1.000  O
  O62      1.0000 0.85020  0.04550  0.63860  Biso   1.000  O
  O63      1.0000 0.34620  0.82060  0.29880  Biso   1.000  O
  O64      1.0000 0.65380  0.17940  0.70120  Biso   1.000  O
  O65      1.0000 0.94720  0.75980  0.38580  Biso   1.000  O
  O66      1.0000 0.05280  0.24020  0.61420  Biso   1.000  O
  O67      1.0000 0.41740  0.71420  0.20430  Biso   1.000  O
  O68      1.0000 0.58260  0.28580  0.79570  Biso   1.000  O
  O69      1.0000 0.10470  0.52770  0.17650  Biso   1.000  O
  O70      1.0000 0.89530  0.47230  0.82350  Biso   1.000  O
  O71      1.0000 0.41480  0.61750  0.36210  Biso   1.000  O
  O72      1.0000 0.58520  0.38250  0.63790  Biso   1.000  O
  O73      1.0000 0.16310  0.73060  0.19310  Biso   1.000  O
  O74      1.0000 0.83690  0.26940  0.80690  Biso   1.000  O
  O75      1.0000 0.08500  0.84080  0.28870  Biso   1.000  O
  O76      1.0000 0.91500  0.15920  0.71130  Biso   1.000  O
  O77      1.0000 0.02130  0.65030  0.27960  Biso   1.000  O
  O78      1.0000 0.97870  0.34970  0.72040  Biso   1.000  O
  O79      1.0000 0.68110  0.69050  0.16150  Biso   1.000  O
  O80      1.0000 0.31890  0.30950  0.83850  Biso   1.000  O
  O81      1.0000 0.61600  0.91010  0.18320  Biso   1.000  O
  O82      1.0000 0.38400  0.08990  0.81680  Biso   1.000  O
  O83      1.0000 0.57680  0.89480  0.30480  Biso   1.000  O
  O84      1.0000 0.42320  0.10520  0.69520  Biso   1.000  O
  O85      1.0000 0.72890  0.41200  0.24190  Biso   1.000  O
  O86      1.0000 0.27110  0.58800  0.75810  Biso   1.000  O
  O87      1.0000 0.36090  0.42970  0.59390  Biso   1.000  O
  O88      1.0000 0.63910  0.57030  0.40610  Biso   1.000  O
  C1       1.0000 0.79540  0.23380  0.14050  Biso   1.000  C
  C2       1.0000 0.20460  0.76620  0.85950  Biso   1.000  C
  H1       1.0000 0.72030  0.24680  0.16480  Biso   1.000  H
  H2       1.0000 0.27970  0.75320  0.83520  Biso   1.000  H
  C3       1.0000 0.79960  0.20860  0.08350  Biso   1.000  C
  C4       1.0000 0.20040  0.79140  0.91650  Biso   1.000  C
  C5       1.0000 0.90950  0.18990  0.04680  Biso   1.000  C
  C6       1.0000 0.09050  0.81010  0.95320  Biso   1.000  C
  H3       1.0000 0.91470  0.17050  0.00880  Biso   1.000  H
  H4       1.0000 0.08530  0.82950  0.99120  Biso   1.000  H
  C7       1.0000 0.01130  0.20110  0.06850  Biso   1.000  C
  C8       1.0000 0.98870  0.79890  0.93150  Biso   1.000  C
  C9       1.0000 0.00350  0.22430  0.12540  Biso   1.000  C
  C10      1.0000 0.99650  0.77570  0.87460  Biso   1.000  C
  H5       1.0000 0.07430  0.22940  0.13950  Biso   1.000  H
  H6       1.0000 0.92570  0.77060  0.86050  Biso   1.000  H
  C11      1.0000 0.68250  0.10000  0.04370  Biso   1.000  C
  C12      1.0000 0.31750  0.90000  0.95630  Biso   1.000  C
  H7       1.0000 0.75040  0.03390  0.03640  Biso   1.000  H
  H8       1.0000 0.24960  0.96610  0.96360  Biso   1.000  H
  C13      1.0000 0.49700  0.22600  0.05060  Biso   1.000  C
  C14      1.0000 0.50300  0.77400  0.94940  Biso   1.000  C
  H9       1.0000 0.41100  0.26150  0.04880  Biso   1.000  H
  H10      1.0000 0.58900  0.73850  0.95120  Biso   1.000  H
  C15      1.0000 0.57300  0.27600  0.06900  Biso   1.000  C
  C16      1.0000 0.42700  0.72400  0.93100  Biso   1.000  C
  H11      1.0000 0.54970  0.35070  0.08200  Biso   1.000  H
  H12      1.0000 0.45030  0.64930  0.91800  Biso   1.000  H
  C17      1.0000 0.15290  0.23700  0.97980  Biso   1.000  C
  C18      1.0000 0.84710  0.76300  0.02020  Biso   1.000  C
  H13      1.0000 0.09550  0.29180  0.95780  Biso   1.000  H
  H14      1.0000 0.90450  0.70820  0.04220  Biso   1.000  H
  C19      1.0000 0.27750  0.19200  0.96550  Biso   1.000  C
  C20      1.0000 0.72250  0.80800  0.03450  Biso   1.000  C
  H15      1.0000 0.32160  0.21350  0.93170  Biso   1.000  H
  H16      1.0000 0.67840  0.78650  0.06830  Biso   1.000  H
  C21      1.0000 0.23820  0.10790  0.04890  Biso   1.000  C
  C22      1.0000 0.76180  0.89210  0.95110  Biso   1.000  C
  H17      1.0000 0.24700  0.06080  0.08330  Biso   1.000  H
  H18      1.0000 0.75300  0.93920  0.91670  Biso   1.000  H
  C23      1.0000 0.78990  0.25650  0.36700  Biso   1.000  C
  C24      1.0000 0.21010  0.74350  0.63300  Biso   1.000  C
  H19      1.0000 0.71670  0.26060  0.35200  Biso   1.000  H
  H20      1.0000 0.28330  0.73940  0.64800  Biso   1.000  H
  C25      1.0000 0.78850  0.25630  0.42500  Biso   1.000  C
  C26      1.0000 0.21150  0.74370  0.57500  Biso   1.000  C
  C27      1.0000 0.89280  0.25390  0.44840  Biso   1.000  C
  C28      1.0000 0.10720  0.74610  0.55160  Biso   1.000  C
  H21      1.0000 0.89170  0.25810  0.48810  Biso   1.000  H
  H22      1.0000 0.10830  0.74190  0.51190  Biso   1.000  H
  C29      1.0000 0.00000  0.24510  0.41040  Biso   1.000  C
  C30      1.0000 0.00000  0.75490  0.58960  Biso   1.000  C
  C31      1.0000 0.00020  0.24430  0.35220  Biso   1.000  C
  C32      1.0000 0.99980  0.75570  0.64780  Biso   1.000  C
  H23      1.0000 0.07350  0.23920  0.32740  Biso   1.000  H
  H24      1.0000 0.92650  0.76080  0.67260  Biso   1.000  H
  C33      1.0000 0.12760  0.30960  0.46810  Biso   1.000  C
  C34      1.0000 0.87240  0.69040  0.53190  Biso   1.000  C
  H25      1.0000 0.06120  0.36850  0.48520  Biso   1.000  H
  H26      1.0000 0.93880  0.63150  0.51480  Biso   1.000  H
  C35      1.0000 0.23190  0.16800  0.41480  Biso   1.000  C
  C36      1.0000 0.76810  0.83200  0.58520  Biso   1.000  C
  H27      1.0000 0.25310  0.11070  0.38820  Biso   1.000  H
  H28      1.0000 0.74690  0.88930  0.61180  Biso   1.000  H
  C37      1.0000 0.31100  0.19400  0.44510  Biso   1.000  C
  C38      1.0000 0.68900  0.80600  0.55490  Biso   1.000  C
  H29      1.0000 0.39680  0.15600  0.44340  Biso   1.000  H
  H30      1.0000 0.60320  0.84400  0.55660  Biso   1.000  H
  C39      1.0000 0.56290  0.32260  0.46210  Biso   1.000  C
  C40      1.0000 0.43710  0.67740  0.53790  Biso   1.000  C
  H31      1.0000 0.53880  0.38650  0.43560  Biso   1.000  H
  H32      1.0000 0.46120  0.61350  0.56440  Biso   1.000  H
  C41      1.0000 0.68300  0.16800  0.50760  Biso   1.000  C
  C42      1.0000 0.31700  0.83200  0.49240  Biso   1.000  C
  H33      1.0000 0.75140  0.10450  0.51710  Biso   1.000  H
  H34      1.0000 0.24860  0.89550  0.48290  Biso   1.000  H
  C43      1.0000 0.55870  0.19800  0.53590  Biso   1.000  C
  C44      1.0000 0.44130  0.80200  0.46410  Biso   1.000  C
  H35      1.0000 0.53190  0.16130  0.57010  Biso   1.000  H
  H36      1.0000 0.46810  0.83870  0.42990  Biso   1.000  H
  N1       1.0000 0.89710  0.23990  0.16120  Biso   1.000  N
  N2       1.0000 0.10290  0.76010  0.83880  Biso   1.000  N
  N3       1.0000 0.68940  0.19730  0.06490  Biso   1.000  N
  N4       1.0000 0.31060  0.80270  0.93510  Biso   1.000  N
  N5       1.0000 0.56380  0.11380  0.03450  Biso   1.000  N
  N6       1.0000 0.43620  0.88620  0.96550  Biso   1.000  N
  N7       1.0000 0.12840  0.18450  0.03430  Biso   1.000  N
  N8       1.0000 0.87160  0.81550  0.96570  Biso   1.000  N
  N9       1.0000 0.33130  0.10880  0.00760  Biso   1.000  N
  N10      1.0000 0.66870  0.89120  0.99240  Biso   1.000  N
  N11      1.0000 0.89360  0.25110  0.33070  Biso   1.000  N
  N12      1.0000 0.10640  0.74890  0.66930  Biso   1.000  N
  N13      1.0000 0.11570  0.24040  0.43050  Biso   1.000  N
  N14      1.0000 0.88430  0.75960  0.56950  Biso   1.000  N
  N15      1.0000 0.24630  0.28390  0.47840  Biso   1.000  N
  N16      1.0000 0.75370  0.71610  0.52160  Biso   1.000  N
  N17      1.0000 0.67970  0.25110  0.46340  Biso   1.000  N
  N18      1.0000 0.32030  0.74890  0.53660  Biso   1.000  N
  N19      1.0000 0.48430  0.28980  0.50450  Biso   1.000  N
  N20      1.0000 0.51570  0.71020  0.49550  Biso   1.000  N
  O89      1.0000 0.59200  0.54100  0.04700  Biso   1.000  O
  O90      1.0000 0.40800  0.45900  0.95300  Biso   1.000  O
  O91      1.0000 0.80200  0.50700  0.10600  Biso   1.000  O
  O92      1.0000 0.19800  0.49300  0.89400  Biso   1.000  O
  O93      1.0000 0.57400  0.11800  0.33700  Biso   1.000  O
  O94      1.0000 0.42600  0.88200  0.66300  Biso   1.000  O
  O95      1.0000 0.65900  0.92400  0.40400  Biso   1.000  O
  O96      1.0000 0.34100  0.07600  0.59600  Biso   1.000  O
  O97      1.0000 0.28100  0.23100  0.16700  Biso   1.000  O
  O98      1.0000 0.71900  0.76900  0.83300  Biso   1.000  O
  O99      1.0000 0.45700  0.11300  0.18400  Biso   1.000  O
  O100     1.0000 0.54300  0.88700  0.81600  Biso   1.000  O
