data_image0
_cell_length_a       11.458
_cell_length_b       12.263
_cell_length_c       24.833
_cell_angle_alpha    94.768
_cell_angle_beta     100.812
_cell_angle_gamma    114.139

_symmetry_space_group_name_H-M    "P 1"
_symmetry_int_tables_number       1

loop_
  _symmetry_equiv_pos_as_xyz
  'x, y, z'

loop_
  _atom_site_label
  _atom_site_occupancy
  _atom_site_fract_x
  _atom_site_fract_y
  _atom_site_fract_z
  _atom_site_thermal_displace_type
  _atom_site_B_iso_or_equiv
  _atom_site_type_symbol
  W1       1.0000 0.15564  0.02771  0.74267  Biso   1.000  W
  W2       1.0000 0.84436  0.97229  0.25733  Biso   1.000  W
  W3       1.0000 0.16963  0.14340  0.62805  Biso   1.000  W
  W4       1.0000 0.83037  0.85660  0.37195  Biso   1.000  W
  W5       1.0000 0.30133  0.54583  0.73210  Biso   1.000  W
  W6       1.0000 0.69867  0.45417  0.26790  Biso   1.000  W
  W7       1.0000 0.08201  0.40217  0.60925  Biso   1.000  W
  W8       1.0000 0.91799  0.59783  0.39075  Biso   1.000  W
  W9       1.0000 0.81933  0.09836  0.60226  Biso   1.000  W
  W10      1.0000 0.18067  0.90164  0.39774  Biso   1.000  W
  W11      1.0000 0.79950  0.96612  0.71634  Biso   1.000  W
  W12      1.0000 0.20050  0.03388  0.28366  Biso   1.000  W
  W13      1.0000 0.03075  0.14203  0.85140  Biso   1.000  W
  W14      1.0000 0.96925  0.85797  0.14860  Biso   1.000  W
  W15      1.0000 0.96929  0.38679  0.84094  Biso   1.000  W
  W16      1.0000 0.03071  0.61321  0.15906  Biso   1.000  W
  W17      1.0000 0.98036  0.51217  0.71056  Biso   1.000  W
  W18      1.0000 0.01964  0.48783  0.28944  Biso   1.000  W
  W19      1.0000 0.28413  0.41494  0.85742  Biso   1.000  W
  W20      1.0000 0.71587  0.58506  0.14258  Biso   1.000  W
  W21      1.0000 0.72564  0.20435  0.70821  Biso   1.000  W
  W22      1.0000 0.27436  0.79565  0.29179  Biso   1.000  W
  Cu1      1.0000 0.28500  0.79848  0.74284  Biso   1.000  Cu
  Cu2      1.0000 0.71500  0.20152  0.25716  Biso   1.000  Cu
  Cu3      1.0000 0.67340  0.86070  0.47334  Biso   1.000  Cu
  Cu4      1.0000 0.32660  0.13930  0.52666  Biso   1.000  Cu
  Cu5      1.0000 0.00000  0.00000  0.00000  Biso   1.000  Cu
  Ho1      1.0000 0.47150  0.32030  0.75224  Biso   1.000  Ho
  Ho2      1.0000 0.52850  0.67970  0.24776  Biso   1.000  Ho
  Si1      1.0000 0.05710  0.26000  0.72797  Biso   1.000  Si
  Si2      1.0000 0.94290  0.74000  0.27203  Biso   1.000  Si
  O1       1.0000 0.15490  0.88920  0.75410  Biso   1.000  O
  O2       1.0000 0.84510  0.11080  0.24590  Biso   1.000  O
  O3       1.0000 0.18210  0.08250  0.56310  Biso   1.000  O
  O4       1.0000 0.81790  0.91750  0.43690  Biso   1.000  O
  O5       1.0000 0.42180  0.69180  0.74080  Biso   1.000  O
  O6       1.0000 0.57820  0.30820  0.25920  Biso   1.000  O
  O7       1.0000 0.07880  0.43270  0.54430  Biso   1.000  O
  O8       1.0000 0.92120  0.56730  0.45570  Biso   1.000  O
  O9       1.0000 0.73300  0.03510  0.53470  Biso   1.000  O
  O10      1.0000 0.26700  0.96490  0.46530  Biso   1.000  O
  O11      1.0000 0.70260  0.82440  0.72140  Biso   1.000  O
  O12      1.0000 0.29740  0.17560  0.27860  Biso   1.000  O
  O13      1.0000 0.00980  0.05430  0.90300  Biso   1.000  O
  O14      1.0000 0.99020  0.94570  0.09700  Biso   1.000  O
  O15      1.0000 0.89210  0.44220  0.88210  Biso   1.000  O
  O16      1.0000 0.10790  0.55780  0.11790  Biso   1.000  O
  O17      1.0000 0.90820  0.60880  0.70930  Biso   1.000  O
  O18      1.0000 0.09180  0.39120  0.29070  Biso   1.000  O
  O19      1.0000 0.40700  0.50680  0.91440  Biso   1.000  O
  O20      1.0000 0.59300  0.49320  0.08560  Biso   1.000  O
  O21      1.0000 0.57560  0.21000  0.71120  Biso   1.000  O
  O22      1.0000 0.42440  0.79000  0.28880  Biso   1.000  O
  O23      1.0000 0.09520  0.38840  0.70580  Biso   1.000  O
  O24      1.0000 0.90480  0.61160  0.29420  Biso   1.000  O
  O25      1.0000 0.91300  0.26050  0.59500  Biso   1.000  O
  O26      1.0000 0.08700  0.73950  0.40500  Biso   1.000  O
  O27      1.0000 0.15550  0.29000  0.61060  Biso   1.000  O
  O28      1.0000 0.84450  0.71000  0.38940  Biso   1.000  O
  O29      1.0000 0.96750  0.07460  0.60720  Biso   1.000  O
  O30      1.0000 0.03250  0.92540  0.39280  Biso   1.000  O
  O31      1.0000 0.99390  0.49240  0.63510  Biso   1.000  O
  O32      1.0000 0.00610  0.50760  0.36490  Biso   1.000  O
  O33      1.0000 0.74910  0.95620  0.63750  Biso   1.000  O
  O34      1.0000 0.25090  0.04380  0.36250  Biso   1.000  O
  O35      1.0000 0.14060  0.00310  0.66310  Biso   1.000  O
  O36      1.0000 0.85940  0.99690  0.33690  Biso   1.000  O
  O37      1.0000 0.33910  0.22310  0.65890  Biso   1.000  O
  O38      1.0000 0.66090  0.77690  0.34110  Biso   1.000  O
  O39      1.0000 0.16190  0.61790  0.73180  Biso   1.000  O
  O40      1.0000 0.83810  0.38210  0.26820  Biso   1.000  O
  O41      1.0000 0.38540  0.45380  0.72560  Biso   1.000  O
  O42      1.0000 0.61460  0.54620  0.27440  Biso   1.000  O
  O43      1.0000 0.33130  0.11850  0.75990  Biso   1.000  O
  O44      1.0000 0.66870  0.88150  0.24010  Biso   1.000  O
  O45      1.0000 0.35970  0.34820  0.82060  Biso   1.000  O
  O46      1.0000 0.64030  0.65180  0.17940  Biso   1.000  O
  O47      1.0000 0.28660  0.52360  0.80510  Biso   1.000  O
  O48      1.0000 0.71340  0.47640  0.19490  Biso   1.000  O
  O49      1.0000 0.14400  0.46360  0.87800  Biso   1.000  O
  O50      1.0000 0.85600  0.53640  0.12200  Biso   1.000  O
  O51      1.0000 0.99430  0.48710  0.78820  Biso   1.000  O
  O52      1.0000 0.00570  0.51290  0.21180  Biso   1.000  O
  O53      1.0000 0.95130  0.24090  0.87310  Biso   1.000  O
  O54      1.0000 0.04870  0.75910  0.12690  Biso   1.000  O
  O55      1.0000 0.12530  0.08300  0.81020  Biso   1.000  O
  O56      1.0000 0.87470  0.91700  0.18980  Biso   1.000  O
  O57      1.0000 0.95470  0.95930  0.71580  Biso   1.000  O
  O58      1.0000 0.04530  0.04070  0.28420  Biso   1.000  O
  O59      1.0000 0.82320  0.36180  0.69210  Biso   1.000  O
  O60      1.0000 0.17680  0.63820  0.30790  Biso   1.000  O
  O61      1.0000 0.87880  0.04400  0.79360  Biso   1.000  O
  O62      1.0000 0.12120  0.95600  0.20640  Biso   1.000  O
  O63      1.0000 0.67980  0.04580  0.72210  Biso   1.000  O
  O64      1.0000 0.32020  0.95420  0.27790  Biso   1.000  O
  O65      1.0000 0.19900  0.27190  0.89010  Biso   1.000  O
  O66      1.0000 0.80100  0.72810  0.10990  Biso   1.000  O
  O67      1.0000 0.69060  0.14610  0.62880  Biso   1.000  O
  O68      1.0000 0.30940  0.85390  0.37120  Biso   1.000  O
  O69      1.0000 0.24430  0.52520  0.65160  Biso   1.000  O
  O70      1.0000 0.75570  0.47480  0.34840  Biso   1.000  O
  O71      1.0000 0.81600  0.26770  0.78090  Biso   1.000  O
  O72      1.0000 0.18400  0.73230  0.21910  Biso   1.000  O
  O73      1.0000 0.07950  0.29000  0.79630  Biso   1.000  O
  O74      1.0000 0.92050  0.71000  0.20370  Biso   1.000  O
  O75      1.0000 0.14590  0.19550  0.71200  Biso   1.000  O
  O76      1.0000 0.85410  0.80450  0.28800  Biso   1.000  O
  O77      1.0000 0.90010  0.16820  0.69970  Biso   1.000  O
  O78      1.0000 0.09990  0.83180  0.30030  Biso   1.000  O
  O79      1.0000 0.66000  0.49370  0.81420  Biso   1.000  O
  O80      1.0000 0.34000  0.50630  0.18580  Biso   1.000  O
  O81      1.0000 0.60450  0.44680  0.68960  Biso   1.000  O
  O82      1.0000 0.39550  0.55320  0.31040  Biso   1.000  O
  O83      1.0000 0.58290  0.26440  0.83250  Biso   1.000  O
  O84      1.0000 0.41710  0.73560  0.16750  Biso   1.000  O
  O85      1.0000 0.44440  0.96210  0.75260  Biso   1.000  O
  O86      1.0000 0.55560  0.03790  0.24740  Biso   1.000  O
  O87      1.0000 0.57600  0.90930  0.41050  Biso   1.000  O
  O88      1.0000 0.42400  0.09070  0.58950  Biso   1.000  O
  N1       1.0000 0.32930  0.80480  0.82380  Biso   1.000  N
  N2       1.0000 0.67070  0.19520  0.17620  Biso   1.000  N
  N3       1.0000 0.60200  0.80930  0.92990  Biso   1.000  N
  N4       1.0000 0.39800  0.19070  0.07010  Biso   1.000  N
  N5       1.0000 0.81210  0.87800  0.96690  Biso   1.000  N
  N6       1.0000 0.18790  0.12200  0.03310  Biso   1.000  N
  N7       1.0000 0.18400  0.80220  0.94190  Biso   1.000  N
  N8       1.0000 0.81600  0.19780  0.05810  Biso   1.000  N
  N9       1.0000 0.06080  0.87580  0.97850  Biso   1.000  N
  N10      1.0000 0.93920  0.12420  0.02150  Biso   1.000  N
  N11      1.0000 0.23430  0.78710  0.66030  Biso   1.000  N
  N12      1.0000 0.76570  0.21290  0.33970  Biso   1.000  N
  N13      1.0000 0.93460  0.75360  0.56360  Biso   1.000  N
  N14      1.0000 0.06540  0.24640  0.43640  Biso   1.000  N
  N15      1.0000 0.77260  0.78830  0.52000  Biso   1.000  N
  N16      1.0000 0.22740  0.21170  0.48000  Biso   1.000  N
  N17      1.0000 0.34230  0.74990  0.53190  Biso   1.000  N
  N18      1.0000 0.65770  0.25010  0.46810  Biso   1.000  N
  N19      1.0000 0.50640  0.77970  0.49600  Biso   1.000  N
  N20      1.0000 0.49360  0.22030  0.50400  Biso   1.000  N
  C1       1.0000 0.44800  0.81080  0.85090  Biso   1.000  C
  C2       1.0000 0.55200  0.18920  0.14910  Biso   1.000  C
  H1       1.0000 0.51050  0.81990  0.83050  Biso   1.000  H
  H2       1.0000 0.48950  0.18010  0.16950  Biso   1.000  H
  C3       1.0000 0.47900  0.80450  0.90440  Biso   1.000  C
  C4       1.0000 0.52100  0.19550  0.09560  Biso   1.000  C
  C5       1.0000 0.39200  0.79800  0.93890  Biso   1.000  C
  C6       1.0000 0.60800  0.20200  0.06110  Biso   1.000  C
  H3       1.0000 0.41180  0.79430  0.97660  Biso   1.000  H
  H4       1.0000 0.58820  0.20570  0.02340  Biso   1.000  H
  C7       1.0000 0.27300  0.79750  0.91160  Biso   1.000  C
  C8       1.0000 0.72700  0.20250  0.08840  Biso   1.000  C
  C9       1.0000 0.24000  0.79370  0.85600  Biso   1.000  C
  C10      1.0000 0.76000  0.20630  0.14400  Biso   1.000  C
  H5       1.0000 0.15560  0.78340  0.83910  Biso   1.000  H
  H6       1.0000 0.84440  0.21660  0.16090  Biso   1.000  H
  C11      1.0000 0.46900  0.82300  0.53480  Biso   1.000  C
  C12      1.0000 0.53100  0.17700  0.46520  Biso   1.000  C
  H7       1.0000 0.52110  0.89400  0.56070  Biso   1.000  H
  H8       1.0000 0.47890  0.10600  0.43930  Biso   1.000  H
  C13      1.0000 0.71500  0.89300  0.94620  Biso   1.000  C
  C14      1.0000 0.28500  0.10700  0.05380  Biso   1.000  C
  H9       1.0000 0.72690  0.97120  0.94250  Biso   1.000  H
  H10      1.0000 0.27310  0.02880  0.05750  Biso   1.000  H
  C15      1.0000 0.30400  0.65610  0.49040  Biso   1.000  C
  C16      1.0000 0.69600  0.34390  0.50960  Biso   1.000  C
  H11      1.0000 0.22370  0.58760  0.48100  Biso   1.000  H
  H12      1.0000 0.77630  0.41240  0.51900  Biso   1.000  H
  C17      1.0000 0.14000  0.73300  0.98250  Biso   1.000  C
  C18      1.0000 0.86000  0.26700  0.01750  Biso   1.000  C
  H13      1.0000 0.15640  0.66810  0.99250  Biso   1.000  H
  H14      1.0000 0.84360  0.33190  0.00750  Biso   1.000  H
  C19      1.0000 0.07000  0.78200  0.00350  Biso   1.000  C
  C20      1.0000 0.93000  0.21800  0.99650  Biso   1.000  C
  H15      1.0000 0.03140  0.75530  0.03250  Biso   1.000  H
  H16      1.0000 0.96860  0.24470  0.96750  Biso   1.000  H
  C21      1.0000 0.13600  0.88650  0.94160  Biso   1.000  C
  C22      1.0000 0.86400  0.11350  0.05840  Biso   1.000  C
  H17      1.0000 0.15310  0.94480  0.91880  Biso   1.000  H
  H18      1.0000 0.84690  0.05520  0.08120  Biso   1.000  H
  C23      1.0000 0.31300  0.78090  0.62620  Biso   1.000  C
  C24      1.0000 0.68700  0.21910  0.37380  Biso   1.000  C
  H19      1.0000 0.39860  0.79010  0.64020  Biso   1.000  H
  H20      1.0000 0.60140  0.20990  0.35980  Biso   1.000  H
  C25      1.0000 0.26030  0.76070  0.57160  Biso   1.000  C
  C26      1.0000 0.73970  0.23930  0.42840  Biso   1.000  C
  C27      1.0000 0.13800  0.75740  0.54620  Biso   1.000  C
  C28      1.0000 0.86200  0.24260  0.45380  Biso   1.000  C
  H21      1.0000 0.10980  0.75340  0.50810  Biso   1.000  H
  H22      1.0000 0.89020  0.24660  0.49190  Biso   1.000  H
  C29      1.0000 0.06400  0.76050  0.58330  Biso   1.000  C
  C30      1.0000 0.93600  0.23950  0.41670  Biso   1.000  C
  C31      1.0000 0.10880  0.77020  0.63860  Biso   1.000  C
  C32      1.0000 0.89120  0.22980  0.36140  Biso   1.000  C
  H23      1.0000 0.05310  0.76520  0.66210  Biso   1.000  H
  H24      1.0000 0.94690  0.23480  0.33790  Biso   1.000  H
  C33      1.0000 0.89500  0.81240  0.52560  Biso   1.000  C
  C34      1.0000 0.10500  0.18760  0.47440  Biso   1.000  C
  H25      1.0000 0.94940  0.86360  0.50600  Biso   1.000  H
  H26      1.0000 0.05060  0.13640  0.49400  Biso   1.000  H
  C35      1.0000 0.83200  0.69000  0.58530  Biso   1.000  C
  C36      1.0000 0.16800  0.31000  0.41470  Biso   1.000  C
  H27      1.0000 0.83050  0.64390  0.61330  Biso   1.000  H
  H28      1.0000 0.16950  0.35610  0.38670  Biso   1.000  H
  C37      1.0000 0.73000  0.71000  0.55580  Biso   1.000  C
  C38      1.0000 0.27000  0.29000  0.44420  Biso   1.000  C
  H29      1.0000 0.64420  0.67550  0.55970  Biso   1.000  H
  H30      1.0000 0.35580  0.32450  0.44030  Biso   1.000  H
  C39      1.0000 0.76100  0.78600  0.99090  Biso   1.000  C
  C40      1.0000 0.23900  0.21400  0.00910  Biso   1.000  C
  H31      1.0000 0.80640  0.75780  0.01660  Biso   1.000  H
  H32      1.0000 0.19360  0.24220  0.98340  Biso   1.000  H
  C41      1.0000 0.63500  0.74200  0.97300  Biso   1.000  C
  C42      1.0000 0.36500  0.25800  0.02700  Biso   1.000  C
  H33      1.0000 0.57390  0.67820  0.98490  Biso   1.000  H
  H34      1.0000 0.42610  0.32180  0.01510  Biso   1.000  H
  C43      1.0000 0.40700  0.68000  0.46400  Biso   1.000  C
  C44      1.0000 0.59300  0.32000  0.53600  Biso   1.000  C
  H35      1.0000 0.40610  0.63560  0.43150  Biso   1.000  H
  H36      1.0000 0.59390  0.36440  0.56850  Biso   1.000  H
  O89      1.0000 0.38700  0.12200  0.90100  Biso   1.000  O
  O90      1.0000 0.61300  0.87800  0.09900  Biso   1.000  O
  O91      1.0000 0.52410  0.60410  0.63910  Biso   1.000  O
  O92      1.0000 0.47590  0.39590  0.36090  Biso   1.000  O
  O93      1.0000 0.67200  0.08500  0.85740  Biso   1.000  O
  O94      1.0000 0.32800  0.91500  0.14260  Biso   1.000  O
  O95      1.0000 0.84200  0.71400  0.80070  Biso   1.000  O
  O96      1.0000 0.15800  0.28600  0.19930  Biso   1.000  O
  O97      1.0000 0.60000  0.39300  0.93700  Biso   1.000  O
  O98      1.0000 0.40000  0.60700  0.06300  Biso   1.000  O
  C45      1.0000 0.79200  0.79900  0.91400  Biso   1.000  C
  C46      1.0000 0.20800  0.20100  0.08600  Biso   1.000  C
  H37      1.0000 0.85490  0.78750  0.89820  Biso   1.000  H
  H38      1.0000 0.14510  0.21250  0.10180  Biso   1.000  H
  C47      1.0000 0.64800  0.74300  0.89300  Biso   1.000  C
  C48      1.0000 0.35200  0.25700  0.10700  Biso   1.000  C
  H39      1.0000 0.59750  0.68060  0.86260  Biso   1.000  H
  H40      1.0000 0.40250  0.31940  0.13740  Biso   1.000  H
  Ho3      1.0000 0.37400  0.29160  0.74990  Biso   1.000  Ho
  Ho4      1.0000 0.62600  0.70840  0.25010  Biso   1.000  Ho
