data_image0
_cell_length_a       10.2416
_cell_length_b       14.1822
_cell_length_c       15.4155
_cell_angle_alpha    90
_cell_angle_beta     104.777
_cell_angle_gamma    90

_symmetry_space_group_name_H-M    "P 1"
_symmetry_int_tables_number       1

loop_
  _symmetry_equiv_pos_as_xyz
  'x, y, z'

loop_
  _atom_site_label
  _atom_site_occupancy
  _atom_site_fract_x
  _atom_site_fract_y
  _atom_site_fract_z
  _atom_site_thermal_displace_type
  _atom_site_B_iso_or_equiv
  _atom_site_type_symbol
  Cu1      1.0000 0.44952  0.29369  0.93528  Biso   1.000  Cu
  Cu2      1.0000 0.05048  0.79369  0.56472  Biso   1.000  Cu
  Cu3      1.0000 0.55048  0.70631  0.06472  Biso   1.000  Cu
  Cu4      1.0000 0.94952  0.20631  0.43528  Biso   1.000  Cu
  Cd1      1.0000 0.72608  0.26142  0.87537  Biso   1.000  Cd
  Cd2      1.0000 0.77392  0.76142  0.62463  Biso   1.000  Cd
  Cd3      1.0000 0.27392  0.73858  0.12463  Biso   1.000  Cd
  Cd4      1.0000 0.22608  0.23858  0.37537  Biso   1.000  Cd
  O1       1.0000 0.58110  0.37660  0.90450  Biso   1.000  O
  O2       1.0000 0.91890  0.87660  0.59550  Biso   1.000  O
  O3       1.0000 0.41890  0.62340  0.09550  Biso   1.000  O
  O4       1.0000 0.08110  0.12340  0.40450  Biso   1.000  O
  O5       1.0000 0.60790  0.21760  0.97910  Biso   1.000  O
  O6       1.0000 0.89210  0.71760  0.52090  Biso   1.000  O
  O7       1.0000 0.39210  0.78240  0.02090  Biso   1.000  O
  O8       1.0000 0.10790  0.28240  0.47910  Biso   1.000  O
  N1       1.0000 0.30970  0.38950  0.90490  Biso   1.000  N
  N2       1.0000 0.19030  0.88950  0.59510  Biso   1.000  N
  N3       1.0000 0.69030  0.61050  0.09510  Biso   1.000  N
  N4       1.0000 0.80970  0.11050  0.40490  Biso   1.000  N
  N5       1.0000 0.33090  0.19140  0.95820  Biso   1.000  N
  N6       1.0000 0.16910  0.69140  0.54180  Biso   1.000  N
  N7       1.0000 0.66910  0.80860  0.04180  Biso   1.000  N
  N8       1.0000 0.83090  0.30860  0.45820  Biso   1.000  N
  N9       1.0000 0.74050  0.83770  0.74700  Biso   1.000  N
  N10      1.0000 0.75950  0.33770  0.75300  Biso   1.000  N
  N11      1.0000 0.25950  0.16230  0.25300  Biso   1.000  N
  N12      1.0000 0.24050  0.66230  0.24700  Biso   1.000  N
  N13      1.0000 0.81880  0.11850  0.86900  Biso   1.000  N
  N14      1.0000 0.68120  0.61850  0.63100  Biso   1.000  N
  N15      1.0000 0.18120  0.88150  0.13100  Biso   1.000  N
  N16      1.0000 0.31880  0.38150  0.36900  Biso   1.000  N
  N17      1.0000 0.85530  0.94950  0.86180  Biso   1.000  N
  N18      1.0000 0.64470  0.44950  0.63820  Biso   1.000  N
  N19      1.0000 0.14470  0.05050  0.13820  Biso   1.000  N
  N20      1.0000 0.35530  0.55050  0.36180  Biso   1.000  N
  N21      1.0000 0.02000  0.29310  0.27590  Biso   1.000  N
  N22      1.0000 0.48000  0.79310  0.22410  Biso   1.000  N
  N23      1.0000 0.98000  0.70690  0.72410  Biso   1.000  N
  N24      1.0000 0.52000  0.20690  0.77590  Biso   1.000  N
  N25      1.0000 0.90160  0.32190  0.98410  Biso   1.000  N
  N26      1.0000 0.59840  0.82190  0.51590  Biso   1.000  N
  N27      1.0000 0.09840  0.67810  0.01590  Biso   1.000  N
  N28      1.0000 0.40160  0.17810  0.48410  Biso   1.000  N
  N29      1.0000 0.95190  0.37980  0.13690  Biso   1.000  N
  N30      1.0000 0.54810  0.87980  0.36310  Biso   1.000  N
  N31      1.0000 0.04810  0.62020  0.86310  Biso   1.000  N
  N32      1.0000 0.45190  0.12020  0.63690  Biso   1.000  N
  C1       1.0000 0.57380  0.46850  0.88980  Biso   1.000  C
  C2       1.0000 0.92620  0.96850  0.61020  Biso   1.000  C
  C3       1.0000 0.42620  0.53150  0.11020  Biso   1.000  C
  C4       1.0000 0.07380  0.03150  0.38980  Biso   1.000  C
  C5       1.0000 0.68670  0.51820  0.87780  Biso   1.000  C
  C6       1.0000 0.81330  0.01820  0.62220  Biso   1.000  C
  C7       1.0000 0.31330  0.48180  0.12220  Biso   1.000  C
  C8       1.0000 0.18670  0.98180  0.37780  Biso   1.000  C
  H1       1.0000 0.76740  0.48620  0.88210  Biso   1.000  H
  H2       1.0000 0.73260  0.98620  0.61790  Biso   1.000  H
  H3       1.0000 0.23260  0.51380  0.11790  Biso   1.000  H
  H4       1.0000 0.26740  0.01380  0.38210  Biso   1.000  H
  C9       1.0000 0.67990  0.61340  0.85980  Biso   1.000  C
  C10      1.0000 0.82010  0.11340  0.64020  Biso   1.000  C
  C11      1.0000 0.32010  0.38660  0.14020  Biso   1.000  C
  C12      1.0000 0.17990  0.88660  0.35980  Biso   1.000  C
  H5       1.0000 0.75550  0.64450  0.85110  Biso   1.000  H
  H6       1.0000 0.74450  0.14450  0.64890  Biso   1.000  H
  H7       1.0000 0.24450  0.35550  0.14890  Biso   1.000  H
  H8       1.0000 0.25550  0.85550  0.35110  Biso   1.000  H
  C13      1.0000 0.56170  0.66340  0.85450  Biso   1.000  C
  C14      1.0000 0.93830  0.16340  0.64550  Biso   1.000  C
  C15      1.0000 0.43830  0.33660  0.14550  Biso   1.000  C
  C16      1.0000 0.06170  0.83660  0.35450  Biso   1.000  C
  H9       1.0000 0.55750  0.72770  0.84220  Biso   1.000  H
  H10      1.0000 0.94250  0.22770  0.65780  Biso   1.000  H
  H11      1.0000 0.44250  0.27230  0.15780  Biso   1.000  H
  H12      1.0000 0.05750  0.77230  0.34220  Biso   1.000  H
  C17      1.0000 0.45210  0.61700  0.86770  Biso   1.000  C
  C18      1.0000 0.04790  0.11700  0.63230  Biso   1.000  C
  C19      1.0000 0.54790  0.38300  0.13230  Biso   1.000  C
  C20      1.0000 0.95210  0.88300  0.36770  Biso   1.000  C
  H13      1.0000 0.37330  0.65070  0.86520  Biso   1.000  H
  H14      1.0000 0.12670  0.15070  0.63480  Biso   1.000  H
  H15      1.0000 0.62670  0.34930  0.13480  Biso   1.000  H
  H16      1.0000 0.87330  0.84930  0.36520  Biso   1.000  H
  C21      1.0000 0.45440  0.51980  0.88490  Biso   1.000  C
  C22      1.0000 0.04560  0.01980  0.61510  Biso   1.000  C
  C23      1.0000 0.54560  0.48020  0.11510  Biso   1.000  C
  C24      1.0000 0.95440  0.98020  0.38490  Biso   1.000  C
  C25      1.0000 0.33130  0.47650  0.89180  Biso   1.000  C
  C26      1.0000 0.16870  0.97650  0.60820  Biso   1.000  C
  C27      1.0000 0.66870  0.52350  0.10820  Biso   1.000  C
  C28      1.0000 0.83130  0.02350  0.39180  Biso   1.000  C
  H17      1.0000 0.25780  0.51660  0.88600  Biso   1.000  H
  H18      1.0000 0.24220  0.01660  0.61400  Biso   1.000  H
  H19      1.0000 0.74220  0.48340  0.11400  Biso   1.000  H
  H20      1.0000 0.75780  0.98340  0.38600  Biso   1.000  H
  C29      1.0000 0.16910  0.36320  0.90110  Biso   1.000  C
  C30      1.0000 0.33090  0.86320  0.59890  Biso   1.000  C
  C31      1.0000 0.83090  0.63680  0.09890  Biso   1.000  C
  C32      1.0000 0.66910  0.13680  0.40110  Biso   1.000  C
  H21      1.0000 0.10850  0.41130  0.86880  Biso   1.000  H
  H22      1.0000 0.39150  0.91130  0.63120  Biso   1.000  H
  H23      1.0000 0.89150  0.58870  0.13120  Biso   1.000  H
  H24      1.0000 0.60850  0.08870  0.36880  Biso   1.000  H
  H25      1.0000 0.15740  0.35960  0.96150  Biso   1.000  H
  H26      1.0000 0.34260  0.85960  0.53850  Biso   1.000  H
  H27      1.0000 0.84260  0.64040  0.03850  Biso   1.000  H
  H28      1.0000 0.65740  0.14040  0.46150  Biso   1.000  H
  C33      1.0000 0.13430  0.27080  0.85550  Biso   1.000  C
  C34      1.0000 0.36570  0.77080  0.64450  Biso   1.000  C
  C35      1.0000 0.86570  0.72920  0.14450  Biso   1.000  C
  C36      1.0000 0.63430  0.22920  0.35550  Biso   1.000  C
  H29      1.0000 0.03700  0.26640  0.83320  Biso   1.000  H
  H30      1.0000 0.46300  0.76640  0.66680  Biso   1.000  H
  H31      1.0000 0.96300  0.73360  0.16680  Biso   1.000  H
  H32      1.0000 0.53700  0.23360  0.33320  Biso   1.000  H
  H33      1.0000 0.17310  0.26780  0.80430  Biso   1.000  H
  H34      1.0000 0.32690  0.76780  0.69570  Biso   1.000  H
  H35      1.0000 0.82690  0.73220  0.19570  Biso   1.000  H
  H36      1.0000 0.67310  0.23220  0.30430  Biso   1.000  H
  C37      1.0000 0.18340  0.18920  0.91500  Biso   1.000  C
  C38      1.0000 0.31660  0.68920  0.58500  Biso   1.000  C
  C39      1.0000 0.81660  0.81080  0.08500  Biso   1.000  C
  C40      1.0000 0.68340  0.31080  0.41500  Biso   1.000  C
  H37      1.0000 0.16240  0.13170  0.88020  Biso   1.000  H
  H38      1.0000 0.33760  0.63170  0.61980  Biso   1.000  H
  H39      1.0000 0.83760  0.86830  0.11980  Biso   1.000  H
  H40      1.0000 0.66240  0.36830  0.38020  Biso   1.000  H
  H41      1.0000 0.13500  0.18740  0.96150  Biso   1.000  H
  H42      1.0000 0.36500  0.68740  0.53850  Biso   1.000  H
  H43      1.0000 0.86500  0.81260  0.03850  Biso   1.000  H
  H44      1.0000 0.63500  0.31260  0.46150  Biso   1.000  H
  C41      1.0000 0.37690  0.12380  0.01210  Biso   1.000  C
  C42      1.0000 0.12310  0.62380  0.48790  Biso   1.000  C
  C43      1.0000 0.62310  0.87620  0.98790  Biso   1.000  C
  C44      1.0000 0.87690  0.37620  0.51210  Biso   1.000  C
  H45      1.0000 0.31300  0.08090  0.02120  Biso   1.000  H
  H46      1.0000 0.18700  0.58090  0.47880  Biso   1.000  H
  H47      1.0000 0.68700  0.91910  0.97880  Biso   1.000  H
  H48      1.0000 0.81300  0.41910  0.52120  Biso   1.000  H
  C45      1.0000 0.51360  0.10520  0.06030  Biso   1.000  C
  C46      1.0000 0.98640  0.60520  0.43970  Biso   1.000  C
  C47      1.0000 0.48640  0.89480  0.93970  Biso   1.000  C
  C48      1.0000 0.01360  0.39480  0.56030  Biso   1.000  C
  C49      1.0000 0.53740  0.03490  0.12700  Biso   1.000  C
  C50      1.0000 0.96260  0.53490  0.37300  Biso   1.000  C
  C51      1.0000 0.46260  0.96510  0.87300  Biso   1.000  C
  C52      1.0000 0.03740  0.46510  0.62700  Biso   1.000  C
  H49      1.0000 0.46440  0.00370  0.13950  Biso   1.000  H
  H50      1.0000 0.03560  0.50370  0.36050  Biso   1.000  H
  H51      1.0000 0.53560  0.99630  0.86050  Biso   1.000  H
  H52      1.0000 0.96440  0.49630  0.63950  Biso   1.000  H
  C53      1.0000 0.66500  0.01150  0.17380  Biso   1.000  C
  C54      1.0000 0.83500  0.51150  0.32620  Biso   1.000  C
  C55      1.0000 0.33500  0.98850  0.82620  Biso   1.000  C
  C56      1.0000 0.16500  0.48850  0.67380  Biso   1.000  C
  H53      1.0000 0.67890  0.96530  0.21800  Biso   1.000  H
  H54      1.0000 0.82110  0.46530  0.28200  Biso   1.000  H
  H55      1.0000 0.32110  0.03470  0.78200  Biso   1.000  H
  H56      1.0000 0.17890  0.53470  0.71800  Biso   1.000  H
  C57      1.0000 0.77380  0.05750  0.15470  Biso   1.000  C
  C58      1.0000 0.72620  0.55750  0.34530  Biso   1.000  C
  C59      1.0000 0.22620  0.94250  0.84530  Biso   1.000  C
  C60      1.0000 0.27380  0.44250  0.65470  Biso   1.000  C
  H57      1.0000 0.86100  0.04230  0.18700  Biso   1.000  H
  H58      1.0000 0.63900  0.54230  0.31300  Biso   1.000  H
  H59      1.0000 0.13900  0.95770  0.81300  Biso   1.000  H
  H60      1.0000 0.36100  0.45770  0.68700  Biso   1.000  H
  C61      1.0000 0.75490  0.12510  0.08890  Biso   1.000  C
  C62      1.0000 0.74510  0.62510  0.41110  Biso   1.000  C
  C63      1.0000 0.24510  0.87490  0.91110  Biso   1.000  C
  C64      1.0000 0.25490  0.37490  0.58890  Biso   1.000  C
  H61      1.0000 0.82950  0.15360  0.07600  Biso   1.000  H
  H62      1.0000 0.67050  0.65360  0.42400  Biso   1.000  H
  H63      1.0000 0.17050  0.84640  0.92400  Biso   1.000  H
  H64      1.0000 0.32950  0.34640  0.57600  Biso   1.000  H
  C65      1.0000 0.62460  0.15180  0.04100  Biso   1.000  C
  C66      1.0000 0.87540  0.65180  0.45900  Biso   1.000  C
  C67      1.0000 0.37540  0.84820  0.95900  Biso   1.000  C
  C68      1.0000 0.12460  0.34820  0.54100  Biso   1.000  C
  C69      1.0000 0.83120  0.03960  0.86140  Biso   1.000  C
  C70      1.0000 0.66880  0.53960  0.63860  Biso   1.000  C
  C71      1.0000 0.16880  0.96040  0.13860  Biso   1.000  C
  C72      1.0000 0.33120  0.46040  0.36140  Biso   1.000  C
  C73      1.0000 0.79160  0.89370  0.79780  Biso   1.000  C
  C74      1.0000 0.70840  0.39370  0.70220  Biso   1.000  C
  C75      1.0000 0.20840  0.10630  0.20220  Biso   1.000  C
  C76      1.0000 0.29160  0.60630  0.29780  Biso   1.000  C
  C77      1.0000 0.92550  0.34420  0.05670  Biso   1.000  C
  C78      1.0000 0.57450  0.84420  0.44330  Biso   1.000  C
  C79      1.0000 0.07450  0.65580  0.94330  Biso   1.000  C
  C80      1.0000 0.42550  0.15580  0.55670  Biso   1.000  C
  C81      1.0000 0.98670  0.32890  0.20860  Biso   1.000  C
  C82      1.0000 0.51330  0.82890  0.29140  Biso   1.000  C
  C83      1.0000 0.01330  0.67110  0.79140  Biso   1.000  C
  C84      1.0000 0.48670  0.17110  0.70860  Biso   1.000  C
