data_image0
_cell_length_a       14.7933
_cell_length_b       14.2036
_cell_length_c       21.8
_cell_angle_alpha    90
_cell_angle_beta     101.711
_cell_angle_gamma    90

_symmetry_space_group_name_H-M    "P 1"
_symmetry_int_tables_number       1

loop_
  _symmetry_equiv_pos_as_xyz
  'x, y, z'

loop_
  _atom_site_label
  _atom_site_occupancy
  _atom_site_fract_x
  _atom_site_fract_y
  _atom_site_fract_z
  _atom_site_thermal_displace_type
  _atom_site_B_iso_or_equiv
  _atom_site_type_symbol
  H1       1.0000 0.22500  0.47900  0.58900  Biso   1.000  H
  H2       1.0000 0.77500  0.47900  0.91100  Biso   1.000  H
  H3       1.0000 0.72500  0.97900  0.58900  Biso   1.000  H
  H4       1.0000 0.27500  0.97900  0.91100  Biso   1.000  H
  H5       1.0000 0.77500  0.52100  0.41100  Biso   1.000  H
  H6       1.0000 0.22500  0.52100  0.08900  Biso   1.000  H
  H7       1.0000 0.27500  0.02100  0.41100  Biso   1.000  H
  H8       1.0000 0.72500  0.02100  0.08900  Biso   1.000  H
  Cu1      1.0000 0.21313  0.42592  0.33130  Biso   1.000  Cu
  Cu2      1.0000 0.78687  0.42592  0.16870  Biso   1.000  Cu
  Cu3      1.0000 0.71313  0.92592  0.33130  Biso   1.000  Cu
  Cu4      1.0000 0.28687  0.92592  0.16870  Biso   1.000  Cu
  Cu5      1.0000 0.78687  0.57408  0.66870  Biso   1.000  Cu
  Cu6      1.0000 0.21313  0.57408  0.83130  Biso   1.000  Cu
  Cu7      1.0000 0.28687  0.07408  0.66870  Biso   1.000  Cu
  Cu8      1.0000 0.71313  0.07408  0.83130  Biso   1.000  Cu
  O1       1.0000 0.32460  0.42490  0.22276  Biso   1.000  O
  O2       1.0000 0.67540  0.42490  0.27724  Biso   1.000  O
  O3       1.0000 0.82460  0.92490  0.22276  Biso   1.000  O
  O4       1.0000 0.17540  0.92490  0.27724  Biso   1.000  O
  O5       1.0000 0.67540  0.57510  0.77724  Biso   1.000  O
  O6       1.0000 0.32460  0.57510  0.72276  Biso   1.000  O
  O7       1.0000 0.17540  0.07510  0.77724  Biso   1.000  O
  O8       1.0000 0.82460  0.07510  0.72276  Biso   1.000  O
  O9       1.0000 0.35650  0.40710  0.32555  Biso   1.000  O
  O10      1.0000 0.64350  0.40710  0.17445  Biso   1.000  O
  O11      1.0000 0.85650  0.90710  0.32555  Biso   1.000  O
  O12      1.0000 0.14350  0.90710  0.17445  Biso   1.000  O
  O13      1.0000 0.64350  0.59290  0.67445  Biso   1.000  O
  O14      1.0000 0.35650  0.59290  0.82555  Biso   1.000  O
  O15      1.0000 0.14350  0.09290  0.67445  Biso   1.000  O
  O16      1.0000 0.85650  0.09290  0.82555  Biso   1.000  O
  O17      1.0000 0.11310  0.38530  0.43649  Biso   1.000  O
  O18      1.0000 0.88690  0.38530  0.06351  Biso   1.000  O
  O19      1.0000 0.61310  0.88530  0.43649  Biso   1.000  O
  O20      1.0000 0.38690  0.88530  0.06351  Biso   1.000  O
  O21      1.0000 0.88690  0.61470  0.56351  Biso   1.000  O
  O22      1.0000 0.11310  0.61470  0.93649  Biso   1.000  O
  O23      1.0000 0.38690  0.11470  0.56351  Biso   1.000  O
  O24      1.0000 0.61310  0.11470  0.93649  Biso   1.000  O
  O25      1.0000 0.24400  0.35120  0.40682  Biso   1.000  O
  O26      1.0000 0.75600  0.35120  0.09318  Biso   1.000  O
  O27      1.0000 0.74400  0.85120  0.40682  Biso   1.000  O
  O28      1.0000 0.25600  0.85120  0.09318  Biso   1.000  O
  O29      1.0000 0.75600  0.64880  0.59318  Biso   1.000  O
  O30      1.0000 0.24400  0.64880  0.90682  Biso   1.000  O
  O31      1.0000 0.25600  0.14880  0.59318  Biso   1.000  O
  O32      1.0000 0.74400  0.14880  0.90682  Biso   1.000  O
  O33      1.0000 0.13560  0.54260  0.52400  Biso   1.000  O
  O34      1.0000 0.86440  0.54260  0.97600  Biso   1.000  O
  O35      1.0000 0.63560  0.04260  0.52400  Biso   1.000  O
  O36      1.0000 0.36440  0.04260  0.97600  Biso   1.000  O
  O37      1.0000 0.86440  0.45740  0.47600  Biso   1.000  O
  O38      1.0000 0.13560  0.45740  0.02400  Biso   1.000  O
  O39      1.0000 0.36440  0.95740  0.47600  Biso   1.000  O
  O40      1.0000 0.63560  0.95740  0.02400  Biso   1.000  O
  O41      1.0000 0.28010  0.47320  0.61350  Biso   1.000  O
  O42      1.0000 0.71990  0.47320  0.88650  Biso   1.000  O
  O43      1.0000 0.78010  0.97320  0.61350  Biso   1.000  O
  O44      1.0000 0.21990  0.97320  0.88650  Biso   1.000  O
  O45      1.0000 0.71990  0.52680  0.38650  Biso   1.000  O
  O46      1.0000 0.28010  0.52680  0.11350  Biso   1.000  O
  O47      1.0000 0.21990  0.02680  0.38650  Biso   1.000  O
  O48      1.0000 0.78010  0.02680  0.11350  Biso   1.000  O
  O49      1.0000 0.47140  0.37360  0.44560  Biso   1.000  O
  O50      1.0000 0.52860  0.37360  0.05440  Biso   1.000  O
  O51      1.0000 0.97140  0.87360  0.44560  Biso   1.000  O
  O52      1.0000 0.02860  0.87360  0.05440  Biso   1.000  O
  O53      1.0000 0.52860  0.62640  0.55440  Biso   1.000  O
  O54      1.0000 0.47140  0.62640  0.94560  Biso   1.000  O
  O55      1.0000 0.02860  0.12640  0.55440  Biso   1.000  O
  O56      1.0000 0.97140  0.12640  0.94560  Biso   1.000  O
  O57      1.0000 0.98780  0.31040  0.50950  Biso   1.000  O
  O58      1.0000 0.01220  0.31040  0.99050  Biso   1.000  O
  O59      1.0000 0.48780  0.81040  0.50950  Biso   1.000  O
  O60      1.0000 0.51220  0.81040  0.99050  Biso   1.000  O
  O61      1.0000 0.01220  0.68960  0.49050  Biso   1.000  O
  O62      1.0000 0.98780  0.68960  0.00950  Biso   1.000  O
  O63      1.0000 0.51220  0.18960  0.49050  Biso   1.000  O
  O64      1.0000 0.48780  0.18960  0.00950  Biso   1.000  O
  O65      1.0000 0.93420  0.04590  0.05960  Biso   1.000  O
  O66      1.0000 0.06580  0.04590  0.44040  Biso   1.000  O
  O67      1.0000 0.43420  0.54590  0.05960  Biso   1.000  O
  O68      1.0000 0.56580  0.54590  0.44040  Biso   1.000  O
  O69      1.0000 0.06580  0.95410  0.94040  Biso   1.000  O
  O70      1.0000 0.93420  0.95410  0.55960  Biso   1.000  O
  O71      1.0000 0.56580  0.45410  0.94040  Biso   1.000  O
  O72      1.0000 0.43420  0.45410  0.55960  Biso   1.000  O
  N1       1.0000 0.23490  0.55730  0.36800  Biso   1.000  N
  N2       1.0000 0.76510  0.55730  0.13200  Biso   1.000  N
  N3       1.0000 0.73490  0.05730  0.36800  Biso   1.000  N
  N4       1.0000 0.26510  0.05730  0.13200  Biso   1.000  N
  N5       1.0000 0.76510  0.44270  0.63200  Biso   1.000  N
  N6       1.0000 0.23490  0.44270  0.86800  Biso   1.000  N
  N7       1.0000 0.26510  0.94270  0.63200  Biso   1.000  N
  N8       1.0000 0.73490  0.94270  0.86800  Biso   1.000  N
  N9       1.0000 0.14350  0.49890  0.26306  Biso   1.000  N
  N10      1.0000 0.85650  0.49890  0.23694  Biso   1.000  N
  N11      1.0000 0.64350  0.99890  0.26306  Biso   1.000  N
  N12      1.0000 0.35650  0.99890  0.23694  Biso   1.000  N
  N13      1.0000 0.85650  0.50110  0.73694  Biso   1.000  N
  N14      1.0000 0.14350  0.50110  0.76306  Biso   1.000  N
  N15      1.0000 0.35650  0.00110  0.73694  Biso   1.000  N
  N16      1.0000 0.64350  0.00110  0.76306  Biso   1.000  N
  N17      1.0000 0.15430  0.32210  0.27408  Biso   1.000  N
  N18      1.0000 0.84570  0.32210  0.22592  Biso   1.000  N
  N19      1.0000 0.65430  0.82210  0.27408  Biso   1.000  N
  N20      1.0000 0.34570  0.82210  0.22592  Biso   1.000  N
  N21      1.0000 0.84570  0.67790  0.72592  Biso   1.000  N
  N22      1.0000 0.15430  0.67790  0.77408  Biso   1.000  N
  N23      1.0000 0.34570  0.17790  0.72592  Biso   1.000  N
  N24      1.0000 0.65430  0.17790  0.77408  Biso   1.000  N
  C1       1.0000 0.28460  0.57950  0.42410  Biso   1.000  C
  C2       1.0000 0.71540  0.57950  0.07590  Biso   1.000  C
  C3       1.0000 0.78460  0.07950  0.42410  Biso   1.000  C
  C4       1.0000 0.21540  0.07950  0.07590  Biso   1.000  C
  C5       1.0000 0.71540  0.42050  0.57590  Biso   1.000  C
  C6       1.0000 0.28460  0.42050  0.92410  Biso   1.000  C
  C7       1.0000 0.21540  0.92050  0.57590  Biso   1.000  C
  C8       1.0000 0.78460  0.92050  0.92410  Biso   1.000  C
  C9       1.0000 0.29760  0.67190  0.44480  Biso   1.000  C
  C10      1.0000 0.70240  0.67190  0.05520  Biso   1.000  C
  C11      1.0000 0.79760  0.17190  0.44480  Biso   1.000  C
  C12      1.0000 0.20240  0.17190  0.05520  Biso   1.000  C
  C13      1.0000 0.70240  0.32810  0.55520  Biso   1.000  C
  C14      1.0000 0.29760  0.32810  0.94480  Biso   1.000  C
  C15      1.0000 0.20240  0.82810  0.55520  Biso   1.000  C
  C16      1.0000 0.79760  0.82810  0.94480  Biso   1.000  C
  C17      1.0000 0.25790  0.74170  0.40640  Biso   1.000  C
  C18      1.0000 0.74210  0.74170  0.09360  Biso   1.000  C
  C19      1.0000 0.75790  0.24170  0.40640  Biso   1.000  C
  C20      1.0000 0.24210  0.24170  0.09360  Biso   1.000  C
  C21      1.0000 0.74210  0.25830  0.59360  Biso   1.000  C
  C22      1.0000 0.25790  0.25830  0.90640  Biso   1.000  C
  C23      1.0000 0.24210  0.75830  0.59360  Biso   1.000  C
  C24      1.0000 0.75790  0.75830  0.90640  Biso   1.000  C
  C25      1.0000 0.20560  0.72050  0.34850  Biso   1.000  C
  C26      1.0000 0.79440  0.72050  0.15150  Biso   1.000  C
  C27      1.0000 0.70560  0.22050  0.34850  Biso   1.000  C
  C28      1.0000 0.29440  0.22050  0.15150  Biso   1.000  C
  C29      1.0000 0.79440  0.27950  0.65150  Biso   1.000  C
  C30      1.0000 0.20560  0.27950  0.84850  Biso   1.000  C
  C31      1.0000 0.29440  0.77950  0.65150  Biso   1.000  C
  C32      1.0000 0.70560  0.77950  0.84850  Biso   1.000  C
  C33      1.0000 0.19570  0.62690  0.32890  Biso   1.000  C
  C34      1.0000 0.80430  0.62690  0.17110  Biso   1.000  C
  C35      1.0000 0.69570  0.12690  0.32890  Biso   1.000  C
  C36      1.0000 0.30430  0.12690  0.17110  Biso   1.000  C
  C37      1.0000 0.80430  0.37310  0.67110  Biso   1.000  C
  C38      1.0000 0.19570  0.37310  0.82890  Biso   1.000  C
  C39      1.0000 0.30430  0.87310  0.67110  Biso   1.000  C
  C40      1.0000 0.69570  0.87310  0.82890  Biso   1.000  C
  C41      1.0000 0.14590  0.59490  0.26720  Biso   1.000  C
  C42      1.0000 0.85410  0.59490  0.23280  Biso   1.000  C
  C43      1.0000 0.64590  0.09490  0.26720  Biso   1.000  C
  C44      1.0000 0.35410  0.09490  0.23280  Biso   1.000  C
  C45      1.0000 0.85410  0.40510  0.73280  Biso   1.000  C
  C46      1.0000 0.14590  0.40510  0.76720  Biso   1.000  C
  C47      1.0000 0.35410  0.90510  0.73280  Biso   1.000  C
  C48      1.0000 0.64590  0.90510  0.76720  Biso   1.000  C
  C49      1.0000 0.10340  0.64700  0.21570  Biso   1.000  C
  C50      1.0000 0.89660  0.64700  0.28430  Biso   1.000  C
  C51      1.0000 0.60340  0.14700  0.21570  Biso   1.000  C
  C52      1.0000 0.39660  0.14700  0.28430  Biso   1.000  C
  C53      1.0000 0.89660  0.35300  0.78430  Biso   1.000  C
  C54      1.0000 0.10340  0.35300  0.71570  Biso   1.000  C
  C55      1.0000 0.39660  0.85300  0.78430  Biso   1.000  C
  C56      1.0000 0.60340  0.85300  0.71570  Biso   1.000  C
  C57      1.0000 0.05910  0.60330  0.16230  Biso   1.000  C
  C58      1.0000 0.94090  0.60330  0.33770  Biso   1.000  C
  C59      1.0000 0.55910  0.10330  0.16230  Biso   1.000  C
  C60      1.0000 0.44090  0.10330  0.33770  Biso   1.000  C
  C61      1.0000 0.94090  0.39670  0.83770  Biso   1.000  C
  C62      1.0000 0.05910  0.39670  0.66230  Biso   1.000  C
  C63      1.0000 0.44090  0.89670  0.83770  Biso   1.000  C
  C64      1.0000 0.55910  0.89670  0.66230  Biso   1.000  C
  C65      1.0000 0.05480  0.50600  0.15940  Biso   1.000  C
  C66      1.0000 0.94520  0.50600  0.34060  Biso   1.000  C
  C67      1.0000 0.55480  0.00600  0.15940  Biso   1.000  C
  C68      1.0000 0.44520  0.00600  0.34060  Biso   1.000  C
  C69      1.0000 0.94520  0.49400  0.84060  Biso   1.000  C
  C70      1.0000 0.05480  0.49400  0.65940  Biso   1.000  C
  C71      1.0000 0.44520  0.99400  0.84060  Biso   1.000  C
  C72      1.0000 0.55480  0.99400  0.65940  Biso   1.000  C
  C73      1.0000 0.09930  0.45450  0.21120  Biso   1.000  C
  C74      1.0000 0.90070  0.45450  0.28880  Biso   1.000  C
  C75      1.0000 0.59930  0.95450  0.21120  Biso   1.000  C
  C76      1.0000 0.40070  0.95450  0.28880  Biso   1.000  C
  C77      1.0000 0.90070  0.54550  0.78880  Biso   1.000  C
  C78      1.0000 0.09930  0.54550  0.71120  Biso   1.000  C
  C79      1.0000 0.40070  0.04550  0.78880  Biso   1.000  C
  C80      1.0000 0.59930  0.04550  0.71120  Biso   1.000  C
  C81      1.0000 0.10480  0.35120  0.21860  Biso   1.000  C
  C82      1.0000 0.89520  0.35120  0.28140  Biso   1.000  C
  C83      1.0000 0.60480  0.85120  0.21860  Biso   1.000  C
  C84      1.0000 0.39520  0.85120  0.28140  Biso   1.000  C
  C85      1.0000 0.89520  0.64880  0.78140  Biso   1.000  C
  C86      1.0000 0.10480  0.64880  0.71860  Biso   1.000  C
  C87      1.0000 0.39520  0.14880  0.78140  Biso   1.000  C
  C88      1.0000 0.60480  0.14880  0.71860  Biso   1.000  C
  C89      1.0000 0.06030  0.28760  0.17350  Biso   1.000  C
  C90      1.0000 0.93970  0.28760  0.32650  Biso   1.000  C
  C91      1.0000 0.56030  0.78760  0.17350  Biso   1.000  C
  C92      1.0000 0.43970  0.78760  0.32650  Biso   1.000  C
  C93      1.0000 0.93970  0.71240  0.82650  Biso   1.000  C
  C94      1.0000 0.06030  0.71240  0.67350  Biso   1.000  C
  C95      1.0000 0.43970  0.21240  0.82650  Biso   1.000  C
  C96      1.0000 0.56030  0.21240  0.67350  Biso   1.000  C
  C97      1.0000 0.06900  0.19340  0.18500  Biso   1.000  C
  C98      1.0000 0.93100  0.19340  0.31500  Biso   1.000  C
  C99      1.0000 0.56900  0.69340  0.18500  Biso   1.000  C
  C100     1.0000 0.43100  0.69340  0.31500  Biso   1.000  C
  C101     1.0000 0.93100  0.80660  0.81500  Biso   1.000  C
  C102     1.0000 0.06900  0.80660  0.68500  Biso   1.000  C
  C103     1.0000 0.43100  0.30660  0.81500  Biso   1.000  C
  C104     1.0000 0.56900  0.30660  0.68500  Biso   1.000  C
  C105     1.0000 0.12210  0.16340  0.24170  Biso   1.000  C
  C106     1.0000 0.87790  0.16340  0.25830  Biso   1.000  C
  C107     1.0000 0.62210  0.66340  0.24170  Biso   1.000  C
  C108     1.0000 0.37790  0.66340  0.25830  Biso   1.000  C
  C109     1.0000 0.87790  0.83660  0.75830  Biso   1.000  C
  C110     1.0000 0.12210  0.83660  0.74170  Biso   1.000  C
  C111     1.0000 0.37790  0.33660  0.75830  Biso   1.000  C
  C112     1.0000 0.62210  0.33660  0.74170  Biso   1.000  C
  C113     1.0000 0.16230  0.22910  0.28510  Biso   1.000  C
  C114     1.0000 0.83770  0.22910  0.21490  Biso   1.000  C
  C115     1.0000 0.66230  0.72910  0.28510  Biso   1.000  C
  C116     1.0000 0.33770  0.72910  0.21490  Biso   1.000  C
  C117     1.0000 0.83770  0.77090  0.71490  Biso   1.000  C
  C118     1.0000 0.16230  0.77090  0.78510  Biso   1.000  C
  C119     1.0000 0.33770  0.27090  0.71490  Biso   1.000  C
  C120     1.0000 0.66230  0.27090  0.78510  Biso   1.000  C
  C121     1.0000 0.37920  0.41610  0.27340  Biso   1.000  C
  C122     1.0000 0.62080  0.41610  0.22660  Biso   1.000  C
  C123     1.0000 0.87920  0.91610  0.27340  Biso   1.000  C
  C124     1.0000 0.12080  0.91610  0.22660  Biso   1.000  C
  C125     1.0000 0.62080  0.58390  0.72660  Biso   1.000  C
  C126     1.0000 0.37920  0.58390  0.77340  Biso   1.000  C
  C127     1.0000 0.12080  0.08390  0.72660  Biso   1.000  C
  C128     1.0000 0.87920  0.08390  0.77340  Biso   1.000  C
  C129     1.0000 0.48190  0.41510  0.27490  Biso   1.000  C
  C130     1.0000 0.51810  0.41510  0.22510  Biso   1.000  C
  C131     1.0000 0.98190  0.91510  0.27490  Biso   1.000  C
  C132     1.0000 0.01810  0.91510  0.22510  Biso   1.000  C
  C133     1.0000 0.51810  0.58490  0.72510  Biso   1.000  C
  C134     1.0000 0.48190  0.58490  0.77490  Biso   1.000  C
  C135     1.0000 0.01810  0.08490  0.72510  Biso   1.000  C
  C136     1.0000 0.98190  0.08490  0.77490  Biso   1.000  C
  C137     1.0000 0.18820  0.34390  0.44350  Biso   1.000  C
  C138     1.0000 0.81180  0.34390  0.05650  Biso   1.000  C
  C139     1.0000 0.68820  0.84390  0.44350  Biso   1.000  C
  C140     1.0000 0.31180  0.84390  0.05650  Biso   1.000  C
  C141     1.0000 0.81180  0.65610  0.55650  Biso   1.000  C
  C142     1.0000 0.18820  0.65610  0.94350  Biso   1.000  C
  C143     1.0000 0.31180  0.15610  0.55650  Biso   1.000  C
  C144     1.0000 0.68820  0.15610  0.94350  Biso   1.000  C
  C145     1.0000 0.21690  0.28060  0.49740  Biso   1.000  C
  C146     1.0000 0.78310  0.28060  0.00260  Biso   1.000  C
  C147     1.0000 0.71690  0.78060  0.49740  Biso   1.000  C
  C148     1.0000 0.28310  0.78060  0.00260  Biso   1.000  C
  C149     1.0000 0.78310  0.71940  0.50260  Biso   1.000  C
  C150     1.0000 0.21690  0.71940  0.99740  Biso   1.000  C
  C151     1.0000 0.28310  0.21940  0.50260  Biso   1.000  C
  C152     1.0000 0.71690  0.21940  0.99740  Biso   1.000  C
  H9       1.0000 0.31500  0.53300  0.45100  Biso   1.000  H
  H10      1.0000 0.68500  0.53300  0.04900  Biso   1.000  H
  H11      1.0000 0.81500  0.03300  0.45100  Biso   1.000  H
  H12      1.0000 0.18500  0.03300  0.04900  Biso   1.000  H
  H13      1.0000 0.68500  0.46700  0.54900  Biso   1.000  H
  H14      1.0000 0.31500  0.46700  0.95100  Biso   1.000  H
  H15      1.0000 0.18500  0.96700  0.54900  Biso   1.000  H
  H16      1.0000 0.81500  0.96700  0.95100  Biso   1.000  H
  H17      1.0000 0.34100  0.68300  0.48700  Biso   1.000  H
  H18      1.0000 0.65900  0.68300  0.01300  Biso   1.000  H
  H19      1.0000 0.84100  0.18300  0.48700  Biso   1.000  H
  H20      1.0000 0.15900  0.18300  0.01300  Biso   1.000  H
  H21      1.0000 0.65900  0.31700  0.51300  Biso   1.000  H
  H22      1.0000 0.34100  0.31700  0.98700  Biso   1.000  H
  H23      1.0000 0.15900  0.81700  0.51300  Biso   1.000  H
  H24      1.0000 0.84100  0.81700  0.98700  Biso   1.000  H
  H25      1.0000 0.29600  0.78900  0.42200  Biso   1.000  H
  H26      1.0000 0.70400  0.78900  0.07800  Biso   1.000  H
  H27      1.0000 0.79600  0.28900  0.42200  Biso   1.000  H
  H28      1.0000 0.20400  0.28900  0.07800  Biso   1.000  H
  H29      1.0000 0.70400  0.21100  0.57800  Biso   1.000  H
  H30      1.0000 0.29600  0.21100  0.92200  Biso   1.000  H
  H31      1.0000 0.20400  0.71100  0.57800  Biso   1.000  H
  H32      1.0000 0.79600  0.71100  0.92200  Biso   1.000  H
  H33      1.0000 0.17500  0.76600  0.32200  Biso   1.000  H
  H34      1.0000 0.82500  0.76600  0.17800  Biso   1.000  H
  H35      1.0000 0.67500  0.26600  0.32200  Biso   1.000  H
  H36      1.0000 0.32500  0.26600  0.17800  Biso   1.000  H
  H37      1.0000 0.82500  0.23400  0.67800  Biso   1.000  H
  H38      1.0000 0.17500  0.23400  0.82200  Biso   1.000  H
  H39      1.0000 0.32500  0.73400  0.67800  Biso   1.000  H
  H40      1.0000 0.67500  0.73400  0.82200  Biso   1.000  H
  H41      1.0000 0.10200  0.70800  0.21900  Biso   1.000  H
  H42      1.0000 0.89800  0.70800  0.28100  Biso   1.000  H
  H43      1.0000 0.60200  0.20800  0.21900  Biso   1.000  H
  H44      1.0000 0.39800  0.20800  0.28100  Biso   1.000  H
  H45      1.0000 0.89800  0.29200  0.78100  Biso   1.000  H
  H46      1.0000 0.10200  0.29200  0.71900  Biso   1.000  H
  H47      1.0000 0.39800  0.79200  0.78100  Biso   1.000  H
  H48      1.0000 0.60200  0.79200  0.71900  Biso   1.000  H
  H49      1.0000 0.03100  0.63800  0.12400  Biso   1.000  H
  H50      1.0000 0.96900  0.63800  0.37600  Biso   1.000  H
  H51      1.0000 0.53100  0.13800  0.12400  Biso   1.000  H
  H52      1.0000 0.46900  0.13800  0.37600  Biso   1.000  H
  H53      1.0000 0.96900  0.36200  0.87600  Biso   1.000  H
  H54      1.0000 0.03100  0.36200  0.62400  Biso   1.000  H
  H55      1.0000 0.46900  0.86200  0.87600  Biso   1.000  H
  H56      1.0000 0.53100  0.86200  0.62400  Biso   1.000  H
  H57      1.0000 0.02800  0.48600  0.11600  Biso   1.000  H
  H58      1.0000 0.97200  0.48600  0.38400  Biso   1.000  H
  H59      1.0000 0.52800  0.98600  0.11600  Biso   1.000  H
  H60      1.0000 0.47200  0.98600  0.38400  Biso   1.000  H
  H61      1.0000 0.97200  0.51400  0.88400  Biso   1.000  H
  H62      1.0000 0.02800  0.51400  0.61600  Biso   1.000  H
  H63      1.0000 0.47200  0.01400  0.88400  Biso   1.000  H
  H64      1.0000 0.52800  0.01400  0.61600  Biso   1.000  H
  H65      1.0000 0.03000  0.30400  0.13400  Biso   1.000  H
  H66      1.0000 0.97000  0.30400  0.36600  Biso   1.000  H
  H67      1.0000 0.53000  0.80400  0.13400  Biso   1.000  H
  H68      1.0000 0.47000  0.80400  0.36600  Biso   1.000  H
  H69      1.0000 0.97000  0.69600  0.86600  Biso   1.000  H
  H70      1.0000 0.03000  0.69600  0.63400  Biso   1.000  H
  H71      1.0000 0.47000  0.19600  0.86600  Biso   1.000  H
  H72      1.0000 0.53000  0.19600  0.63400  Biso   1.000  H
  H73      1.0000 0.03900  0.15300  0.14800  Biso   1.000  H
  H74      1.0000 0.96100  0.15300  0.35200  Biso   1.000  H
  H75      1.0000 0.53900  0.65300  0.14800  Biso   1.000  H
  H76      1.0000 0.46100  0.65300  0.35200  Biso   1.000  H
  H77      1.0000 0.96100  0.84700  0.85200  Biso   1.000  H
  H78      1.0000 0.03900  0.84700  0.64800  Biso   1.000  H
  H79      1.0000 0.46100  0.34700  0.85200  Biso   1.000  H
  H80      1.0000 0.53900  0.34700  0.64800  Biso   1.000  H
  H81      1.0000 0.11900  0.10300  0.25300  Biso   1.000  H
  H82      1.0000 0.88100  0.10300  0.24700  Biso   1.000  H
  H83      1.0000 0.61900  0.60300  0.25300  Biso   1.000  H
  H84      1.0000 0.38100  0.60300  0.24700  Biso   1.000  H
  H85      1.0000 0.88100  0.89700  0.74700  Biso   1.000  H
  H86      1.0000 0.11900  0.89700  0.75300  Biso   1.000  H
  H87      1.0000 0.38100  0.39700  0.74700  Biso   1.000  H
  H88      1.0000 0.61900  0.39700  0.75300  Biso   1.000  H
  H89      1.0000 0.19200  0.21400  0.32700  Biso   1.000  H
  H90      1.0000 0.80800  0.21400  0.17300  Biso   1.000  H
  H91      1.0000 0.69200  0.71400  0.32700  Biso   1.000  H
  H92      1.0000 0.30800  0.71400  0.17300  Biso   1.000  H
  H93      1.0000 0.80800  0.78600  0.67300  Biso   1.000  H
  H94      1.0000 0.19200  0.78600  0.82700  Biso   1.000  H
  H95      1.0000 0.30800  0.28600  0.67300  Biso   1.000  H
  H96      1.0000 0.69200  0.28600  0.82700  Biso   1.000  H
  H97      1.0000 0.51800  0.42100  0.31450  Biso   1.000  H
  H98      1.0000 0.48200  0.42100  0.18550  Biso   1.000  H
  H99      1.0000 0.01800  0.92100  0.31450  Biso   1.000  H
  H100     1.0000 0.98200  0.92100  0.18550  Biso   1.000  H
  H101     1.0000 0.48200  0.57900  0.68550  Biso   1.000  H
  H102     1.0000 0.51800  0.57900  0.81450  Biso   1.000  H
  H103     1.0000 0.98200  0.07900  0.68550  Biso   1.000  H
  H104     1.0000 0.01800  0.07900  0.81450  Biso   1.000  H
  H105     1.0000 0.18200  0.27600  0.52640  Biso   1.000  H
  H106     1.0000 0.81800  0.27600  0.97360  Biso   1.000  H
  H107     1.0000 0.68200  0.77600  0.52640  Biso   1.000  H
  H108     1.0000 0.31800  0.77600  0.97360  Biso   1.000  H
  H109     1.0000 0.81800  0.72400  0.47360  Biso   1.000  H
  H110     1.0000 0.18200  0.72400  0.02640  Biso   1.000  H
  H111     1.0000 0.31800  0.22400  0.47360  Biso   1.000  H
  H112     1.0000 0.68200  0.22400  0.02640  Biso   1.000  H
  H113     1.0000 0.10000  0.58800  0.51000  Biso   1.000  H
  H114     1.0000 0.90000  0.58800  0.99000  Biso   1.000  H
  H115     1.0000 0.60000  0.08800  0.51000  Biso   1.000  H
  H116     1.0000 0.40000  0.08800  0.99000  Biso   1.000  H
  H117     1.0000 0.90000  0.41200  0.49000  Biso   1.000  H
  H118     1.0000 0.10000  0.41200  0.01000  Biso   1.000  H
  H119     1.0000 0.40000  0.91200  0.49000  Biso   1.000  H
  H120     1.0000 0.60000  0.91200  0.01000  Biso   1.000  H
  H121     1.0000 0.30600  0.52500  0.60300  Biso   1.000  H
  H122     1.0000 0.69400  0.52500  0.89700  Biso   1.000  H
  H123     1.0000 0.80600  0.02500  0.60300  Biso   1.000  H
  H124     1.0000 0.19400  0.02500  0.89700  Biso   1.000  H
  H125     1.0000 0.69400  0.47500  0.39700  Biso   1.000  H
  H126     1.0000 0.30600  0.47500  0.10300  Biso   1.000  H
  H127     1.0000 0.19400  0.97500  0.39700  Biso   1.000  H
  H128     1.0000 0.80600  0.97500  0.10300  Biso   1.000  H
  H129     1.0000 0.43500  0.37700  0.41080  Biso   1.000  H
  H130     1.0000 0.56500  0.37700  0.08920  Biso   1.000  H
  H131     1.0000 0.93500  0.87700  0.41080  Biso   1.000  H
  H132     1.0000 0.06500  0.87700  0.08920  Biso   1.000  H
  H133     1.0000 0.56500  0.62300  0.58920  Biso   1.000  H
  H134     1.0000 0.43500  0.62300  0.91080  Biso   1.000  H
  H135     1.0000 0.06500  0.12300  0.58920  Biso   1.000  H
  H136     1.0000 0.93500  0.12300  0.91080  Biso   1.000  H
  H137     1.0000 0.47700  0.31640  0.45500  Biso   1.000  H
  H138     1.0000 0.52300  0.31640  0.04500  Biso   1.000  H
  H139     1.0000 0.97700  0.81640  0.45500  Biso   1.000  H
  H140     1.0000 0.02300  0.81640  0.04500  Biso   1.000  H
  H141     1.0000 0.52300  0.68360  0.54500  Biso   1.000  H
  H142     1.0000 0.47700  0.68360  0.95500  Biso   1.000  H
  H143     1.0000 0.02300  0.18360  0.54500  Biso   1.000  H
  H144     1.0000 0.97700  0.18360  0.95500  Biso   1.000  H
  H145     1.0000 0.94300  0.33600  0.48500  Biso   1.000  H
  H146     1.0000 0.05700  0.33600  0.01500  Biso   1.000  H
  H147     1.0000 0.44300  0.83600  0.48500  Biso   1.000  H
  H148     1.0000 0.55700  0.83600  0.01500  Biso   1.000  H
  H149     1.0000 0.05700  0.66400  0.51500  Biso   1.000  H
  H150     1.0000 0.94300  0.66400  0.98500  Biso   1.000  H
  H151     1.0000 0.55700  0.16400  0.51500  Biso   1.000  H
  H152     1.0000 0.44300  0.16400  0.98500  Biso   1.000  H
  H153     1.0000 0.96000  0.99300  0.06000  Biso   1.000  H
  H154     1.0000 0.04000  0.99300  0.44000  Biso   1.000  H
  H155     1.0000 0.46000  0.49300  0.06000  Biso   1.000  H
  H156     1.0000 0.54000  0.49300  0.44000  Biso   1.000  H
  H157     1.0000 0.04000  0.00700  0.94000  Biso   1.000  H
  H158     1.0000 0.96000  0.00700  0.56000  Biso   1.000  H
  H159     1.0000 0.54000  0.50700  0.94000  Biso   1.000  H
  H160     1.0000 0.46000  0.50700  0.56000  Biso   1.000  H
  H161     1.0000 0.93100  0.06800  0.02310  Biso   1.000  H
  H162     1.0000 0.06900  0.06800  0.47690  Biso   1.000  H
  H163     1.0000 0.43100  0.56800  0.02310  Biso   1.000  H
  H164     1.0000 0.56900  0.56800  0.47690  Biso   1.000  H
  H165     1.0000 0.06900  0.93200  0.97690  Biso   1.000  H
  H166     1.0000 0.93100  0.93200  0.52310  Biso   1.000  H
  H167     1.0000 0.56900  0.43200  0.97690  Biso   1.000  H
  H168     1.0000 0.43100  0.43200  0.52310  Biso   1.000  H
  H169     1.0000 0.03550  0.32300  0.49600  Biso   1.000  H
  H170     1.0000 0.96450  0.32300  0.00400  Biso   1.000  H
  H171     1.0000 0.53550  0.82300  0.49600  Biso   1.000  H
  H172     1.0000 0.46450  0.82300  0.00400  Biso   1.000  H
  H173     1.0000 0.96450  0.67700  0.50400  Biso   1.000  H
  H174     1.0000 0.03550  0.67700  0.99600  Biso   1.000  H
  H175     1.0000 0.46450  0.17700  0.50400  Biso   1.000  H
  H176     1.0000 0.53550  0.17700  0.99600  Biso   1.000  H
  H177     1.0000 0.11500  0.49600  0.50100  Biso   1.000  H
  H178     1.0000 0.88500  0.49600  0.99900  Biso   1.000  H
  H179     1.0000 0.61500  0.99600  0.50100  Biso   1.000  H
  H180     1.0000 0.38500  0.99600  0.99900  Biso   1.000  H
  H181     1.0000 0.88500  0.50400  0.49900  Biso   1.000  H
  H182     1.0000 0.11500  0.50400  0.00100  Biso   1.000  H
  H183     1.0000 0.38500  0.00400  0.49900  Biso   1.000  H
  H184     1.0000 0.61500  0.00400  0.00100  Biso   1.000  H
