data_image0
_cell_length_a       16.8441
_cell_length_b       7.0162
_cell_length_c       31.0687
_cell_angle_alpha    90
_cell_angle_beta     95.858
_cell_angle_gamma    90

_symmetry_space_group_name_H-M    "P 1"
_symmetry_int_tables_number       1

loop_
  _symmetry_equiv_pos_as_xyz
  'x, y, z'

loop_
  _atom_site_label
  _atom_site_occupancy
  _atom_site_fract_x
  _atom_site_fract_y
  _atom_site_fract_z
  _atom_site_thermal_displace_type
  _atom_site_B_iso_or_equiv
  _atom_site_type_symbol
  Cu1      1.0000 0.49956  0.44620  0.75364  Biso   1.000  Cu
  Cu2      1.0000 0.50044  0.44620  0.24636  Biso   1.000  Cu
  Cu3      1.0000 0.99956  0.94620  0.75364  Biso   1.000  Cu
  Cu4      1.0000 0.00044  0.94620  0.24636  Biso   1.000  Cu
  Cl1      1.0000 0.50507  0.20603  0.80280  Biso   1.000  Cl
  Cl2      1.0000 0.49493  0.20603  0.19720  Biso   1.000  Cl
  Cl3      1.0000 0.00507  0.70603  0.80280  Biso   1.000  Cl
  Cl4      1.0000 0.99493  0.70603  0.19720  Biso   1.000  Cl
  Cl5      1.0000 0.49541  0.68806  0.70465  Biso   1.000  Cl
  Cl6      1.0000 0.50459  0.68806  0.29535  Biso   1.000  Cl
  Cl7      1.0000 0.99541  0.18806  0.70465  Biso   1.000  Cl
  Cl8      1.0000 0.00459  0.18806  0.29535  Biso   1.000  Cl
  N1       1.0000 0.41220  0.57020  0.78282  Biso   1.000  N
  N2       1.0000 0.58780  0.57020  0.21718  Biso   1.000  N
  N3       1.0000 0.91220  0.07020  0.78282  Biso   1.000  N
  N4       1.0000 0.08780  0.07020  0.21718  Biso   1.000  N
  N5       1.0000 0.18190  0.37580  0.83671  Biso   1.000  N
  N6       1.0000 0.81810  0.37580  0.16329  Biso   1.000  N
  N7       1.0000 0.68190  0.87580  0.83671  Biso   1.000  N
  N8       1.0000 0.31810  0.87580  0.16329  Biso   1.000  N
  H1       1.0000 0.18900  0.43100  0.86140  Biso   1.000  H
  H2       1.0000 0.81100  0.43100  0.13860  Biso   1.000  H
  H3       1.0000 0.68900  0.93100  0.86140  Biso   1.000  H
  H4       1.0000 0.31100  0.93100  0.13860  Biso   1.000  H
  N9       1.0000 0.10050  0.96780  0.88274  Biso   1.000  N
  N10      1.0000 0.89950  0.96780  0.11726  Biso   1.000  N
  N11      1.0000 0.60050  0.46780  0.88274  Biso   1.000  N
  N12      1.0000 0.39950  0.46780  0.11726  Biso   1.000  N
  H5       1.0000 0.08300  0.90200  0.86050  Biso   1.000  H
  H6       1.0000 0.91700  0.90200  0.13950  Biso   1.000  H
  H7       1.0000 0.58300  0.40200  0.86050  Biso   1.000  H
  H8       1.0000 0.41700  0.40200  0.13950  Biso   1.000  H
  N13      1.0000 0.58280  0.31830  0.72198  Biso   1.000  N
  N14      1.0000 0.41720  0.31830  0.27802  Biso   1.000  N
  N15      1.0000 0.08280  0.81830  0.72198  Biso   1.000  N
  N16      1.0000 0.91720  0.81830  0.27802  Biso   1.000  N
  N17      1.0000 0.80190  0.53470  0.66402  Biso   1.000  N
  N18      1.0000 0.19810  0.53470  0.33598  Biso   1.000  N
  N19      1.0000 0.30190  0.03470  0.66402  Biso   1.000  N
  N20      1.0000 0.69810  0.03470  0.33598  Biso   1.000  N
  H9       1.0000 0.78800  0.49300  0.63840  Biso   1.000  H
  H10      1.0000 0.21200  0.49300  0.36160  Biso   1.000  H
  H11      1.0000 0.28800  0.99300  0.63840  Biso   1.000  H
  H12      1.0000 0.71200  0.99300  0.36160  Biso   1.000  H
  N21      1.0000 0.89450  0.95220  0.62847  Biso   1.000  N
  N22      1.0000 0.10550  0.95220  0.37153  Biso   1.000  N
  N23      1.0000 0.39450  0.45220  0.62847  Biso   1.000  N
  N24      1.0000 0.60550  0.45220  0.37153  Biso   1.000  N
  H13      1.0000 0.91400  0.99300  0.65340  Biso   1.000  H
  H14      1.0000 0.08600  0.99300  0.34660  Biso   1.000  H
  H15      1.0000 0.41400  0.49300  0.65340  Biso   1.000  H
  H16      1.0000 0.58600  0.49300  0.34660  Biso   1.000  H
  O1       1.0000 0.12290  0.11790  0.80446  Biso   1.000  O
  O2       1.0000 0.87710  0.11790  0.19554  Biso   1.000  O
  O3       1.0000 0.62290  0.61790  0.80446  Biso   1.000  O
  O4       1.0000 0.37710  0.61790  0.19554  Biso   1.000  O
  O5       1.0000 0.15840  0.22940  0.91377  Biso   1.000  O
  O6       1.0000 0.84160  0.22940  0.08623  Biso   1.000  O
  O7       1.0000 0.65840  0.72940  0.91377  Biso   1.000  O
  O8       1.0000 0.34160  0.72940  0.08623  Biso   1.000  O
  O9       1.0000 0.20390  0.68230  0.90989  Biso   1.000  O
  O10      1.0000 0.79610  0.68230  0.09011  Biso   1.000  O
  O11      1.0000 0.70390  0.18230  0.90989  Biso   1.000  O
  O12      1.0000 0.29610  0.18230  0.09011  Biso   1.000  O
  O13      1.0000 0.15862  0.67570  0.97500  Biso   1.000  O
  O14      1.0000 0.84138  0.67570  0.02500  Biso   1.000  O
  O15      1.0000 0.65862  0.17570  0.97500  Biso   1.000  O
  O16      1.0000 0.34138  0.17570  0.02500  Biso   1.000  O
  O17      1.0000 0.87410  0.76580  0.70148  Biso   1.000  O
  O18      1.0000 0.12590  0.76580  0.29852  Biso   1.000  O
  O19      1.0000 0.37410  0.26580  0.70148  Biso   1.000  O
  O20      1.0000 0.62590  0.26580  0.29852  Biso   1.000  O
  O21      1.0000 0.81420  0.73980  0.59100  Biso   1.000  O
  O22      1.0000 0.18580  0.73980  0.40900  Biso   1.000  O
  O23      1.0000 0.31420  0.23980  0.59100  Biso   1.000  O
  O24      1.0000 0.68580  0.23980  0.40900  Biso   1.000  O
  O25      1.0000 0.78660  0.21110  0.58977  Biso   1.000  O
  O26      1.0000 0.21340  0.21110  0.41023  Biso   1.000  O
  O27      1.0000 0.28660  0.71110  0.58977  Biso   1.000  O
  O28      1.0000 0.71340  0.71110  0.41023  Biso   1.000  O
  O29      1.0000 0.85320  0.23130  0.53246  Biso   1.000  O
  O30      1.0000 0.14680  0.23130  0.46754  Biso   1.000  O
  O31      1.0000 0.35320  0.73130  0.53246  Biso   1.000  O
  O32      1.0000 0.64680  0.73130  0.46754  Biso   1.000  O
  C1       1.0000 0.42260  0.74630  0.79973  Biso   1.000  C
  C2       1.0000 0.57740  0.74630  0.20027  Biso   1.000  C
  C3       1.0000 0.92260  0.24630  0.79973  Biso   1.000  C
  C4       1.0000 0.07740  0.24630  0.20027  Biso   1.000  C
  H17      1.0000 0.47150  0.80730  0.79880  Biso   1.000  H
  H18      1.0000 0.52850  0.80730  0.20120  Biso   1.000  H
  H19      1.0000 0.97150  0.30730  0.79880  Biso   1.000  H
  H20      1.0000 0.02850  0.30730  0.20120  Biso   1.000  H
  C5       1.0000 0.36290  0.83740  0.81826  Biso   1.000  C
  C6       1.0000 0.63710  0.83740  0.18174  Biso   1.000  C
  C7       1.0000 0.86290  0.33740  0.81826  Biso   1.000  C
  C8       1.0000 0.13710  0.33740  0.18174  Biso   1.000  C
  H21      1.0000 0.37200  0.95690  0.83070  Biso   1.000  H
  H22      1.0000 0.62800  0.95690  0.16930  Biso   1.000  H
  H23      1.0000 0.87200  0.45690  0.83070  Biso   1.000  H
  H24      1.0000 0.12800  0.45690  0.16930  Biso   1.000  H
  C9       1.0000 0.28910  0.75240  0.81849  Biso   1.000  C
  C10      1.0000 0.71090  0.75240  0.18151  Biso   1.000  C
  C11      1.0000 0.78910  0.25240  0.81849  Biso   1.000  C
  C12      1.0000 0.21090  0.25240  0.18151  Biso   1.000  C
  H25      1.0000 0.24780  0.81490  0.83040  Biso   1.000  H
  H26      1.0000 0.75220  0.81490  0.16960  Biso   1.000  H
  H27      1.0000 0.74780  0.31490  0.83040  Biso   1.000  H
  H28      1.0000 0.25220  0.31490  0.16960  Biso   1.000  H
  C13      1.0000 0.27740  0.57280  0.80067  Biso   1.000  C
  C14      1.0000 0.72260  0.57280  0.19933  Biso   1.000  C
  C15      1.0000 0.77740  0.07280  0.80067  Biso   1.000  C
  C16      1.0000 0.22260  0.07280  0.19933  Biso   1.000  C
  C17      1.0000 0.34160  0.48660  0.78374  Biso   1.000  C
  C18      1.0000 0.65840  0.48660  0.21626  Biso   1.000  C
  C19      1.0000 0.84160  0.98660  0.78374  Biso   1.000  C
  C20      1.0000 0.15840  0.98660  0.21626  Biso   1.000  C
  H29      1.0000 0.33490  0.36420  0.77250  Biso   1.000  H
  H30      1.0000 0.66510  0.36420  0.22750  Biso   1.000  H
  H31      1.0000 0.83490  0.86420  0.77250  Biso   1.000  H
  H32      1.0000 0.16510  0.86420  0.22750  Biso   1.000  H
  C21      1.0000 0.19670  0.47720  0.79710  Biso   1.000  C
  C22      1.0000 0.80330  0.47720  0.20290  Biso   1.000  C
  C23      1.0000 0.69670  0.97720  0.79710  Biso   1.000  C
  C24      1.0000 0.30330  0.97720  0.20290  Biso   1.000  C
  H33      1.0000 0.15560  0.57280  0.79080  Biso   1.000  H
  H34      1.0000 0.84440  0.57280  0.20920  Biso   1.000  H
  H35      1.0000 0.65560  0.07280  0.79080  Biso   1.000  H
  H36      1.0000 0.34440  0.07280  0.20920  Biso   1.000  H
  H37      1.0000 0.19330  0.38770  0.77320  Biso   1.000  H
  H38      1.0000 0.80670  0.38770  0.22680  Biso   1.000  H
  H39      1.0000 0.69330  0.88770  0.77320  Biso   1.000  H
  H40      1.0000 0.30670  0.88770  0.22680  Biso   1.000  H
  C25      1.0000 0.14590  0.20920  0.83643  Biso   1.000  C
  C26      1.0000 0.85410  0.20920  0.16357  Biso   1.000  C
  C27      1.0000 0.64590  0.70920  0.83643  Biso   1.000  C
  C28      1.0000 0.35410  0.70920  0.16357  Biso   1.000  C
  C29      1.0000 0.13570  0.13860  0.88234  Biso   1.000  C
  C30      1.0000 0.86430  0.13860  0.11766  Biso   1.000  C
  C31      1.0000 0.63570  0.63860  0.88234  Biso   1.000  C
  C32      1.0000 0.36430  0.63860  0.11766  Biso   1.000  C
  C33      1.0000 0.09030  0.87440  0.92314  Biso   1.000  C
  C34      1.0000 0.90970  0.87440  0.07686  Biso   1.000  C
  C35      1.0000 0.59030  0.37440  0.92314  Biso   1.000  C
  C36      1.0000 0.40970  0.37440  0.07686  Biso   1.000  C
  H41      1.0000 0.09260  0.97140  0.94590  Biso   1.000  H
  H42      1.0000 0.90740  0.97140  0.05410  Biso   1.000  H
  H43      1.0000 0.59260  0.47140  0.94590  Biso   1.000  H
  H44      1.0000 0.40740  0.47140  0.05410  Biso   1.000  H
  C37      1.0000 0.15770  0.73310  0.93442  Biso   1.000  C
  C38      1.0000 0.84230  0.73310  0.06558  Biso   1.000  C
  C39      1.0000 0.65770  0.23310  0.93442  Biso   1.000  C
  C40      1.0000 0.34230  0.23310  0.06558  Biso   1.000  C
  C41      1.0000 0.21680  0.53470  0.98998  Biso   1.000  C
  C42      1.0000 0.78320  0.53470  0.01002  Biso   1.000  C
  C43      1.0000 0.71680  0.03470  0.98998  Biso   1.000  C
  C44      1.0000 0.28320  0.03470  0.01002  Biso   1.000  C
  H45      1.0000 0.21230  0.42710  0.97080  Biso   1.000  H
  H46      1.0000 0.78770  0.42710  0.02920  Biso   1.000  H
  H47      1.0000 0.71230  0.92710  0.97080  Biso   1.000  H
  H48      1.0000 0.28770  0.92710  0.02920  Biso   1.000  H
  H49      1.0000 0.20750  0.49440  0.01860  Biso   1.000  H
  H50      1.0000 0.79250  0.49440  0.98140  Biso   1.000  H
  H51      1.0000 0.70750  0.99440  0.01860  Biso   1.000  H
  H52      1.0000 0.29250  0.99440  0.98140  Biso   1.000  H
  H53      1.0000 0.26930  0.58820  0.99060  Biso   1.000  H
  H54      1.0000 0.73070  0.58820  0.00940  Biso   1.000  H
  H55      1.0000 0.76930  0.08820  0.99060  Biso   1.000  H
  H56      1.0000 0.23070  0.08820  0.00940  Biso   1.000  H
  C45      1.0000 0.00960  0.77440  0.92147  Biso   1.000  C
  C46      1.0000 0.99040  0.77440  0.07853  Biso   1.000  C
  C47      1.0000 0.50960  0.27440  0.92147  Biso   1.000  C
  C48      1.0000 0.49040  0.27440  0.07853  Biso   1.000  C
  H57      1.0000 0.00840  0.67210  0.90040  Biso   1.000  H
  H58      1.0000 0.99160  0.67210  0.09960  Biso   1.000  H
  H59      1.0000 0.50840  0.17210  0.90040  Biso   1.000  H
  H60      1.0000 0.49160  0.17210  0.09960  Biso   1.000  H
  H61      1.0000 0.00440  0.71740  0.94950  Biso   1.000  H
  H62      1.0000 0.99560  0.71740  0.05050  Biso   1.000  H
  H63      1.0000 0.50440  0.21740  0.94950  Biso   1.000  H
  H64      1.0000 0.49560  0.21740  0.05050  Biso   1.000  H
  C49      1.0000 0.93810  0.90500  0.90972  Biso   1.000  C
  C50      1.0000 0.06190  0.90500  0.09028  Biso   1.000  C
  C51      1.0000 0.43810  0.40500  0.90972  Biso   1.000  C
  C52      1.0000 0.56190  0.40500  0.09028  Biso   1.000  C
  H65      1.0000 0.94170  0.95220  0.88030  Biso   1.000  H
  H66      1.0000 0.05830  0.95220  0.11970  Biso   1.000  H
  H67      1.0000 0.44170  0.45220  0.88030  Biso   1.000  H
  H68      1.0000 0.55830  0.45220  0.11970  Biso   1.000  H
  C53      1.0000 0.93480  0.07310  0.93860  Biso   1.000  C
  C54      1.0000 0.06520  0.07310  0.06140  Biso   1.000  C
  C55      1.0000 0.43480  0.57310  0.93860  Biso   1.000  C
  C56      1.0000 0.56520  0.57310  0.06140  Biso   1.000  C
  H69      1.0000 0.93500  0.03110  0.96800  Biso   1.000  H
  H70      1.0000 0.06500  0.03110  0.03200  Biso   1.000  H
  H71      1.0000 0.43500  0.53110  0.96800  Biso   1.000  H
  H72      1.0000 0.56500  0.53110  0.03200  Biso   1.000  H
  H73      1.0000 0.88680  0.14380  0.93040  Biso   1.000  H
  H74      1.0000 0.11320  0.14380  0.06960  Biso   1.000  H
  H75      1.0000 0.38680  0.64380  0.93040  Biso   1.000  H
  H76      1.0000 0.61320  0.64380  0.06960  Biso   1.000  H
  H77      1.0000 0.98030  0.15310  0.93600  Biso   1.000  H
  H78      1.0000 0.01970  0.15310  0.06400  Biso   1.000  H
  H79      1.0000 0.48030  0.65310  0.93600  Biso   1.000  H
  H80      1.0000 0.51970  0.65310  0.06400  Biso   1.000  H
  C57      1.0000 0.86230  0.78900  0.90920  Biso   1.000  C
  C58      1.0000 0.13770  0.78900  0.09080  Biso   1.000  C
  C59      1.0000 0.36230  0.28900  0.90920  Biso   1.000  C
  C60      1.0000 0.63770  0.28900  0.09080  Biso   1.000  C
  H81      1.0000 0.86440  0.68410  0.88950  Biso   1.000  H
  H82      1.0000 0.13560  0.68410  0.11050  Biso   1.000  H
  H83      1.0000 0.36440  0.18410  0.88950  Biso   1.000  H
  H84      1.0000 0.63560  0.18410  0.11050  Biso   1.000  H
  H85      1.0000 0.81730  0.86810  0.90000  Biso   1.000  H
  H86      1.0000 0.18270  0.86810  0.10000  Biso   1.000  H
  H87      1.0000 0.31730  0.36810  0.90000  Biso   1.000  H
  H88      1.0000 0.68270  0.36810  0.10000  Biso   1.000  H
  H89      1.0000 0.85720  0.74120  0.93770  Biso   1.000  H
  H90      1.0000 0.14280  0.74120  0.06230  Biso   1.000  H
  H91      1.0000 0.35720  0.24120  0.93770  Biso   1.000  H
  H92      1.0000 0.64280  0.24120  0.06230  Biso   1.000  H
  C61      1.0000 0.57010  0.14840  0.70415  Biso   1.000  C
  C62      1.0000 0.42990  0.14840  0.29585  Biso   1.000  C
  C63      1.0000 0.07010  0.64840  0.70415  Biso   1.000  C
  C64      1.0000 0.92990  0.64840  0.29585  Biso   1.000  C
  H93      1.0000 0.52140  0.08870  0.70640  Biso   1.000  H
  H94      1.0000 0.47860  0.08870  0.29360  Biso   1.000  H
  H95      1.0000 0.02140  0.58870  0.70640  Biso   1.000  H
  H96      1.0000 0.97860  0.58870  0.29360  Biso   1.000  H
  C65      1.0000 0.62590  0.05720  0.68253  Biso   1.000  C
  C66      1.0000 0.37410  0.05720  0.31747  Biso   1.000  C
  C67      1.0000 0.12590  0.55720  0.68253  Biso   1.000  C
  C68      1.0000 0.87410  0.55720  0.31747  Biso   1.000  C
  H97      1.0000 0.61460  0.93950  0.66960  Biso   1.000  H
  H98      1.0000 0.38540  0.93950  0.33040  Biso   1.000  H
  H99      1.0000 0.11460  0.43950  0.66960  Biso   1.000  H
  H100     1.0000 0.88540  0.43950  0.33040  Biso   1.000  H
  C69      1.0000 0.69870  0.14220  0.68024  Biso   1.000  C
  C70      1.0000 0.30130  0.14220  0.31976  Biso   1.000  C
  C71      1.0000 0.19870  0.64220  0.68024  Biso   1.000  C
  C72      1.0000 0.80130  0.64220  0.31976  Biso   1.000  C
  H101     1.0000 0.73720  0.08240  0.66560  Biso   1.000  H
  H102     1.0000 0.26280  0.08240  0.33440  Biso   1.000  H
  H103     1.0000 0.23720  0.58240  0.66560  Biso   1.000  H
  H104     1.0000 0.76280  0.58240  0.33440  Biso   1.000  H
  C73      1.0000 0.71480  0.31680  0.69982  Biso   1.000  C
  C74      1.0000 0.28520  0.31680  0.30018  Biso   1.000  C
  C75      1.0000 0.21480  0.81680  0.69982  Biso   1.000  C
  C76      1.0000 0.78520  0.81680  0.30018  Biso   1.000  C
  C77      1.0000 0.65410  0.40100  0.71980  Biso   1.000  C
  C78      1.0000 0.34590  0.40100  0.28020  Biso   1.000  C
  C79      1.0000 0.15410  0.90100  0.71980  Biso   1.000  C
  C80      1.0000 0.84590  0.90100  0.28020  Biso   1.000  C
  H105     1.0000 0.66300  0.52050  0.73230  Biso   1.000  H
  H106     1.0000 0.33700  0.52050  0.26770  Biso   1.000  H
  H107     1.0000 0.16300  0.02050  0.73230  Biso   1.000  H
  H108     1.0000 0.83700  0.02050  0.26770  Biso   1.000  H
  C81      1.0000 0.79550  0.41090  0.70069  Biso   1.000  C
  C82      1.0000 0.20450  0.41090  0.29931  Biso   1.000  C
  C83      1.0000 0.29550  0.91090  0.70069  Biso   1.000  C
  C84      1.0000 0.70450  0.91090  0.29931  Biso   1.000  C
  H109     1.0000 0.80550  0.48460  0.72710  Biso   1.000  H
  H110     1.0000 0.19450  0.48460  0.27290  Biso   1.000  H
  H111     1.0000 0.30550  0.98460  0.72710  Biso   1.000  H
  H112     1.0000 0.69450  0.98460  0.27290  Biso   1.000  H
  H113     1.0000 0.83630  0.31300  0.70110  Biso   1.000  H
  H114     1.0000 0.16370  0.31300  0.29890  Biso   1.000  H
  H115     1.0000 0.33630  0.81300  0.70110  Biso   1.000  H
  H116     1.0000 0.66370  0.81300  0.29890  Biso   1.000  H
  C85      1.0000 0.84260  0.69870  0.66770  Biso   1.000  C
  C86      1.0000 0.15740  0.69870  0.33230  Biso   1.000  C
  C87      1.0000 0.34260  0.19870  0.66770  Biso   1.000  C
  C88      1.0000 0.65740  0.19870  0.33230  Biso   1.000  C
  C89      1.0000 0.84910  0.80160  0.62457  Biso   1.000  C
  C90      1.0000 0.15090  0.80160  0.37543  Biso   1.000  C
  C91      1.0000 0.34910  0.30160  0.62457  Biso   1.000  C
  C92      1.0000 0.65090  0.30160  0.37543  Biso   1.000  C
  C93      1.0000 0.91580  0.06630  0.59224  Biso   1.000  C
  C94      1.0000 0.08420  0.06630  0.40776  Biso   1.000  C
  C95      1.0000 0.41580  0.56630  0.59224  Biso   1.000  C
  C96      1.0000 0.58420  0.56630  0.40776  Biso   1.000  C
  H117     1.0000 0.95300  0.16380  0.60470  Biso   1.000  H
  H118     1.0000 0.04700  0.16380  0.39530  Biso   1.000  H
  H119     1.0000 0.45300  0.66380  0.60470  Biso   1.000  H
  H120     1.0000 0.54700  0.66380  0.39530  Biso   1.000  H
  C97      1.0000 0.84380  0.17240  0.57173  Biso   1.000  C
  C98      1.0000 0.15620  0.17240  0.42827  Biso   1.000  C
  C99      1.0000 0.34380  0.67240  0.57173  Biso   1.000  C
  C100     1.0000 0.65620  0.67240  0.42827  Biso   1.000  C
  C101     1.0000 0.79150  0.35690  0.51171  Biso   1.000  C
  C102     1.0000 0.20850  0.35690  0.48829  Biso   1.000  C
  C103     1.0000 0.29150  0.85690  0.51171  Biso   1.000  C
  C104     1.0000 0.70850  0.85690  0.48829  Biso   1.000  C
  H121     1.0000 0.73990  0.30420  0.51490  Biso   1.000  H
  H122     1.0000 0.26010  0.30420  0.48510  Biso   1.000  H
  H123     1.0000 0.23990  0.80420  0.51490  Biso   1.000  H
  H124     1.0000 0.76010  0.80420  0.48510  Biso   1.000  H
  H125     1.0000 0.79830  0.36870  0.48150  Biso   1.000  H
  H126     1.0000 0.20170  0.36870  0.51850  Biso   1.000  H
  H127     1.0000 0.29830  0.86870  0.48150  Biso   1.000  H
  H128     1.0000 0.70170  0.86870  0.51850  Biso   1.000  H
  H129     1.0000 0.79590  0.48040  0.52510  Biso   1.000  H
  H130     1.0000 0.20410  0.48040  0.47490  Biso   1.000  H
  H131     1.0000 0.29590  0.98040  0.52510  Biso   1.000  H
  H132     1.0000 0.70410  0.98040  0.47490  Biso   1.000  H
  C105     1.0000 0.96140  0.95030  0.56151  Biso   1.000  C
  C106     1.0000 0.03860  0.95030  0.43849  Biso   1.000  C
  C107     1.0000 0.46140  0.45030  0.56151  Biso   1.000  C
  C108     1.0000 0.53860  0.45030  0.43849  Biso   1.000  C
  H133     1.0000 0.97100  0.02890  0.53690  Biso   1.000  H
  H134     1.0000 0.02900  0.02890  0.46310  Biso   1.000  H
  H135     1.0000 0.47100  0.52890  0.53690  Biso   1.000  H
  H136     1.0000 0.52900  0.52890  0.46310  Biso   1.000  H
  H137     1.0000 0.92890  0.84300  0.55080  Biso   1.000  H
  H138     1.0000 0.07110  0.84300  0.44920  Biso   1.000  H
  H139     1.0000 0.42890  0.34300  0.55080  Biso   1.000  H
  H140     1.0000 0.57110  0.34300  0.44920  Biso   1.000  H
  C109     1.0000 0.04120  0.87620  0.58280  Biso   1.000  C
  C110     1.0000 0.95880  0.87620  0.41720  Biso   1.000  C
  C111     1.0000 0.54120  0.37620  0.58280  Biso   1.000  C
  C112     1.0000 0.45880  0.37620  0.41720  Biso   1.000  C
  H141     1.0000 0.03170  0.82740  0.61140  Biso   1.000  H
  H142     1.0000 0.96830  0.82740  0.38860  Biso   1.000  H
  H143     1.0000 0.53170  0.32740  0.61140  Biso   1.000  H
  H144     1.0000 0.46830  0.32740  0.38860  Biso   1.000  H
  C113     1.0000 0.07030  0.70620  0.55680  Biso   1.000  C
  C114     1.0000 0.92970  0.70620  0.44320  Biso   1.000  C
  C115     1.0000 0.57030  0.20620  0.55680  Biso   1.000  C
  C116     1.0000 0.42970  0.20620  0.44320  Biso   1.000  C
  H145     1.0000 0.08820  0.75210  0.53030  Biso   1.000  H
  H146     1.0000 0.91180  0.75210  0.46970  Biso   1.000  H
  H147     1.0000 0.58820  0.25210  0.53030  Biso   1.000  H
  H148     1.0000 0.41180  0.25210  0.46970  Biso   1.000  H
  H149     1.0000 0.02720  0.61800  0.55030  Biso   1.000  H
  H150     1.0000 0.97280  0.61800  0.44970  Biso   1.000  H
  H151     1.0000 0.52720  0.11800  0.55030  Biso   1.000  H
  H152     1.0000 0.47280  0.11800  0.44970  Biso   1.000  H
  H153     1.0000 0.11350  0.64310  0.57360  Biso   1.000  H
  H154     1.0000 0.88650  0.64310  0.42640  Biso   1.000  H
  H155     1.0000 0.61350  0.14310  0.57360  Biso   1.000  H
  H156     1.0000 0.38650  0.14310  0.42640  Biso   1.000  H
  C117     1.0000 0.10150  0.02600  0.58970  Biso   1.000  C
  C118     1.0000 0.89850  0.02600  0.41030  Biso   1.000  C
  C119     1.0000 0.60150  0.52600  0.58970  Biso   1.000  C
  C120     1.0000 0.39850  0.52600  0.41030  Biso   1.000  C
  H157     1.0000 0.09130  0.12280  0.56790  Biso   1.000  H
  H158     1.0000 0.90870  0.12280  0.43210  Biso   1.000  H
  H159     1.0000 0.59130  0.62280  0.56790  Biso   1.000  H
  H160     1.0000 0.40870  0.62280  0.43210  Biso   1.000  H
  H161     1.0000 0.15350  0.97280  0.58780  Biso   1.000  H
  H162     1.0000 0.84650  0.97280  0.41220  Biso   1.000  H
  H163     1.0000 0.65350  0.47280  0.58780  Biso   1.000  H
  H164     1.0000 0.34650  0.47280  0.41220  Biso   1.000  H
  H165     1.0000 0.09930  0.08180  0.61780  Biso   1.000  H
  H166     1.0000 0.90070  0.08180  0.38220  Biso   1.000  H
  H167     1.0000 0.59930  0.58180  0.61780  Biso   1.000  H
  H168     1.0000 0.40070  0.58180  0.38220  Biso   1.000  H
