data_image0
_cell_length_a       12.206
_cell_length_b       20.172
_cell_length_c       10.559
_cell_angle_alpha    90
_cell_angle_beta     97.26
_cell_angle_gamma    90

_symmetry_space_group_name_H-M    "P 1"
_symmetry_int_tables_number       1

loop_
  _symmetry_equiv_pos_as_xyz
  'x, y, z'

loop_
  _atom_site_label
  _atom_site_occupancy
  _atom_site_fract_x
  _atom_site_fract_y
  _atom_site_fract_z
  _atom_site_thermal_displace_type
  _atom_site_B_iso_or_equiv
  _atom_site_type_symbol
  Cl1      1.0000 0.99810  0.12500  0.40950  Biso   1.000  Cl
  Cl2      1.0000 0.49810  0.62500  0.40950  Biso   1.000  Cl
  Cl3      1.0000 0.00190  0.12500  0.09050  Biso   1.000  Cl
  Cl4      1.0000 0.50190  0.62500  0.09050  Biso   1.000  Cl
  Cl5      1.0000 0.00190  0.87500  0.59050  Biso   1.000  Cl
  Cl6      1.0000 0.50190  0.37500  0.59050  Biso   1.000  Cl
  Cl7      1.0000 0.99810  0.87500  0.90950  Biso   1.000  Cl
  Cl8      1.0000 0.49810  0.37500  0.90950  Biso   1.000  Cl
  Cu1      1.0000 0.00000  0.19460  0.25000  Biso   1.000  Cu
  Cu2      1.0000 0.50000  0.69460  0.25000  Biso   1.000  Cu
  Cu3      1.0000 0.00000  0.80540  0.75000  Biso   1.000  Cu
  Cu4      1.0000 0.50000  0.30540  0.75000  Biso   1.000  Cu
  C1       1.0000 0.19560  0.26440  0.96870  Biso   1.000  C
  C2       1.0000 0.69560  0.76440  0.96870  Biso   1.000  C
  C3       1.0000 0.80440  0.26440  0.53130  Biso   1.000  C
  C4       1.0000 0.30440  0.76440  0.53130  Biso   1.000  C
  C5       1.0000 0.80440  0.73560  0.03130  Biso   1.000  C
  C6       1.0000 0.30440  0.23560  0.03130  Biso   1.000  C
  C7       1.0000 0.19560  0.73560  0.46870  Biso   1.000  C
  C8       1.0000 0.69560  0.23560  0.46870  Biso   1.000  C
  C9       1.0000 0.20500  0.37410  0.14830  Biso   1.000  C
  C10      1.0000 0.70500  0.87410  0.14830  Biso   1.000  C
  C11      1.0000 0.79500  0.37410  0.35170  Biso   1.000  C
  C12      1.0000 0.29500  0.87410  0.35170  Biso   1.000  C
  C13      1.0000 0.79500  0.62590  0.85170  Biso   1.000  C
  C14      1.0000 0.29500  0.12590  0.85170  Biso   1.000  C
  C15      1.0000 0.20500  0.62590  0.64830  Biso   1.000  C
  C16      1.0000 0.70500  0.12590  0.64830  Biso   1.000  C
  C17      1.0000 0.20550  0.38800  0.27730  Biso   1.000  C
  C18      1.0000 0.70550  0.88800  0.27730  Biso   1.000  C
  C19      1.0000 0.79450  0.38800  0.22270  Biso   1.000  C
  C20      1.0000 0.29450  0.88800  0.22270  Biso   1.000  C
  C21      1.0000 0.79450  0.61200  0.72270  Biso   1.000  C
  C22      1.0000 0.29450  0.11200  0.72270  Biso   1.000  C
  C23      1.0000 0.20550  0.61200  0.77730  Biso   1.000  C
  C24      1.0000 0.70550  0.11200  0.77730  Biso   1.000  C
  C25      1.0000 0.27430  0.43690  0.33430  Biso   1.000  C
  C26      1.0000 0.77430  0.93690  0.33430  Biso   1.000  C
  C27      1.0000 0.72570  0.43690  0.16570  Biso   1.000  C
  C28      1.0000 0.22570  0.93690  0.16570  Biso   1.000  C
  C29      1.0000 0.72570  0.56310  0.66570  Biso   1.000  C
  C30      1.0000 0.22570  0.06310  0.66570  Biso   1.000  C
  C31      1.0000 0.27430  0.56310  0.83430  Biso   1.000  C
  C32      1.0000 0.77430  0.06310  0.83430  Biso   1.000  C
  C33      1.0000 0.34350  0.47140  0.26370  Biso   1.000  C
  C34      1.0000 0.84350  0.97140  0.26370  Biso   1.000  C
  C35      1.0000 0.65650  0.47140  0.23630  Biso   1.000  C
  C36      1.0000 0.15650  0.97140  0.23630  Biso   1.000  C
  C37      1.0000 0.65650  0.52860  0.73630  Biso   1.000  C
  C38      1.0000 0.15650  0.02860  0.73630  Biso   1.000  C
  C39      1.0000 0.34350  0.52860  0.76370  Biso   1.000  C
  C40      1.0000 0.84350  0.02860  0.76370  Biso   1.000  C
  C41      1.0000 0.34250  0.45820  0.13680  Biso   1.000  C
  C42      1.0000 0.84250  0.95820  0.13680  Biso   1.000  C
  C43      1.0000 0.65750  0.45820  0.36320  Biso   1.000  C
  C44      1.0000 0.15750  0.95820  0.36320  Biso   1.000  C
  C45      1.0000 0.65750  0.54180  0.86320  Biso   1.000  C
  C46      1.0000 0.15750  0.04180  0.86320  Biso   1.000  C
  C47      1.0000 0.34250  0.54180  0.63680  Biso   1.000  C
  C48      1.0000 0.84250  0.04180  0.63680  Biso   1.000  C
  C49      1.0000 0.27430  0.40980  0.07840  Biso   1.000  C
  C50      1.0000 0.77430  0.90980  0.07840  Biso   1.000  C
  C51      1.0000 0.72570  0.40980  0.42160  Biso   1.000  C
  C52      1.0000 0.22570  0.90980  0.42160  Biso   1.000  C
  C53      1.0000 0.72570  0.59020  0.92160  Biso   1.000  C
  C54      1.0000 0.22570  0.09020  0.92160  Biso   1.000  C
  C55      1.0000 0.27430  0.59020  0.57840  Biso   1.000  C
  C56      1.0000 0.77430  0.09020  0.57840  Biso   1.000  C
  C57      1.0000 0.99790  0.33750  0.98700  Biso   1.000  C
  C58      1.0000 0.49790  0.83750  0.98700  Biso   1.000  C
  C59      1.0000 0.00210  0.33750  0.51300  Biso   1.000  C
  C60      1.0000 0.50210  0.83750  0.51300  Biso   1.000  C
  C61      1.0000 0.00210  0.66250  0.01300  Biso   1.000  C
  C62      1.0000 0.50210  0.16250  0.01300  Biso   1.000  C
  C63      1.0000 0.99790  0.66250  0.48700  Biso   1.000  C
  C64      1.0000 0.49790  0.16250  0.48700  Biso   1.000  C
  C65      1.0000 0.98670  0.40270  0.94720  Biso   1.000  C
  C66      1.0000 0.48670  0.90270  0.94720  Biso   1.000  C
  C67      1.0000 0.01330  0.40270  0.55280  Biso   1.000  C
  C68      1.0000 0.51330  0.90270  0.55280  Biso   1.000  C
  C69      1.0000 0.01330  0.59730  0.05280  Biso   1.000  C
  C70      1.0000 0.51330  0.09730  0.05280  Biso   1.000  C
  C71      1.0000 0.98670  0.59730  0.44720  Biso   1.000  C
  C72      1.0000 0.48670  0.09730  0.44720  Biso   1.000  C
  C73      1.0000 0.89040  0.42310  0.87360  Biso   1.000  C
  C74      1.0000 0.39040  0.92310  0.87360  Biso   1.000  C
  C75      1.0000 0.10960  0.42310  0.62640  Biso   1.000  C
  C76      1.0000 0.60960  0.92310  0.62640  Biso   1.000  C
  C77      1.0000 0.10960  0.57690  0.12640  Biso   1.000  C
  C78      1.0000 0.60960  0.07690  0.12640  Biso   1.000  C
  C79      1.0000 0.89040  0.57690  0.37360  Biso   1.000  C
  C80      1.0000 0.39040  0.07690  0.37360  Biso   1.000  C
  C81      1.0000 0.80610  0.37870  0.84030  Biso   1.000  C
  C82      1.0000 0.30610  0.87870  0.84030  Biso   1.000  C
  C83      1.0000 0.19390  0.37870  0.65970  Biso   1.000  C
  C84      1.0000 0.69390  0.87870  0.65970  Biso   1.000  C
  C85      1.0000 0.19390  0.62130  0.15970  Biso   1.000  C
  C86      1.0000 0.69390  0.12130  0.15970  Biso   1.000  C
  C87      1.0000 0.80610  0.62130  0.34030  Biso   1.000  C
  C88      1.0000 0.30610  0.12130  0.34030  Biso   1.000  C
  C89      1.0000 0.81710  0.31400  0.87870  Biso   1.000  C
  C90      1.0000 0.31710  0.81400  0.87870  Biso   1.000  C
  C91      1.0000 0.18290  0.31400  0.62130  Biso   1.000  C
  C92      1.0000 0.68290  0.81400  0.62130  Biso   1.000  C
  C93      1.0000 0.18290  0.68600  0.12130  Biso   1.000  C
  C94      1.0000 0.68290  0.18600  0.12130  Biso   1.000  C
  C95      1.0000 0.81710  0.68600  0.37870  Biso   1.000  C
  C96      1.0000 0.31710  0.18600  0.37870  Biso   1.000  C
  C97      1.0000 0.91400  0.29290  0.95190  Biso   1.000  C
  C98      1.0000 0.41400  0.79290  0.95190  Biso   1.000  C
  C99      1.0000 0.08600  0.29290  0.54810  Biso   1.000  C
  C100     1.0000 0.58600  0.79290  0.54810  Biso   1.000  C
  C101     1.0000 0.08600  0.70710  0.04810  Biso   1.000  C
  C102     1.0000 0.58600  0.20710  0.04810  Biso   1.000  C
  C103     1.0000 0.91400  0.70710  0.45190  Biso   1.000  C
  C104     1.0000 0.41400  0.20710  0.45190  Biso   1.000  C
  H1       1.0000 0.20800  0.29800  0.90100  Biso   1.000  H
  H2       1.0000 0.70800  0.79800  0.90100  Biso   1.000  H
  H3       1.0000 0.79200  0.29800  0.59900  Biso   1.000  H
  H4       1.0000 0.29200  0.79800  0.59900  Biso   1.000  H
  H5       1.0000 0.79200  0.70200  0.09900  Biso   1.000  H
  H6       1.0000 0.29200  0.20200  0.09900  Biso   1.000  H
  H7       1.0000 0.20800  0.70200  0.40100  Biso   1.000  H
  H8       1.0000 0.70800  0.20200  0.40100  Biso   1.000  H
  H9       1.0000 0.74100  0.39200  0.78900  Biso   1.000  H
  H10      1.0000 0.24100  0.89200  0.78900  Biso   1.000  H
  H11      1.0000 0.25900  0.39200  0.71100  Biso   1.000  H
  H12      1.0000 0.75900  0.89200  0.71100  Biso   1.000  H
  H13      1.0000 0.25900  0.60800  0.21100  Biso   1.000  H
  H14      1.0000 0.75900  0.10800  0.21100  Biso   1.000  H
  H15      1.0000 0.74100  0.60800  0.28900  Biso   1.000  H
  H16      1.0000 0.24100  0.10800  0.28900  Biso   1.000  H
  H17      1.0000 0.75700  0.28500  0.85200  Biso   1.000  H
  H18      1.0000 0.25700  0.78500  0.85200  Biso   1.000  H
  H19      1.0000 0.24300  0.28500  0.64800  Biso   1.000  H
  H20      1.0000 0.74300  0.78500  0.64800  Biso   1.000  H
  H21      1.0000 0.24300  0.71500  0.14800  Biso   1.000  H
  H22      1.0000 0.74300  0.21500  0.14800  Biso   1.000  H
  H23      1.0000 0.75700  0.71500  0.35200  Biso   1.000  H
  H24      1.0000 0.25700  0.21500  0.35200  Biso   1.000  H
  H25      1.0000 0.91900  0.24600  0.97600  Biso   1.000  H
  H26      1.0000 0.41900  0.74600  0.97600  Biso   1.000  H
  H27      1.0000 0.08100  0.24600  0.52400  Biso   1.000  H
  H28      1.0000 0.58100  0.74600  0.52400  Biso   1.000  H
  H29      1.0000 0.08100  0.75400  0.02400  Biso   1.000  H
  H30      1.0000 0.58100  0.25400  0.02400  Biso   1.000  H
  H31      1.0000 0.91900  0.75400  0.47600  Biso   1.000  H
  H32      1.0000 0.41900  0.25400  0.47600  Biso   1.000  H
  H33      1.0000 0.14800  0.23300  0.93100  Biso   1.000  H
  H34      1.0000 0.64800  0.73300  0.93100  Biso   1.000  H
  H35      1.0000 0.85200  0.23300  0.56900  Biso   1.000  H
  H36      1.0000 0.35200  0.73300  0.56900  Biso   1.000  H
  H37      1.0000 0.85200  0.76700  0.06900  Biso   1.000  H
  H38      1.0000 0.35200  0.26700  0.06900  Biso   1.000  H
  H39      1.0000 0.14800  0.76700  0.43100  Biso   1.000  H
  H40      1.0000 0.64800  0.26700  0.43100  Biso   1.000  H
  H41      1.0000 0.15900  0.36200  0.32700  Biso   1.000  H
  H42      1.0000 0.65900  0.86200  0.32700  Biso   1.000  H
  H43      1.0000 0.84100  0.36200  0.17300  Biso   1.000  H
  H44      1.0000 0.34100  0.86200  0.17300  Biso   1.000  H
  H45      1.0000 0.84100  0.63800  0.67300  Biso   1.000  H
  H46      1.0000 0.34100  0.13800  0.67300  Biso   1.000  H
  H47      1.0000 0.15900  0.63800  0.82700  Biso   1.000  H
  H48      1.0000 0.65900  0.13800  0.82700  Biso   1.000  H
  H49      1.0000 0.27300  0.44500  0.42300  Biso   1.000  H
  H50      1.0000 0.77300  0.94500  0.42300  Biso   1.000  H
  H51      1.0000 0.72700  0.44500  0.07700  Biso   1.000  H
  H52      1.0000 0.22700  0.94500  0.07700  Biso   1.000  H
  H53      1.0000 0.72700  0.55500  0.57700  Biso   1.000  H
  H54      1.0000 0.22700  0.05500  0.57700  Biso   1.000  H
  H55      1.0000 0.27300  0.55500  0.92300  Biso   1.000  H
  H56      1.0000 0.77300  0.05500  0.92300  Biso   1.000  H
  H57      1.0000 0.39500  0.50500  0.30300  Biso   1.000  H
  H58      1.0000 0.89500  0.00500  0.30300  Biso   1.000  H
  H59      1.0000 0.60500  0.50500  0.19700  Biso   1.000  H
  H60      1.0000 0.10500  0.00500  0.19700  Biso   1.000  H
  H61      1.0000 0.60500  0.49500  0.69700  Biso   1.000  H
  H62      1.0000 0.10500  0.99500  0.69700  Biso   1.000  H
  H63      1.0000 0.39500  0.49500  0.80300  Biso   1.000  H
  H64      1.0000 0.89500  0.99500  0.80300  Biso   1.000  H
  H65      1.0000 0.39400  0.47800  0.09100  Biso   1.000  H
  H66      1.0000 0.89400  0.97800  0.09100  Biso   1.000  H
  H67      1.0000 0.60600  0.47800  0.40900  Biso   1.000  H
  H68      1.0000 0.10600  0.97800  0.40900  Biso   1.000  H
  H69      1.0000 0.60600  0.52200  0.90900  Biso   1.000  H
  H70      1.0000 0.10600  0.02200  0.90900  Biso   1.000  H
  H71      1.0000 0.39400  0.52200  0.59100  Biso   1.000  H
  H72      1.0000 0.89400  0.02200  0.59100  Biso   1.000  H
  H73      1.0000 0.27300  0.40200  0.98600  Biso   1.000  H
  H74      1.0000 0.77300  0.90200  0.98600  Biso   1.000  H
  H75      1.0000 0.72700  0.40200  0.51400  Biso   1.000  H
  H76      1.0000 0.22700  0.90200  0.51400  Biso   1.000  H
  H77      1.0000 0.72700  0.59800  0.01400  Biso   1.000  H
  H78      1.0000 0.22700  0.09800  0.01400  Biso   1.000  H
  H79      1.0000 0.27300  0.59800  0.48600  Biso   1.000  H
  H80      1.0000 0.77300  0.09800  0.48600  Biso   1.000  H
  H81      1.0000 0.04000  0.43300  0.97300  Biso   1.000  H
  H82      1.0000 0.54000  0.93300  0.97300  Biso   1.000  H
  H83      1.0000 0.96000  0.43300  0.52700  Biso   1.000  H
  H84      1.0000 0.46000  0.93300  0.52700  Biso   1.000  H
  H85      1.0000 0.96000  0.56700  0.02700  Biso   1.000  H
  H86      1.0000 0.46000  0.06700  0.02700  Biso   1.000  H
  H87      1.0000 0.04000  0.56700  0.47300  Biso   1.000  H
  H88      1.0000 0.54000  0.06700  0.47300  Biso   1.000  H
  H89      1.0000 0.88000  0.47000  0.85400  Biso   1.000  H
  H90      1.0000 0.38000  0.97000  0.85400  Biso   1.000  H
  H91      1.0000 0.12000  0.47000  0.64600  Biso   1.000  H
  H92      1.0000 0.62000  0.97000  0.64600  Biso   1.000  H
  H93      1.0000 0.12000  0.53000  0.14600  Biso   1.000  H
  H94      1.0000 0.62000  0.03000  0.14600  Biso   1.000  H
  H95      1.0000 0.88000  0.53000  0.35400  Biso   1.000  H
  H96      1.0000 0.38000  0.03000  0.35400  Biso   1.000  H
  O1       1.0000 0.09510  0.26240  0.18770  Biso   1.000  O
  O2       1.0000 0.59510  0.76240  0.18770  Biso   1.000  O
  O3       1.0000 0.90490  0.26240  0.31230  Biso   1.000  O
  O4       1.0000 0.40490  0.76240  0.31230  Biso   1.000  O
  O5       1.0000 0.90490  0.73760  0.81230  Biso   1.000  O
  O6       1.0000 0.40490  0.23760  0.81230  Biso   1.000  O
  O7       1.0000 0.09510  0.73760  0.68770  Biso   1.000  O
  O8       1.0000 0.59510  0.23760  0.68770  Biso   1.000  O
  P1       1.0000 0.12050  0.30680  0.08170  Biso   1.000  P
  P2       1.0000 0.62050  0.80680  0.08170  Biso   1.000  P
  P3       1.0000 0.87950  0.30680  0.41830  Biso   1.000  P
  P4       1.0000 0.37950  0.80680  0.41830  Biso   1.000  P
  P5       1.0000 0.87950  0.69320  0.91830  Biso   1.000  P
  P6       1.0000 0.37950  0.19320  0.91830  Biso   1.000  P
  P7       1.0000 0.12050  0.69320  0.58170  Biso   1.000  P
  P8       1.0000 0.62050  0.19320  0.58170  Biso   1.000  P
