data_image0
_cell_length_a       16.46
_cell_length_b       15.72
_cell_length_c       5.63
_cell_angle_alpha    90
_cell_angle_beta     92.4
_cell_angle_gamma    90

_symmetry_space_group_name_H-M    "P 1"
_symmetry_int_tables_number       1

loop_
  _symmetry_equiv_pos_as_xyz
  'x, y, z'

loop_
  _atom_site_label
  _atom_site_occupancy
  _atom_site_fract_x
  _atom_site_fract_y
  _atom_site_fract_z
  _atom_site_thermal_displace_type
  _atom_site_B_iso_or_equiv
  _atom_site_type_symbol
  Cu1      1.0000 0.99590  0.19760  0.20320  Biso   1.000  Cu
  Cu2      1.0000 0.50410  0.69760  0.29680  Biso   1.000  Cu
  Cu3      1.0000 0.00410  0.80240  0.79680  Biso   1.000  Cu
  Cu4      1.0000 0.49590  0.30240  0.70320  Biso   1.000  Cu
  C1       1.0000 0.01550  0.29110  0.68020  Biso   1.000  C
  C2       1.0000 0.48450  0.79110  0.81980  Biso   1.000  C
  C3       1.0000 0.98450  0.70890  0.31980  Biso   1.000  C
  C4       1.0000 0.51550  0.20890  0.18020  Biso   1.000  C
  C5       1.0000 0.26460  0.08430  0.17600  Biso   1.000  C
  C6       1.0000 0.23540  0.58430  0.32400  Biso   1.000  C
  C7       1.0000 0.73540  0.91570  0.82400  Biso   1.000  C
  C8       1.0000 0.76460  0.41570  0.67600  Biso   1.000  C
  C9       1.0000 0.34320  0.05710  0.14470  Biso   1.000  C
  C10      1.0000 0.15680  0.55710  0.35530  Biso   1.000  C
  C11      1.0000 0.65680  0.94290  0.85530  Biso   1.000  C
  C12      1.0000 0.84320  0.44290  0.64470  Biso   1.000  C
  C13      1.0000 0.36050  0.01230  0.94000  Biso   1.000  C
  C14      1.0000 0.13950  0.51230  0.56000  Biso   1.000  C
  C15      1.0000 0.63950  0.98770  0.06000  Biso   1.000  C
  C16      1.0000 0.86050  0.48770  0.44000  Biso   1.000  C
  C17      1.0000 0.30120  0.99450  0.77230  Biso   1.000  C
  C18      1.0000 0.19880  0.49450  0.72770  Biso   1.000  C
  C19      1.0000 0.69880  0.00550  0.22770  Biso   1.000  C
  C20      1.0000 0.80120  0.50550  0.27230  Biso   1.000  C
  C21      1.0000 0.22080  0.02050  0.80250  Biso   1.000  C
  C22      1.0000 0.27920  0.52050  0.69750  Biso   1.000  C
  C23      1.0000 0.77920  0.97950  0.19750  Biso   1.000  C
  C24      1.0000 0.72080  0.47950  0.30250  Biso   1.000  C
  C25      1.0000 0.81550  0.24640  0.22040  Biso   1.000  C
  C26      1.0000 0.68450  0.74640  0.27960  Biso   1.000  C
  C27      1.0000 0.18450  0.75360  0.77960  Biso   1.000  C
  C28      1.0000 0.31550  0.25360  0.72040  Biso   1.000  C
  C29      1.0000 0.73550  0.24510  0.13040  Biso   1.000  C
  C30      1.0000 0.76450  0.74510  0.36960  Biso   1.000  C
  C31      1.0000 0.26450  0.75490  0.86960  Biso   1.000  C
  C32      1.0000 0.23550  0.25490  0.63040  Biso   1.000  C
  C33      1.0000 0.71630  0.19880  0.93030  Biso   1.000  C
  C34      1.0000 0.78370  0.69880  0.56970  Biso   1.000  C
  C35      1.0000 0.28370  0.80120  0.06970  Biso   1.000  C
  C36      1.0000 0.21630  0.30120  0.43030  Biso   1.000  C
  C37      1.0000 0.77670  0.15400  0.82190  Biso   1.000  C
  C38      1.0000 0.72330  0.65400  0.67810  Biso   1.000  C
  C39      1.0000 0.22330  0.84600  0.17810  Biso   1.000  C
  C40      1.0000 0.27670  0.34600  0.32190  Biso   1.000  C
  C41      1.0000 0.85510  0.15650  0.91920  Biso   1.000  C
  C42      1.0000 0.64490  0.65650  0.58080  Biso   1.000  C
  C43      1.0000 0.14490  0.84350  0.08080  Biso   1.000  C
  C44      1.0000 0.35510  0.34350  0.41920  Biso   1.000  C
  C45      1.0000 0.92270  0.10960  0.82420  Biso   1.000  C
  C46      1.0000 0.57730  0.60960  0.67580  Biso   1.000  C
  C47      1.0000 0.07730  0.89040  0.17580  Biso   1.000  C
  C48      1.0000 0.42270  0.39040  0.32420  Biso   1.000  C
  C49      1.0000 0.12000  0.10090  0.04540  Biso   1.000  C
  C50      1.0000 0.38000  0.60090  0.45460  Biso   1.000  C
  C51      1.0000 0.88000  0.89910  0.95460  Biso   1.000  C
  C52      1.0000 0.62000  0.39910  0.54540  Biso   1.000  C
  C53      1.0000 0.20220  0.06740  0.00670  Biso   1.000  C
  C54      1.0000 0.29780  0.56740  0.49330  Biso   1.000  C
  C55      1.0000 0.79780  0.93260  0.99330  Biso   1.000  C
  C56      1.0000 0.70220  0.43260  0.50670  Biso   1.000  C
  H1       1.0000 0.11400  0.02000  0.68400  Biso   1.000  H
  H2       1.0000 0.38600  0.52000  0.81600  Biso   1.000  H
  H3       1.0000 0.88600  0.98000  0.31600  Biso   1.000  H
  H4       1.0000 0.61400  0.48000  0.18400  Biso   1.000  H
  H5       1.0000 0.25100  0.12000  0.33200  Biso   1.000  H
  H6       1.0000 0.24900  0.62000  0.16800  Biso   1.000  H
  H7       1.0000 0.74900  0.88000  0.66800  Biso   1.000  H
  H8       1.0000 0.75100  0.38000  0.83200  Biso   1.000  H
  H9       1.0000 0.38600  0.06800  0.26000  Biso   1.000  H
  H10      1.0000 0.11400  0.56800  0.24000  Biso   1.000  H
  H11      1.0000 0.61400  0.93200  0.74000  Biso   1.000  H
  H12      1.0000 0.88600  0.43200  0.76000  Biso   1.000  H
  H13      1.0000 0.41600  0.99100  0.91600  Biso   1.000  H
  H14      1.0000 0.08400  0.49100  0.58400  Biso   1.000  H
  H15      1.0000 0.58400  0.00900  0.08400  Biso   1.000  H
  H16      1.0000 0.91600  0.50900  0.41600  Biso   1.000  H
  H17      1.0000 0.31300  0.96400  0.62600  Biso   1.000  H
  H18      1.0000 0.18700  0.46400  0.87400  Biso   1.000  H
  H19      1.0000 0.68700  0.03600  0.37400  Biso   1.000  H
  H20      1.0000 0.81300  0.53600  0.12600  Biso   1.000  H
  H21      1.0000 0.83300  0.27900  0.36400  Biso   1.000  H
  H22      1.0000 0.66700  0.77900  0.13600  Biso   1.000  H
  H23      1.0000 0.16700  0.72100  0.63600  Biso   1.000  H
  H24      1.0000 0.33300  0.22100  0.86400  Biso   1.000  H
  H25      1.0000 0.69700  0.27500  0.21300  Biso   1.000  H
  H26      1.0000 0.80300  0.77500  0.28700  Biso   1.000  H
  H27      1.0000 0.30300  0.72500  0.78700  Biso   1.000  H
  H28      1.0000 0.19700  0.22500  0.71300  Biso   1.000  H
  H29      1.0000 0.66400  0.19800  0.87400  Biso   1.000  H
  H30      1.0000 0.83600  0.69800  0.62600  Biso   1.000  H
  H31      1.0000 0.33600  0.80200  0.12600  Biso   1.000  H
  H32      1.0000 0.16400  0.30200  0.37400  Biso   1.000  H
  H33      1.0000 0.76700  0.12300  0.68800  Biso   1.000  H
  H34      1.0000 0.73300  0.62300  0.81200  Biso   1.000  H
  H35      1.0000 0.23300  0.87700  0.31200  Biso   1.000  H
  H36      1.0000 0.26700  0.37700  0.18800  Biso   1.000  H
  H37      1.0000 0.91700  0.07200  0.70000  Biso   1.000  H
  H38      1.0000 0.58300  0.57200  0.80000  Biso   1.000  H
  H39      1.0000 0.08300  0.92800  0.30000  Biso   1.000  H
  H40      1.0000 0.41700  0.42800  0.20000  Biso   1.000  H
  N1       1.0000 0.00030  0.25920  0.49980  Biso   1.000  N
  N2       1.0000 0.49970  0.75920  0.00020  Biso   1.000  N
  N3       1.0000 0.99970  0.74080  0.50020  Biso   1.000  N
  N4       1.0000 0.50030  0.24080  0.99980  Biso   1.000  N
  N5       1.0000 0.87450  0.20320  0.11730  Biso   1.000  N
  N6       1.0000 0.62550  0.70320  0.38270  Biso   1.000  N
  N7       1.0000 0.12550  0.79680  0.88270  Biso   1.000  N
  N8       1.0000 0.37450  0.29680  0.61730  Biso   1.000  N
  N9       1.0000 0.99080  0.11880  0.94140  Biso   1.000  N
  N10      1.0000 0.50920  0.61880  0.55860  Biso   1.000  N
  N11      1.0000 0.00920  0.88120  0.05860  Biso   1.000  N
  N12      1.0000 0.49080  0.38120  0.44140  Biso   1.000  N
  N13      1.0000 0.06170  0.08000  0.88130  Biso   1.000  N
  N14      1.0000 0.43830  0.58000  0.61870  Biso   1.000  N
  N15      1.0000 0.93830  0.92000  0.11870  Biso   1.000  N
  N16      1.0000 0.56170  0.42000  0.38130  Biso   1.000  N
  O1       1.0000 0.10730  0.14830  0.22490  Biso   1.000  O
  O2       1.0000 0.39270  0.64830  0.27510  Biso   1.000  O
  O3       1.0000 0.89270  0.85170  0.77510  Biso   1.000  O
  O4       1.0000 0.60730  0.35170  0.72490  Biso   1.000  O
  O5       1.0000 0.16420  0.99870  0.63250  Biso   1.000  O
  O6       1.0000 0.33580  0.49870  0.86750  Biso   1.000  O
  O7       1.0000 0.83580  0.00130  0.36750  Biso   1.000  O
  O8       1.0000 0.66420  0.50130  0.13250  Biso   1.000  O
  S1       1.0000 0.03460  0.33470  0.93960  Biso   1.000  S
  S2       1.0000 0.46540  0.83470  0.56040  Biso   1.000  S
  S3       1.0000 0.96540  0.66530  0.06040  Biso   1.000  S
  S4       1.0000 0.53460  0.16530  0.43960  Biso   1.000  S
