data_image0
_cell_length_a       18.513
_cell_length_b       18.513
_cell_length_c       45.354
_cell_angle_alpha    90
_cell_angle_beta     90
_cell_angle_gamma    120

_symmetry_space_group_name_H-M    "P 1"
_symmetry_int_tables_number       1

loop_
  _symmetry_equiv_pos_as_xyz
  'x, y, z'

loop_
  _atom_site_label
  _atom_site_occupancy
  _atom_site_fract_x
  _atom_site_fract_y
  _atom_site_fract_z
  _atom_site_thermal_displace_type
  _atom_site_B_iso_or_equiv
  _atom_site_type_symbol
  Cu1      1.0000 0.85738  0.14262  0.14272  Biso   1.000  Cu
  Cu2      1.0000 0.85738  0.71476  0.14272  Biso   1.000  Cu
  Cu3      1.0000 0.28524  0.14262  0.14272  Biso   1.000  Cu
  Cu4      1.0000 0.14262  0.85738  0.85728  Biso   1.000  Cu
  Cu5      1.0000 0.71476  0.85738  0.85728  Biso   1.000  Cu
  Cu6      1.0000 0.14262  0.28524  0.85728  Biso   1.000  Cu
  Cu7      1.0000 0.52405  0.47595  0.47605  Biso   1.000  Cu
  Cu8      1.0000 0.52405  0.04809  0.47605  Biso   1.000  Cu
  Cu9      1.0000 0.95191  0.47595  0.47605  Biso   1.000  Cu
  Cu10     1.0000 0.80929  0.19071  0.19061  Biso   1.000  Cu
  Cu11     1.0000 0.38143  0.19071  0.19061  Biso   1.000  Cu
  Cu12     1.0000 0.80929  0.61857  0.19061  Biso   1.000  Cu
  Cu13     1.0000 0.19071  0.80929  0.80939  Biso   1.000  Cu
  Cu14     1.0000 0.19071  0.38143  0.80939  Biso   1.000  Cu
  Cu15     1.0000 0.61857  0.80929  0.80939  Biso   1.000  Cu
  Cu16     1.0000 0.47595  0.52405  0.52395  Biso   1.000  Cu
  Cu17     1.0000 0.04809  0.52405  0.52395  Biso   1.000  Cu
  Cu18     1.0000 0.47595  0.95191  0.52395  Biso   1.000  Cu
  O1       1.0000 0.89590  0.13250  0.09900  Biso   1.000  O
  O2       1.0000 0.86750  0.76340  0.09900  Biso   1.000  O
  O3       1.0000 0.23660  0.10410  0.09900  Biso   1.000  O
  O4       1.0000 0.13250  0.89590  0.90100  Biso   1.000  O
  O5       1.0000 0.76340  0.86750  0.90100  Biso   1.000  O
  O6       1.0000 0.10410  0.23660  0.90100  Biso   1.000  O
  O7       1.0000 0.56257  0.46583  0.43233  Biso   1.000  O
  O8       1.0000 0.53417  0.09673  0.43233  Biso   1.000  O
  O9       1.0000 0.90327  0.43743  0.43233  Biso   1.000  O
  O10      1.0000 0.79917  0.22923  0.23433  Biso   1.000  O
  O11      1.0000 0.43007  0.20083  0.23433  Biso   1.000  O
  O12      1.0000 0.77077  0.56993  0.23433  Biso   1.000  O
  O13      1.0000 0.22923  0.79917  0.76567  Biso   1.000  O
  O14      1.0000 0.20083  0.43007  0.76567  Biso   1.000  O
  O15      1.0000 0.56993  0.77077  0.76567  Biso   1.000  O
  O16      1.0000 0.46583  0.56257  0.56767  Biso   1.000  O
  O17      1.0000 0.09673  0.53417  0.56767  Biso   1.000  O
  O18      1.0000 0.43743  0.90327  0.56767  Biso   1.000  O
  O19      1.0000 0.10410  0.86750  0.90100  Biso   1.000  O
  O20      1.0000 0.13250  0.23660  0.90100  Biso   1.000  O
  O21      1.0000 0.76340  0.89590  0.90100  Biso   1.000  O
  O22      1.0000 0.86750  0.10410  0.09900  Biso   1.000  O
  O23      1.0000 0.23660  0.13250  0.09900  Biso   1.000  O
  O24      1.0000 0.89590  0.76340  0.09900  Biso   1.000  O
  O25      1.0000 0.77077  0.20083  0.23433  Biso   1.000  O
  O26      1.0000 0.79917  0.56993  0.23433  Biso   1.000  O
  O27      1.0000 0.43007  0.22923  0.23433  Biso   1.000  O
  O28      1.0000 0.53417  0.43743  0.43233  Biso   1.000  O
  O29      1.0000 0.90327  0.46583  0.43233  Biso   1.000  O
  O30      1.0000 0.56257  0.09673  0.43233  Biso   1.000  O
  O31      1.0000 0.43743  0.53417  0.56767  Biso   1.000  O
  O32      1.0000 0.46583  0.90327  0.56767  Biso   1.000  O
  O33      1.0000 0.09673  0.56257  0.56767  Biso   1.000  O
  O34      1.0000 0.20083  0.77077  0.76567  Biso   1.000  O
  O35      1.0000 0.56993  0.79917  0.76567  Biso   1.000  O
  O36      1.0000 0.22923  0.43007  0.76567  Biso   1.000  O
  O37      1.0000 0.88900  0.07510  0.10720  Biso   1.000  O
  O38      1.0000 0.92490  0.81390  0.10720  Biso   1.000  O
  O39      1.0000 0.18610  0.11100  0.10720  Biso   1.000  O
  O40      1.0000 0.07510  0.88900  0.89280  Biso   1.000  O
  O41      1.0000 0.81390  0.92490  0.89280  Biso   1.000  O
  O42      1.0000 0.11100  0.18610  0.89280  Biso   1.000  O
  O43      1.0000 0.55567  0.40843  0.44053  Biso   1.000  O
  O44      1.0000 0.59157  0.14723  0.44053  Biso   1.000  O
  O45      1.0000 0.85277  0.44433  0.44053  Biso   1.000  O
  O46      1.0000 0.74177  0.22233  0.22613  Biso   1.000  O
  O47      1.0000 0.48057  0.25823  0.22613  Biso   1.000  O
  O48      1.0000 0.77767  0.51943  0.22613  Biso   1.000  O
  O49      1.0000 0.22233  0.74177  0.77387  Biso   1.000  O
  O50      1.0000 0.25823  0.48057  0.77387  Biso   1.000  O
  O51      1.0000 0.51943  0.77767  0.77387  Biso   1.000  O
  O52      1.0000 0.40843  0.55567  0.55947  Biso   1.000  O
  O53      1.0000 0.14723  0.59157  0.55947  Biso   1.000  O
  O54      1.0000 0.44433  0.85277  0.55947  Biso   1.000  O
  O55      1.0000 0.11100  0.92490  0.89280  Biso   1.000  O
  O56      1.0000 0.07510  0.18610  0.89280  Biso   1.000  O
  O57      1.0000 0.81390  0.88900  0.89280  Biso   1.000  O
  O58      1.0000 0.92490  0.11100  0.10720  Biso   1.000  O
  O59      1.0000 0.18610  0.07510  0.10720  Biso   1.000  O
  O60      1.0000 0.88900  0.81390  0.10720  Biso   1.000  O
  O61      1.0000 0.77767  0.25823  0.22613  Biso   1.000  O
  O62      1.0000 0.74177  0.51943  0.22613  Biso   1.000  O
  O63      1.0000 0.48057  0.22233  0.22613  Biso   1.000  O
  O64      1.0000 0.59157  0.44433  0.44053  Biso   1.000  O
  O65      1.0000 0.85277  0.40843  0.44053  Biso   1.000  O
  O66      1.0000 0.55567  0.14723  0.44053  Biso   1.000  O
  O67      1.0000 0.44433  0.59157  0.55947  Biso   1.000  O
  O68      1.0000 0.40843  0.85277  0.55947  Biso   1.000  O
  O69      1.0000 0.14723  0.55567  0.55947  Biso   1.000  O
  O70      1.0000 0.25823  0.77767  0.77387  Biso   1.000  O
  O71      1.0000 0.51943  0.74177  0.77387  Biso   1.000  O
  O72      1.0000 0.22233  0.48057  0.77387  Biso   1.000  O
  O73      1.0000 0.74300  0.10480  0.12907  Biso   1.000  O
  O74      1.0000 0.89520  0.63820  0.12907  Biso   1.000  O
  O75      1.0000 0.36180  0.25700  0.12907  Biso   1.000  O
  O76      1.0000 0.10480  0.74300  0.87093  Biso   1.000  O
  O77      1.0000 0.63820  0.89520  0.87093  Biso   1.000  O
  O78      1.0000 0.25700  0.36180  0.87093  Biso   1.000  O
  O79      1.0000 0.40967  0.43813  0.46240  Biso   1.000  O
  O80      1.0000 0.56187  0.97153  0.46240  Biso   1.000  O
  O81      1.0000 0.02847  0.59033  0.46240  Biso   1.000  O
  O82      1.0000 0.77147  0.07633  0.20426  Biso   1.000  O
  O83      1.0000 0.30487  0.22853  0.20426  Biso   1.000  O
  O84      1.0000 0.92367  0.69513  0.20426  Biso   1.000  O
  O85      1.0000 0.07633  0.77147  0.79574  Biso   1.000  O
  O86      1.0000 0.22853  0.30487  0.79574  Biso   1.000  O
  O87      1.0000 0.69513  0.92367  0.79574  Biso   1.000  O
  O88      1.0000 0.43813  0.40967  0.53760  Biso   1.000  O
  O89      1.0000 0.97153  0.56187  0.53760  Biso   1.000  O
  O90      1.0000 0.59033  0.02847  0.53760  Biso   1.000  O
  O91      1.0000 0.25700  0.89520  0.87093  Biso   1.000  O
  O92      1.0000 0.10480  0.36180  0.87093  Biso   1.000  O
  O93      1.0000 0.63820  0.74300  0.87093  Biso   1.000  O
  O94      1.0000 0.89520  0.25700  0.12907  Biso   1.000  O
  O95      1.0000 0.36180  0.10480  0.12907  Biso   1.000  O
  O96      1.0000 0.74300  0.63820  0.12907  Biso   1.000  O
  O97      1.0000 0.92367  0.22853  0.20426  Biso   1.000  O
  O98      1.0000 0.77147  0.69513  0.20426  Biso   1.000  O
  O99      1.0000 0.30487  0.07633  0.20426  Biso   1.000  O
  O100     1.0000 0.56187  0.59033  0.46240  Biso   1.000  O
  O101     1.0000 0.02847  0.43813  0.46240  Biso   1.000  O
  O102     1.0000 0.40967  0.97153  0.46240  Biso   1.000  O
  O103     1.0000 0.59033  0.56187  0.53760  Biso   1.000  O
  O104     1.0000 0.43813  0.02847  0.53760  Biso   1.000  O
  O105     1.0000 0.97153  0.40967  0.53760  Biso   1.000  O
  O106     1.0000 0.22853  0.92367  0.79574  Biso   1.000  O
  O107     1.0000 0.69513  0.77147  0.79574  Biso   1.000  O
  O108     1.0000 0.07633  0.30487  0.79574  Biso   1.000  O
  O109     1.0000 0.70220  0.14530  0.16960  Biso   1.000  O
  O110     1.0000 0.85470  0.55690  0.16960  Biso   1.000  O
  O111     1.0000 0.44310  0.29780  0.16960  Biso   1.000  O
  O112     1.0000 0.14530  0.70220  0.83040  Biso   1.000  O
  O113     1.0000 0.55690  0.85470  0.83040  Biso   1.000  O
  O114     1.0000 0.29780  0.44310  0.83040  Biso   1.000  O
  O115     1.0000 0.36887  0.47863  0.50293  Biso   1.000  O
  O116     1.0000 0.52137  0.89023  0.50293  Biso   1.000  O
  O117     1.0000 0.10977  0.63113  0.50293  Biso   1.000  O
  O118     1.0000 0.81197  0.03553  0.16373  Biso   1.000  O
  O119     1.0000 0.22357  0.18803  0.16373  Biso   1.000  O
  O120     1.0000 0.96447  0.77643  0.16373  Biso   1.000  O
  O121     1.0000 0.03553  0.81197  0.83627  Biso   1.000  O
  O122     1.0000 0.18803  0.22357  0.83627  Biso   1.000  O
  O123     1.0000 0.77643  0.96447  0.83627  Biso   1.000  O
  O124     1.0000 0.47863  0.36887  0.49707  Biso   1.000  O
  O125     1.0000 0.89023  0.52137  0.49707  Biso   1.000  O
  O126     1.0000 0.63113  0.10977  0.49707  Biso   1.000  O
  O127     1.0000 0.29780  0.85470  0.83040  Biso   1.000  O
  O128     1.0000 0.14530  0.44310  0.83040  Biso   1.000  O
  O129     1.0000 0.55690  0.70220  0.83040  Biso   1.000  O
  O130     1.0000 0.85470  0.29780  0.16960  Biso   1.000  O
  O131     1.0000 0.44310  0.14530  0.16960  Biso   1.000  O
  O132     1.0000 0.70220  0.55690  0.16960  Biso   1.000  O
  O133     1.0000 0.96447  0.18803  0.16373  Biso   1.000  O
  O134     1.0000 0.81197  0.77643  0.16373  Biso   1.000  O
  O135     1.0000 0.22357  0.03553  0.16373  Biso   1.000  O
  O136     1.0000 0.52137  0.63113  0.50293  Biso   1.000  O
  O137     1.0000 0.10977  0.47863  0.50293  Biso   1.000  O
  O138     1.0000 0.36887  0.89023  0.50293  Biso   1.000  O
  O139     1.0000 0.63113  0.52137  0.49707  Biso   1.000  O
  O140     1.0000 0.47863  0.10977  0.49707  Biso   1.000  O
  O141     1.0000 0.89023  0.36887  0.49707  Biso   1.000  O
  O142     1.0000 0.18803  0.96447  0.83627  Biso   1.000  O
  O143     1.0000 0.77643  0.81197  0.83627  Biso   1.000  O
  O144     1.0000 0.03553  0.22357  0.83627  Biso   1.000  O
  C1       1.0000 0.69890  0.12290  0.14179  Biso   1.000  C
  C2       1.0000 0.87710  0.57600  0.14179  Biso   1.000  C
  C3       1.0000 0.42400  0.30110  0.14179  Biso   1.000  C
  C4       1.0000 0.12290  0.69890  0.85821  Biso   1.000  C
  C5       1.0000 0.57600  0.87710  0.85821  Biso   1.000  C
  C6       1.0000 0.30110  0.42400  0.85821  Biso   1.000  C
  C7       1.0000 0.36557  0.45623  0.47512  Biso   1.000  C
  C8       1.0000 0.54377  0.90933  0.47512  Biso   1.000  C
  C9       1.0000 0.09067  0.63443  0.47512  Biso   1.000  C
  C10      1.0000 0.78957  0.03223  0.19154  Biso   1.000  C
  C11      1.0000 0.24267  0.21043  0.19154  Biso   1.000  C
  C12      1.0000 0.96777  0.75733  0.19154  Biso   1.000  C
  C13      1.0000 0.03223  0.78957  0.80846  Biso   1.000  C
  C14      1.0000 0.21043  0.24267  0.80846  Biso   1.000  C
  C15      1.0000 0.75733  0.96777  0.80846  Biso   1.000  C
  C16      1.0000 0.45623  0.36557  0.52488  Biso   1.000  C
  C17      1.0000 0.90933  0.54377  0.52488  Biso   1.000  C
  C18      1.0000 0.63443  0.09067  0.52488  Biso   1.000  C
  C19      1.0000 0.30110  0.87710  0.85821  Biso   1.000  C
  C20      1.0000 0.12290  0.42400  0.85821  Biso   1.000  C
  C21      1.0000 0.57600  0.69890  0.85821  Biso   1.000  C
  C22      1.0000 0.87710  0.30110  0.14179  Biso   1.000  C
  C23      1.0000 0.42400  0.12290  0.14179  Biso   1.000  C
  C24      1.0000 0.69890  0.57600  0.14179  Biso   1.000  C
  C25      1.0000 0.96777  0.21043  0.19154  Biso   1.000  C
  C26      1.0000 0.78957  0.75733  0.19154  Biso   1.000  C
  C27      1.0000 0.24267  0.03223  0.19154  Biso   1.000  C
  C28      1.0000 0.54377  0.63443  0.47512  Biso   1.000  C
  C29      1.0000 0.09067  0.45623  0.47512  Biso   1.000  C
  C30      1.0000 0.36557  0.90933  0.47512  Biso   1.000  C
  C31      1.0000 0.63443  0.54377  0.52488  Biso   1.000  C
  C32      1.0000 0.45623  0.09067  0.52488  Biso   1.000  C
  C33      1.0000 0.90933  0.36557  0.52488  Biso   1.000  C
  C34      1.0000 0.21043  0.96777  0.80846  Biso   1.000  C
  C35      1.0000 0.75733  0.78957  0.80846  Biso   1.000  C
  C36      1.0000 0.03223  0.24267  0.80846  Biso   1.000  C
  C37      1.0000 0.55600  0.11190  0.14240  Biso   1.000  C
  C38      1.0000 0.88810  0.44410  0.14240  Biso   1.000  C
  C39      1.0000 0.55590  0.44400  0.14240  Biso   1.000  C
  C40      1.0000 0.11190  0.55600  0.85760  Biso   1.000  C
  C41      1.0000 0.44410  0.88810  0.85760  Biso   1.000  C
  C42      1.0000 0.44400  0.55590  0.85760  Biso   1.000  C
  C43      1.0000 0.22267  0.44523  0.47573  Biso   1.000  C
  C44      1.0000 0.55477  0.77743  0.47573  Biso   1.000  C
  C45      1.0000 0.22257  0.77733  0.47573  Biso   1.000  C
  C46      1.0000 0.77857  0.88933  0.19093  Biso   1.000  C
  C47      1.0000 0.11077  0.22143  0.19093  Biso   1.000  C
  C48      1.0000 0.11067  0.88923  0.19093  Biso   1.000  C
  C49      1.0000 0.88933  0.77857  0.80907  Biso   1.000  C
  C50      1.0000 0.22143  0.11077  0.80907  Biso   1.000  C
  C51      1.0000 0.88923  0.11067  0.80907  Biso   1.000  C
  C52      1.0000 0.44523  0.22267  0.52427  Biso   1.000  C
  C53      1.0000 0.77743  0.55477  0.52427  Biso   1.000  C
  C54      1.0000 0.77733  0.22257  0.52427  Biso   1.000  C
  H1       1.0000 0.56490  0.12980  0.16190  Biso   1.000  H
  H2       1.0000 0.87020  0.43510  0.16190  Biso   1.000  H
  H3       1.0000 0.56490  0.43510  0.16190  Biso   1.000  H
  H4       1.0000 0.12980  0.56490  0.83810  Biso   1.000  H
  H5       1.0000 0.43510  0.87020  0.83810  Biso   1.000  H
  H6       1.0000 0.43510  0.56490  0.83810  Biso   1.000  H
  H7       1.0000 0.23157  0.46313  0.49523  Biso   1.000  H
  H8       1.0000 0.53687  0.76843  0.49523  Biso   1.000  H
  H9       1.0000 0.23157  0.76843  0.49523  Biso   1.000  H
  H10      1.0000 0.79647  0.89823  0.17143  Biso   1.000  H
  H11      1.0000 0.10177  0.20353  0.17143  Biso   1.000  H
  H12      1.0000 0.10177  0.89823  0.17143  Biso   1.000  H
  H13      1.0000 0.89823  0.79647  0.82857  Biso   1.000  H
  H14      1.0000 0.20353  0.10177  0.82857  Biso   1.000  H
  H15      1.0000 0.89823  0.10177  0.82857  Biso   1.000  H
  H16      1.0000 0.46313  0.23157  0.50477  Biso   1.000  H
  H17      1.0000 0.76843  0.53687  0.50477  Biso   1.000  H
  H18      1.0000 0.76843  0.23157  0.50477  Biso   1.000  H
  C55      1.0000 0.61690  0.10000  0.12938  Biso   1.000  C
  C56      1.0000 0.90000  0.51690  0.12938  Biso   1.000  C
  C57      1.0000 0.48310  0.38310  0.12938  Biso   1.000  C
  C58      1.0000 0.10000  0.61690  0.87062  Biso   1.000  C
  C59      1.0000 0.51690  0.90000  0.87062  Biso   1.000  C
  C60      1.0000 0.38310  0.48310  0.87062  Biso   1.000  C
  C61      1.0000 0.28357  0.43333  0.46271  Biso   1.000  C
  C62      1.0000 0.56667  0.85023  0.46271  Biso   1.000  C
  C63      1.0000 0.14977  0.71643  0.46271  Biso   1.000  C
  C64      1.0000 0.76667  0.95023  0.20395  Biso   1.000  C
  C65      1.0000 0.18357  0.23333  0.20395  Biso   1.000  C
  C66      1.0000 0.04977  0.81643  0.20395  Biso   1.000  C
  C67      1.0000 0.95023  0.76667  0.79605  Biso   1.000  C
  C68      1.0000 0.23333  0.18357  0.79605  Biso   1.000  C
  C69      1.0000 0.81643  0.04977  0.79605  Biso   1.000  C
  C70      1.0000 0.43333  0.28357  0.53729  Biso   1.000  C
  C71      1.0000 0.85023  0.56667  0.53729  Biso   1.000  C
  C72      1.0000 0.71643  0.14977  0.53729  Biso   1.000  C
  C73      1.0000 0.38310  0.90000  0.87062  Biso   1.000  C
  C74      1.0000 0.10000  0.48310  0.87062  Biso   1.000  C
  C75      1.0000 0.51690  0.61690  0.87062  Biso   1.000  C
  C76      1.0000 0.90000  0.38310  0.12938  Biso   1.000  C
  C77      1.0000 0.48310  0.10000  0.12938  Biso   1.000  C
  C78      1.0000 0.61690  0.51690  0.12938  Biso   1.000  C
  C79      1.0000 0.04977  0.23333  0.20395  Biso   1.000  C
  C80      1.0000 0.76667  0.81643  0.20395  Biso   1.000  C
  C81      1.0000 0.18357  0.95023  0.20395  Biso   1.000  C
  C82      1.0000 0.56667  0.71643  0.46271  Biso   1.000  C
  C83      1.0000 0.14977  0.43333  0.46271  Biso   1.000  C
  C84      1.0000 0.28357  0.85023  0.46271  Biso   1.000  C
  C85      1.0000 0.71643  0.56667  0.53729  Biso   1.000  C
  C86      1.0000 0.43333  0.14977  0.53729  Biso   1.000  C
  C87      1.0000 0.85023  0.28357  0.53729  Biso   1.000  C
  C88      1.0000 0.23333  0.04977  0.79605  Biso   1.000  C
  C89      1.0000 0.81643  0.76667  0.79605  Biso   1.000  C
  C90      1.0000 0.95023  0.18357  0.79605  Biso   1.000  C
  C91      1.0000 0.59920  0.06840  0.10038  Biso   1.000  C
  C92      1.0000 0.93160  0.53080  0.10038  Biso   1.000  C
  C93      1.0000 0.46920  0.40080  0.10038  Biso   1.000  C
  C94      1.0000 0.06840  0.59920  0.89962  Biso   1.000  C
  C95      1.0000 0.53080  0.93160  0.89962  Biso   1.000  C
  C96      1.0000 0.40080  0.46920  0.89962  Biso   1.000  C
  C97      1.0000 0.26587  0.40173  0.43371  Biso   1.000  C
  C98      1.0000 0.59827  0.86413  0.43371  Biso   1.000  C
  C99      1.0000 0.13587  0.73413  0.43371  Biso   1.000  C
  C100     1.0000 0.73507  0.93253  0.23295  Biso   1.000  C
  C101     1.0000 0.19747  0.26493  0.23295  Biso   1.000  C
  C102     1.0000 0.06747  0.80253  0.23295  Biso   1.000  C
  C103     1.0000 0.93253  0.73507  0.76705  Biso   1.000  C
  C104     1.0000 0.26493  0.19747  0.76705  Biso   1.000  C
  C105     1.0000 0.80253  0.06747  0.76705  Biso   1.000  C
  C106     1.0000 0.40173  0.26587  0.56629  Biso   1.000  C
  C107     1.0000 0.86413  0.59827  0.56629  Biso   1.000  C
  C108     1.0000 0.73413  0.13587  0.56629  Biso   1.000  C
  C109     1.0000 0.40080  0.93160  0.89962  Biso   1.000  C
  C110     1.0000 0.06840  0.46920  0.89962  Biso   1.000  C
  C111     1.0000 0.53080  0.59920  0.89962  Biso   1.000  C
  C112     1.0000 0.93160  0.40080  0.10038  Biso   1.000  C
  C113     1.0000 0.46920  0.06840  0.10038  Biso   1.000  C
  C114     1.0000 0.59920  0.53080  0.10038  Biso   1.000  C
  C115     1.0000 0.06747  0.26493  0.23295  Biso   1.000  C
  C116     1.0000 0.73507  0.80253  0.23295  Biso   1.000  C
  C117     1.0000 0.19747  0.93253  0.23295  Biso   1.000  C
  C118     1.0000 0.59827  0.73413  0.43371  Biso   1.000  C
  C119     1.0000 0.13587  0.40173  0.43371  Biso   1.000  C
  C120     1.0000 0.26587  0.86413  0.43371  Biso   1.000  C
  C121     1.0000 0.73413  0.59827  0.56629  Biso   1.000  C
  C122     1.0000 0.40173  0.13587  0.56629  Biso   1.000  C
  C123     1.0000 0.86413  0.26587  0.56629  Biso   1.000  C
  C124     1.0000 0.26493  0.06747  0.76705  Biso   1.000  C
  C125     1.0000 0.80253  0.73507  0.76705  Biso   1.000  C
  C126     1.0000 0.93253  0.19747  0.76705  Biso   1.000  C
  H19      1.0000 0.63730  0.05800  0.09060  Biso   1.000  H
  H20      1.0000 0.94200  0.57930  0.09060  Biso   1.000  H
  H21      1.0000 0.42070  0.36270  0.09060  Biso   1.000  H
  H22      1.0000 0.05800  0.63730  0.90940  Biso   1.000  H
  H23      1.0000 0.57930  0.94200  0.90940  Biso   1.000  H
  H24      1.0000 0.36270  0.42070  0.90940  Biso   1.000  H
  H25      1.0000 0.30397  0.39133  0.42393  Biso   1.000  H
  H26      1.0000 0.60867  0.91263  0.42393  Biso   1.000  H
  H27      1.0000 0.08737  0.69603  0.42393  Biso   1.000  H
  H28      1.0000 0.72467  0.97063  0.24273  Biso   1.000  H
  H29      1.0000 0.24597  0.27533  0.24273  Biso   1.000  H
  H30      1.0000 0.02937  0.75403  0.24273  Biso   1.000  H
  H31      1.0000 0.97063  0.72467  0.75727  Biso   1.000  H
  H32      1.0000 0.27533  0.24597  0.75727  Biso   1.000  H
  H33      1.0000 0.75403  0.02937  0.75727  Biso   1.000  H
  H34      1.0000 0.39133  0.30397  0.57607  Biso   1.000  H
  H35      1.0000 0.91263  0.60867  0.57607  Biso   1.000  H
  H36      1.0000 0.69603  0.08737  0.57607  Biso   1.000  H
  H37      1.0000 0.36270  0.94200  0.90940  Biso   1.000  H
  H38      1.0000 0.05800  0.42070  0.90940  Biso   1.000  H
  H39      1.0000 0.57930  0.63730  0.90940  Biso   1.000  H
  H40      1.0000 0.94200  0.36270  0.09060  Biso   1.000  H
  H41      1.0000 0.42070  0.05800  0.09060  Biso   1.000  H
  H42      1.0000 0.63730  0.57930  0.09060  Biso   1.000  H
  H43      1.0000 0.02937  0.27533  0.24273  Biso   1.000  H
  H44      1.0000 0.72467  0.75403  0.24273  Biso   1.000  H
  H45      1.0000 0.24597  0.97063  0.24273  Biso   1.000  H
  H46      1.0000 0.60867  0.69603  0.42393  Biso   1.000  H
  H47      1.0000 0.08737  0.39133  0.42393  Biso   1.000  H
  H48      1.0000 0.30397  0.91263  0.42393  Biso   1.000  H
  H49      1.0000 0.69603  0.60867  0.57607  Biso   1.000  H
  H50      1.0000 0.39133  0.08737  0.57607  Biso   1.000  H
  H51      1.0000 0.91263  0.30397  0.57607  Biso   1.000  H
  H52      1.0000 0.27533  0.02937  0.75727  Biso   1.000  H
  H53      1.0000 0.75403  0.72467  0.75727  Biso   1.000  H
  H54      1.0000 0.97063  0.24597  0.75727  Biso   1.000  H
  C127     1.0000 0.52620  0.05220  0.08590  Biso   1.000  C
  C128     1.0000 0.94780  0.47400  0.08590  Biso   1.000  C
  C129     1.0000 0.52600  0.47380  0.08590  Biso   1.000  C
  C130     1.0000 0.05220  0.52620  0.91410  Biso   1.000  C
  C131     1.0000 0.47400  0.94780  0.91410  Biso   1.000  C
  C132     1.0000 0.47380  0.52600  0.91410  Biso   1.000  C
  C133     1.0000 0.19287  0.38553  0.41923  Biso   1.000  C
  C134     1.0000 0.61447  0.80733  0.41923  Biso   1.000  C
  C135     1.0000 0.19267  0.80713  0.41923  Biso   1.000  C
  C136     1.0000 0.71887  0.85953  0.24743  Biso   1.000  C
  C137     1.0000 0.14067  0.28113  0.24743  Biso   1.000  C
  C138     1.0000 0.14047  0.85933  0.24743  Biso   1.000  C
  C139     1.0000 0.85953  0.71887  0.75257  Biso   1.000  C
  C140     1.0000 0.28113  0.14067  0.75257  Biso   1.000  C
  C141     1.0000 0.85933  0.14047  0.75257  Biso   1.000  C
  C142     1.0000 0.38553  0.19287  0.58077  Biso   1.000  C
  C143     1.0000 0.80733  0.61447  0.58077  Biso   1.000  C
  C144     1.0000 0.80713  0.19267  0.58077  Biso   1.000  C
  C145     1.0000 0.53310  0.02410  0.05419  Biso   1.000  C
  C146     1.0000 0.97590  0.50900  0.05419  Biso   1.000  C
  C147     1.0000 0.49100  0.46690  0.05419  Biso   1.000  C
  C148     1.0000 0.02410  0.53310  0.94581  Biso   1.000  C
  C149     1.0000 0.50900  0.97590  0.94581  Biso   1.000  C
  C150     1.0000 0.46690  0.49100  0.94581  Biso   1.000  C
  C151     1.0000 0.19977  0.35743  0.38752  Biso   1.000  C
  C152     1.0000 0.64257  0.84233  0.38752  Biso   1.000  C
  C153     1.0000 0.15767  0.80023  0.38752  Biso   1.000  C
  C154     1.0000 0.69077  0.86643  0.27914  Biso   1.000  C
  C155     1.0000 0.17567  0.30923  0.27914  Biso   1.000  C
  C156     1.0000 0.13357  0.82433  0.27914  Biso   1.000  C
  C157     1.0000 0.86643  0.69077  0.72086  Biso   1.000  C
  C158     1.0000 0.30923  0.17567  0.72086  Biso   1.000  C
  C159     1.0000 0.82433  0.13357  0.72086  Biso   1.000  C
  C160     1.0000 0.35743  0.19977  0.61248  Biso   1.000  C
  C161     1.0000 0.84233  0.64257  0.61248  Biso   1.000  C
  C162     1.0000 0.80023  0.15767  0.61248  Biso   1.000  C
  C163     1.0000 0.46690  0.97590  0.94581  Biso   1.000  C
  C164     1.0000 0.02410  0.49100  0.94581  Biso   1.000  C
  C165     1.0000 0.50900  0.53310  0.94581  Biso   1.000  C
  C166     1.0000 0.97590  0.46690  0.05419  Biso   1.000  C
  C167     1.0000 0.49100  0.02410  0.05419  Biso   1.000  C
  C168     1.0000 0.53310  0.50900  0.05419  Biso   1.000  C
  C169     1.0000 0.13357  0.30923  0.27914  Biso   1.000  C
  C170     1.0000 0.69077  0.82433  0.27914  Biso   1.000  C
  C171     1.0000 0.17567  0.86643  0.27914  Biso   1.000  C
  C172     1.0000 0.64257  0.80023  0.38752  Biso   1.000  C
  C173     1.0000 0.15767  0.35743  0.38752  Biso   1.000  C
  C174     1.0000 0.19977  0.84233  0.38752  Biso   1.000  C
  C175     1.0000 0.80023  0.64257  0.61248  Biso   1.000  C
  C176     1.0000 0.35743  0.15767  0.61248  Biso   1.000  C
  C177     1.0000 0.84233  0.19977  0.61248  Biso   1.000  C
  C178     1.0000 0.30923  0.13357  0.72086  Biso   1.000  C
  C179     1.0000 0.82433  0.69077  0.72086  Biso   1.000  C
  C180     1.0000 0.86643  0.17567  0.72086  Biso   1.000  C
  C181     1.0000 0.55300  0.96420  0.04534  Biso   1.000  C
  C182     1.0000 0.03580  0.58880  0.04534  Biso   1.000  C
  C183     1.0000 0.41120  0.44700  0.04534  Biso   1.000  C
  C184     1.0000 0.96420  0.55300  0.95466  Biso   1.000  C
  C185     1.0000 0.58880  0.03580  0.95466  Biso   1.000  C
  C186     1.0000 0.44700  0.41120  0.95466  Biso   1.000  C
  C187     1.0000 0.21967  0.29753  0.37867  Biso   1.000  C
  C188     1.0000 0.70247  0.92213  0.37867  Biso   1.000  C
  C189     1.0000 0.07787  0.78033  0.37867  Biso   1.000  C
  C190     1.0000 0.63087  0.88633  0.28799  Biso   1.000  C
  C191     1.0000 0.25547  0.36913  0.28799  Biso   1.000  C
  C192     1.0000 0.11367  0.74453  0.28799  Biso   1.000  C
  C193     1.0000 0.88633  0.63087  0.71201  Biso   1.000  C
  C194     1.0000 0.36913  0.25547  0.71201  Biso   1.000  C
  C195     1.0000 0.74453  0.11367  0.71201  Biso   1.000  C
  C196     1.0000 0.29753  0.21967  0.62133  Biso   1.000  C
  C197     1.0000 0.92213  0.70247  0.62133  Biso   1.000  C
  C198     1.0000 0.78033  0.07787  0.62133  Biso   1.000  C
  C199     1.0000 0.44700  0.03580  0.95466  Biso   1.000  C
  C200     1.0000 0.96420  0.41120  0.95466  Biso   1.000  C
  C201     1.0000 0.58880  0.55300  0.95466  Biso   1.000  C
  C202     1.0000 0.03580  0.44700  0.04534  Biso   1.000  C
  C203     1.0000 0.41120  0.96420  0.04534  Biso   1.000  C
  C204     1.0000 0.55300  0.58880  0.04534  Biso   1.000  C
  C205     1.0000 0.11367  0.36913  0.28799  Biso   1.000  C
  C206     1.0000 0.63087  0.74453  0.28799  Biso   1.000  C
  C207     1.0000 0.25547  0.88633  0.28799  Biso   1.000  C
  C208     1.0000 0.70247  0.78033  0.37867  Biso   1.000  C
  C209     1.0000 0.07787  0.29753  0.37867  Biso   1.000  C
  C210     1.0000 0.21967  0.92213  0.37867  Biso   1.000  C
  C211     1.0000 0.78033  0.70247  0.62133  Biso   1.000  C
  C212     1.0000 0.29753  0.07787  0.62133  Biso   1.000  C
  C213     1.0000 0.92213  0.21967  0.62133  Biso   1.000  C
  C214     1.0000 0.36913  0.11367  0.71201  Biso   1.000  C
  C215     1.0000 0.74453  0.63087  0.71201  Biso   1.000  C
  C216     1.0000 0.88633  0.25547  0.71201  Biso   1.000  C
  H55      1.0000 0.57350  0.94150  0.05890  Biso   1.000  H
  H56      1.0000 0.05850  0.63200  0.05890  Biso   1.000  H
  H57      1.0000 0.36800  0.42650  0.05890  Biso   1.000  H
  H58      1.0000 0.94150  0.57350  0.94110  Biso   1.000  H
  H59      1.0000 0.63200  0.05850  0.94110  Biso   1.000  H
  H60      1.0000 0.42650  0.36800  0.94110  Biso   1.000  H
  H61      1.0000 0.24017  0.27483  0.39223  Biso   1.000  H
  H62      1.0000 0.72517  0.96533  0.39223  Biso   1.000  H
  H63      1.0000 0.03467  0.75983  0.39223  Biso   1.000  H
  H64      1.0000 0.60817  0.90683  0.27443  Biso   1.000  H
  H65      1.0000 0.29867  0.39183  0.27443  Biso   1.000  H
  H66      1.0000 0.09317  0.70133  0.27443  Biso   1.000  H
  H67      1.0000 0.90683  0.60817  0.72557  Biso   1.000  H
  H68      1.0000 0.39183  0.29867  0.72557  Biso   1.000  H
  H69      1.0000 0.70133  0.09317  0.72557  Biso   1.000  H
  H70      1.0000 0.27483  0.24017  0.60777  Biso   1.000  H
  H71      1.0000 0.96533  0.72517  0.60777  Biso   1.000  H
  H72      1.0000 0.75983  0.03467  0.60777  Biso   1.000  H
  H73      1.0000 0.42650  0.05850  0.94110  Biso   1.000  H
  H74      1.0000 0.94150  0.36800  0.94110  Biso   1.000  H
  H75      1.0000 0.63200  0.57350  0.94110  Biso   1.000  H
  H76      1.0000 0.05850  0.42650  0.05890  Biso   1.000  H
  H77      1.0000 0.36800  0.94150  0.05890  Biso   1.000  H
  H78      1.0000 0.57350  0.63200  0.05890  Biso   1.000  H
  H79      1.0000 0.09317  0.39183  0.27443  Biso   1.000  H
  H80      1.0000 0.60817  0.70133  0.27443  Biso   1.000  H
  H81      1.0000 0.29867  0.90683  0.27443  Biso   1.000  H
  H82      1.0000 0.72517  0.75983  0.39223  Biso   1.000  H
  H83      1.0000 0.03467  0.27483  0.39223  Biso   1.000  H
  H84      1.0000 0.24017  0.96533  0.39223  Biso   1.000  H
  H85      1.0000 0.75983  0.72517  0.60777  Biso   1.000  H
  H86      1.0000 0.27483  0.03467  0.60777  Biso   1.000  H
  H87      1.0000 0.96533  0.24017  0.60777  Biso   1.000  H
  H88      1.0000 0.39183  0.09317  0.72557  Biso   1.000  H
  H89      1.0000 0.70133  0.60817  0.72557  Biso   1.000  H
  H90      1.0000 0.90683  0.29867  0.72557  Biso   1.000  H
  C217     1.0000 0.54210  0.93840  0.01609  Biso   1.000  C
  C218     1.0000 0.06160  0.60370  0.01609  Biso   1.000  C
  C219     1.0000 0.39630  0.45790  0.01609  Biso   1.000  C
  C220     1.0000 0.93840  0.54210  0.98391  Biso   1.000  C
  C221     1.0000 0.60370  0.06160  0.98391  Biso   1.000  C
  C222     1.0000 0.45790  0.39630  0.98391  Biso   1.000  C
  C223     1.0000 0.20877  0.27173  0.34942  Biso   1.000  C
  C224     1.0000 0.72827  0.93703  0.34942  Biso   1.000  C
  C225     1.0000 0.06297  0.79123  0.34942  Biso   1.000  C
  C226     1.0000 0.60507  0.87543  0.31724  Biso   1.000  C
  C227     1.0000 0.27037  0.39493  0.31724  Biso   1.000  C
  C228     1.0000 0.12457  0.72963  0.31724  Biso   1.000  C
  C229     1.0000 0.87543  0.60507  0.68276  Biso   1.000  C
  C230     1.0000 0.39493  0.27037  0.68276  Biso   1.000  C
  C231     1.0000 0.72963  0.12457  0.68276  Biso   1.000  C
  C232     1.0000 0.27173  0.20877  0.65058  Biso   1.000  C
  C233     1.0000 0.93703  0.72827  0.65058  Biso   1.000  C
  C234     1.0000 0.79123  0.06297  0.65058  Biso   1.000  C
  C235     1.0000 0.45790  0.06160  0.98391  Biso   1.000  C
  C236     1.0000 0.93840  0.39630  0.98391  Biso   1.000  C
  C237     1.0000 0.60370  0.54210  0.98391  Biso   1.000  C
  C238     1.0000 0.06160  0.45790  0.01609  Biso   1.000  C
  C239     1.0000 0.39630  0.93840  0.01609  Biso   1.000  C
  C240     1.0000 0.54210  0.60370  0.01609  Biso   1.000  C
  C241     1.0000 0.12457  0.39493  0.31724  Biso   1.000  C
  C242     1.0000 0.60507  0.72963  0.31724  Biso   1.000  C
  C243     1.0000 0.27037  0.87543  0.31724  Biso   1.000  C
  C244     1.0000 0.72827  0.79123  0.34942  Biso   1.000  C
  C245     1.0000 0.06297  0.27173  0.34942  Biso   1.000  C
  C246     1.0000 0.20877  0.93703  0.34942  Biso   1.000  C
  C247     1.0000 0.79123  0.72827  0.65058  Biso   1.000  C
  C248     1.0000 0.27173  0.06297  0.65058  Biso   1.000  C
  C249     1.0000 0.93703  0.20877  0.65058  Biso   1.000  C
  C250     1.0000 0.39493  0.12457  0.68276  Biso   1.000  C
  C251     1.0000 0.72963  0.60507  0.68276  Biso   1.000  C
  C252     1.0000 0.87543  0.27037  0.68276  Biso   1.000  C
  C253     1.0000 0.51150  0.97240  0.99571  Biso   1.000  C
  C254     1.0000 0.02760  0.53910  0.99571  Biso   1.000  C
  C255     1.0000 0.46090  0.48850  0.99571  Biso   1.000  C
  C256     1.0000 0.97240  0.51150  0.00429  Biso   1.000  C
  C257     1.0000 0.53910  0.02760  0.00429  Biso   1.000  C
  C258     1.0000 0.48850  0.46090  0.00429  Biso   1.000  C
  C259     1.0000 0.17817  0.30573  0.32904  Biso   1.000  C
  C260     1.0000 0.69427  0.87243  0.32904  Biso   1.000  C
  C261     1.0000 0.12757  0.82183  0.32904  Biso   1.000  C
  C262     1.0000 0.63907  0.84483  0.33762  Biso   1.000  C
  C263     1.0000 0.20577  0.36093  0.33762  Biso   1.000  C
  C264     1.0000 0.15517  0.79423  0.33762  Biso   1.000  C
  C265     1.0000 0.84483  0.63907  0.66238  Biso   1.000  C
  C266     1.0000 0.36093  0.20577  0.66238  Biso   1.000  C
  C267     1.0000 0.79423  0.15517  0.66238  Biso   1.000  C
  C268     1.0000 0.30573  0.17817  0.67096  Biso   1.000  C
  C269     1.0000 0.87243  0.69427  0.67096  Biso   1.000  C
  C270     1.0000 0.82183  0.12757  0.67096  Biso   1.000  C
  C271     1.0000 0.48850  0.02760  0.00429  Biso   1.000  C
  C272     1.0000 0.97240  0.46090  0.00429  Biso   1.000  C
  C273     1.0000 0.53910  0.51150  0.00429  Biso   1.000  C
  C274     1.0000 0.02760  0.48850  0.99571  Biso   1.000  C
  C275     1.0000 0.46090  0.97240  0.99571  Biso   1.000  C
  C276     1.0000 0.51150  0.53910  0.99571  Biso   1.000  C
  C277     1.0000 0.15517  0.36093  0.33762  Biso   1.000  C
  C278     1.0000 0.63907  0.79423  0.33762  Biso   1.000  C
  C279     1.0000 0.20577  0.84483  0.33762  Biso   1.000  C
  C280     1.0000 0.69427  0.82183  0.32904  Biso   1.000  C
  C281     1.0000 0.12757  0.30573  0.32904  Biso   1.000  C
  C282     1.0000 0.17817  0.87243  0.32904  Biso   1.000  C
  C283     1.0000 0.82183  0.69427  0.67096  Biso   1.000  C
  C284     1.0000 0.30573  0.12757  0.67096  Biso   1.000  C
  C285     1.0000 0.87243  0.17817  0.67096  Biso   1.000  C
  C286     1.0000 0.36093  0.15517  0.66238  Biso   1.000  C
  C287     1.0000 0.79423  0.63907  0.66238  Biso   1.000  C
  C288     1.0000 0.84483  0.20577  0.66238  Biso   1.000  C
  C289     1.0000 0.50240  0.05810  0.03380  Biso   1.000  C
  C290     1.0000 0.94190  0.44430  0.03380  Biso   1.000  C
  C291     1.0000 0.55570  0.49760  0.03380  Biso   1.000  C
  C292     1.0000 0.05810  0.50240  0.96620  Biso   1.000  C
  C293     1.0000 0.44430  0.94190  0.96620  Biso   1.000  C
  C294     1.0000 0.49760  0.55570  0.96620  Biso   1.000  C
  C295     1.0000 0.16907  0.39143  0.36713  Biso   1.000  C
  C296     1.0000 0.60857  0.77763  0.36713  Biso   1.000  C
  C297     1.0000 0.22237  0.83093  0.36713  Biso   1.000  C
  C298     1.0000 0.72477  0.83573  0.29953  Biso   1.000  C
  C299     1.0000 0.11097  0.27523  0.29953  Biso   1.000  C
  C300     1.0000 0.16427  0.88903  0.29953  Biso   1.000  C
  C301     1.0000 0.83573  0.72477  0.70047  Biso   1.000  C
  C302     1.0000 0.27523  0.11097  0.70047  Biso   1.000  C
  C303     1.0000 0.88903  0.16427  0.70047  Biso   1.000  C
  C304     1.0000 0.39143  0.16907  0.63287  Biso   1.000  C
  C305     1.0000 0.77763  0.60857  0.63287  Biso   1.000  C
  C306     1.0000 0.83093  0.22237  0.63287  Biso   1.000  C
  C307     1.0000 0.49760  0.94190  0.96620  Biso   1.000  C
  C308     1.0000 0.05810  0.55570  0.96620  Biso   1.000  C
  C309     1.0000 0.44430  0.50240  0.96620  Biso   1.000  C
  C310     1.0000 0.94190  0.49760  0.03380  Biso   1.000  C
  C311     1.0000 0.55570  0.05810  0.03380  Biso   1.000  C
  C312     1.0000 0.50240  0.44430  0.03380  Biso   1.000  C
  C313     1.0000 0.16427  0.27523  0.29953  Biso   1.000  C
  C314     1.0000 0.72477  0.88903  0.29953  Biso   1.000  C
  C315     1.0000 0.11097  0.83573  0.29953  Biso   1.000  C
  C316     1.0000 0.60857  0.83093  0.36713  Biso   1.000  C
  C317     1.0000 0.22237  0.39143  0.36713  Biso   1.000  C
  C318     1.0000 0.16907  0.77763  0.36713  Biso   1.000  C
  C319     1.0000 0.83093  0.60857  0.63287  Biso   1.000  C
  C320     1.0000 0.39143  0.22237  0.63287  Biso   1.000  C
  C321     1.0000 0.77763  0.16907  0.63287  Biso   1.000  C
  C322     1.0000 0.27523  0.16427  0.70047  Biso   1.000  C
  C323     1.0000 0.88903  0.72477  0.70047  Biso   1.000  C
  C324     1.0000 0.83573  0.11097  0.70047  Biso   1.000  C
