data_image0
_cell_length_a       18.525
_cell_length_b       18.525
_cell_length_c       38.83
_cell_angle_alpha    90
_cell_angle_beta     90
_cell_angle_gamma    120

_symmetry_space_group_name_H-M    "P 1"
_symmetry_int_tables_number       1

loop_
  _symmetry_equiv_pos_as_xyz
  'x, y, z'

loop_
  _atom_site_label
  _atom_site_occupancy
  _atom_site_fract_x
  _atom_site_fract_y
  _atom_site_fract_z
  _atom_site_thermal_displace_type
  _atom_site_B_iso_or_equiv
  _atom_site_type_symbol
  Cu1      1.0000 0.19081  0.38161  0.30568  Biso   1.000  Cu
  Cu2      1.0000 0.61838  0.80919  0.30568  Biso   1.000  Cu
  Cu3      1.0000 0.19081  0.80919  0.30568  Biso   1.000  Cu
  Cu4      1.0000 0.38161  0.19081  0.69432  Biso   1.000  Cu
  Cu5      1.0000 0.80919  0.19081  0.69432  Biso   1.000  Cu
  Cu6      1.0000 0.80919  0.61838  0.69432  Biso   1.000  Cu
  Cu7      1.0000 0.85747  0.71495  0.63901  Biso   1.000  Cu
  Cu8      1.0000 0.28505  0.14253  0.63901  Biso   1.000  Cu
  Cu9      1.0000 0.85747  0.14253  0.63901  Biso   1.000  Cu
  Cu10     1.0000 0.04828  0.52414  0.02766  Biso   1.000  Cu
  Cu11     1.0000 0.47586  0.52414  0.02766  Biso   1.000  Cu
  Cu12     1.0000 0.47586  0.95172  0.02766  Biso   1.000  Cu
  Cu13     1.0000 0.52414  0.04828  0.97234  Biso   1.000  Cu
  Cu14     1.0000 0.95172  0.47586  0.97234  Biso   1.000  Cu
  Cu15     1.0000 0.52414  0.47586  0.97234  Biso   1.000  Cu
  Cu16     1.0000 0.71495  0.85747  0.36099  Biso   1.000  Cu
  Cu17     1.0000 0.14253  0.85747  0.36099  Biso   1.000  Cu
  Cu18     1.0000 0.14253  0.28505  0.36099  Biso   1.000  Cu
  C1       1.0000 0.02688  0.24222  0.30596  Biso   1.000  C
  C2       1.0000 0.75778  0.78466  0.30596  Biso   1.000  C
  C3       1.0000 0.21534  0.97312  0.30596  Biso   1.000  C
  C4       1.0000 0.24222  0.02688  0.69404  Biso   1.000  C
  C5       1.0000 0.97312  0.21534  0.69404  Biso   1.000  C
  C6       1.0000 0.78466  0.75778  0.69404  Biso   1.000  C
  C7       1.0000 0.69355  0.57555  0.63929  Biso   1.000  C
  C8       1.0000 0.42445  0.11799  0.63929  Biso   1.000  C
  C9       1.0000 0.88201  0.30645  0.63929  Biso   1.000  C
  C10      1.0000 0.90889  0.36021  0.02737  Biso   1.000  C
  C11      1.0000 0.63979  0.54867  0.02737  Biso   1.000  C
  C12      1.0000 0.45133  0.09111  0.02737  Biso   1.000  C
  C13      1.0000 0.36021  0.90889  0.97263  Biso   1.000  C
  C14      1.0000 0.09111  0.45133  0.97263  Biso   1.000  C
  C15      1.0000 0.54867  0.63979  0.97263  Biso   1.000  C
  C16      1.0000 0.57555  0.69355  0.36071  Biso   1.000  C
  C17      1.0000 0.30645  0.88201  0.36071  Biso   1.000  C
  C18      1.0000 0.11799  0.42445  0.36071  Biso   1.000  C
  C19      1.0000 0.97312  0.75778  0.69404  Biso   1.000  C
  C20      1.0000 0.24222  0.21534  0.69404  Biso   1.000  C
  C21      1.0000 0.78466  0.02688  0.69404  Biso   1.000  C
  C22      1.0000 0.75778  0.97312  0.30596  Biso   1.000  C
  C23      1.0000 0.02688  0.78466  0.30596  Biso   1.000  C
  C24      1.0000 0.21534  0.24222  0.30596  Biso   1.000  C
  C25      1.0000 0.63979  0.09111  0.02737  Biso   1.000  C
  C26      1.0000 0.90889  0.54867  0.02737  Biso   1.000  C
  C27      1.0000 0.45133  0.36021  0.02737  Biso   1.000  C
  C28      1.0000 0.42445  0.30645  0.63929  Biso   1.000  C
  C29      1.0000 0.69355  0.11799  0.63929  Biso   1.000  C
  C30      1.0000 0.88201  0.57555  0.63929  Biso   1.000  C
  C31      1.0000 0.30645  0.42445  0.36071  Biso   1.000  C
  C32      1.0000 0.57555  0.88201  0.36071  Biso   1.000  C
  C33      1.0000 0.11799  0.69355  0.36071  Biso   1.000  C
  C34      1.0000 0.09111  0.63979  0.97263  Biso   1.000  C
  C35      1.0000 0.36021  0.45133  0.97263  Biso   1.000  C
  C36      1.0000 0.54867  0.90889  0.97263  Biso   1.000  C
  C37      1.0000 0.94635  0.18330  0.28865  Biso   1.000  C
  C38      1.0000 0.81670  0.76305  0.28865  Biso   1.000  C
  C39      1.0000 0.23695  0.05365  0.28865  Biso   1.000  C
  C40      1.0000 0.18330  0.94635  0.71135  Biso   1.000  C
  C41      1.0000 0.05365  0.23695  0.71135  Biso   1.000  C
  C42      1.0000 0.76305  0.81670  0.71135  Biso   1.000  C
  C43      1.0000 0.61302  0.51663  0.62198  Biso   1.000  C
  C44      1.0000 0.48337  0.09638  0.62198  Biso   1.000  C
  C45      1.0000 0.90362  0.38698  0.62198  Biso   1.000  C
  C46      1.0000 0.84997  0.27968  0.04468  Biso   1.000  C
  C47      1.0000 0.72032  0.57028  0.04468  Biso   1.000  C
  C48      1.0000 0.42972  0.15003  0.04468  Biso   1.000  C
  C49      1.0000 0.27968  0.84997  0.95532  Biso   1.000  C
  C50      1.0000 0.15003  0.42972  0.95532  Biso   1.000  C
  C51      1.0000 0.57028  0.72032  0.95532  Biso   1.000  C
  C52      1.0000 0.51663  0.61302  0.37802  Biso   1.000  C
  C53      1.0000 0.38698  0.90362  0.37802  Biso   1.000  C
  C54      1.0000 0.09638  0.48337  0.37802  Biso   1.000  C
  C55      1.0000 0.05365  0.81670  0.71135  Biso   1.000  C
  C56      1.0000 0.18330  0.23695  0.71135  Biso   1.000  C
  C57      1.0000 0.76305  0.94635  0.71135  Biso   1.000  C
  C58      1.0000 0.81670  0.05365  0.28865  Biso   1.000  C
  C59      1.0000 0.94635  0.76305  0.28865  Biso   1.000  C
  C60      1.0000 0.23695  0.18330  0.28865  Biso   1.000  C
  C61      1.0000 0.72032  0.15003  0.04468  Biso   1.000  C
  C62      1.0000 0.84997  0.57028  0.04468  Biso   1.000  C
  C63      1.0000 0.42972  0.27968  0.04468  Biso   1.000  C
  C64      1.0000 0.48337  0.38698  0.62198  Biso   1.000  C
  C65      1.0000 0.61302  0.09638  0.62198  Biso   1.000  C
  C66      1.0000 0.90362  0.51663  0.62198  Biso   1.000  C
  C67      1.0000 0.38698  0.48337  0.37802  Biso   1.000  C
  C68      1.0000 0.51663  0.90362  0.37802  Biso   1.000  C
  C69      1.0000 0.09638  0.61302  0.37802  Biso   1.000  C
  C70      1.0000 0.15003  0.72032  0.95532  Biso   1.000  C
  C71      1.0000 0.27968  0.42972  0.95532  Biso   1.000  C
  C72      1.0000 0.57028  0.84997  0.95532  Biso   1.000  C
  C73      1.0000 0.88929  0.11075  0.30549  Biso   1.000  C
  C74      1.0000 0.88925  0.77854  0.30549  Biso   1.000  C
  C75      1.0000 0.22146  0.11071  0.30549  Biso   1.000  C
  C76      1.0000 0.11075  0.88929  0.69451  Biso   1.000  C
  C77      1.0000 0.11071  0.22146  0.69451  Biso   1.000  C
  C78      1.0000 0.77854  0.88925  0.69451  Biso   1.000  C
  C79      1.0000 0.55596  0.44408  0.63882  Biso   1.000  C
  C80      1.0000 0.55592  0.11187  0.63882  Biso   1.000  C
  C81      1.0000 0.88813  0.44404  0.63882  Biso   1.000  C
  C82      1.0000 0.77742  0.22262  0.02784  Biso   1.000  C
  C83      1.0000 0.77738  0.55479  0.02784  Biso   1.000  C
  C84      1.0000 0.44521  0.22258  0.02784  Biso   1.000  C
  C85      1.0000 0.22262  0.77742  0.97216  Biso   1.000  C
  C86      1.0000 0.22258  0.44521  0.97216  Biso   1.000  C
  C87      1.0000 0.55479  0.77738  0.97216  Biso   1.000  C
  C88      1.0000 0.44408  0.55596  0.36118  Biso   1.000  C
  C89      1.0000 0.44404  0.88813  0.36118  Biso   1.000  C
  C90      1.0000 0.11187  0.55592  0.36118  Biso   1.000  C
  H1       1.0000 0.89970  0.10020  0.32830  Biso   1.000  H
  H2       1.0000 0.89980  0.79950  0.32830  Biso   1.000  H
  H3       1.0000 0.20050  0.10030  0.32830  Biso   1.000  H
  H4       1.0000 0.10020  0.89970  0.67170  Biso   1.000  H
  H5       1.0000 0.10030  0.20050  0.67170  Biso   1.000  H
  H6       1.0000 0.79950  0.89980  0.67170  Biso   1.000  H
  H7       1.0000 0.56637  0.43353  0.66163  Biso   1.000  H
  H8       1.0000 0.56647  0.13283  0.66163  Biso   1.000  H
  H9       1.0000 0.86717  0.43363  0.66163  Biso   1.000  H
  H10      1.0000 0.76687  0.23303  0.00503  Biso   1.000  H
  H11      1.0000 0.76697  0.53383  0.00503  Biso   1.000  H
  H12      1.0000 0.46617  0.23313  0.00503  Biso   1.000  H
  H13      1.0000 0.23303  0.76687  0.99497  Biso   1.000  H
  H14      1.0000 0.23313  0.46617  0.99497  Biso   1.000  H
  H15      1.0000 0.53383  0.76697  0.99497  Biso   1.000  H
  H16      1.0000 0.43353  0.56637  0.33837  Biso   1.000  H
  H17      1.0000 0.43363  0.86717  0.33837  Biso   1.000  H
  H18      1.0000 0.13283  0.56647  0.33837  Biso   1.000  H
  C91      1.0000 0.93255  0.19808  0.25502  Biso   1.000  C
  C92      1.0000 0.80192  0.73447  0.25502  Biso   1.000  C
  C93      1.0000 0.26553  0.06745  0.25502  Biso   1.000  C
  C94      1.0000 0.19808  0.93255  0.74498  Biso   1.000  C
  C95      1.0000 0.06745  0.26553  0.74498  Biso   1.000  C
  C96      1.0000 0.73447  0.80192  0.74498  Biso   1.000  C
  C97      1.0000 0.59922  0.53141  0.58835  Biso   1.000  C
  C98      1.0000 0.46859  0.06780  0.58835  Biso   1.000  C
  C99      1.0000 0.93220  0.40078  0.58835  Biso   1.000  C
  C100     1.0000 0.86475  0.26588  0.07831  Biso   1.000  C
  C101     1.0000 0.73412  0.59886  0.07831  Biso   1.000  C
  C102     1.0000 0.40114  0.13525  0.07831  Biso   1.000  C
  C103     1.0000 0.26588  0.86475  0.92169  Biso   1.000  C
  C104     1.0000 0.13525  0.40114  0.92169  Biso   1.000  C
  C105     1.0000 0.59886  0.73412  0.92169  Biso   1.000  C
  C106     1.0000 0.53141  0.59922  0.41165  Biso   1.000  C
  C107     1.0000 0.40078  0.93220  0.41165  Biso   1.000  C
  C108     1.0000 0.06780  0.46859  0.41165  Biso   1.000  C
  C109     1.0000 0.06745  0.80192  0.74498  Biso   1.000  C
  C110     1.0000 0.19808  0.26553  0.74498  Biso   1.000  C
  C111     1.0000 0.73447  0.93255  0.74498  Biso   1.000  C
  C112     1.0000 0.80192  0.06745  0.25502  Biso   1.000  C
  C113     1.0000 0.93255  0.73447  0.25502  Biso   1.000  C
  C114     1.0000 0.26553  0.19808  0.25502  Biso   1.000  C
  C115     1.0000 0.73412  0.13525  0.07831  Biso   1.000  C
  C116     1.0000 0.86475  0.59886  0.07831  Biso   1.000  C
  C117     1.0000 0.40114  0.26588  0.07831  Biso   1.000  C
  C118     1.0000 0.46859  0.40078  0.58835  Biso   1.000  C
  C119     1.0000 0.59922  0.06780  0.58835  Biso   1.000  C
  C120     1.0000 0.93220  0.53141  0.58835  Biso   1.000  C
  C121     1.0000 0.40078  0.46859  0.41165  Biso   1.000  C
  C122     1.0000 0.53141  0.93220  0.41165  Biso   1.000  C
  C123     1.0000 0.06780  0.59922  0.41165  Biso   1.000  C
  C124     1.0000 0.13525  0.73412  0.92169  Biso   1.000  C
  C125     1.0000 0.26588  0.40114  0.92169  Biso   1.000  C
  C126     1.0000 0.59886  0.86475  0.92169  Biso   1.000  C
  H19      1.0000 0.97210  0.24740  0.24350  Biso   1.000  H
  H20      1.0000 0.75260  0.72470  0.24350  Biso   1.000  H
  H21      1.0000 0.27530  0.02790  0.24350  Biso   1.000  H
  H22      1.0000 0.24740  0.97210  0.75650  Biso   1.000  H
  H23      1.0000 0.02790  0.27530  0.75650  Biso   1.000  H
  H24      1.0000 0.72470  0.75260  0.75650  Biso   1.000  H
  H25      1.0000 0.63877  0.58073  0.57683  Biso   1.000  H
  H26      1.0000 0.41927  0.05803  0.57683  Biso   1.000  H
  H27      1.0000 0.94197  0.36123  0.57683  Biso   1.000  H
  H28      1.0000 0.91407  0.30543  0.08983  Biso   1.000  H
  H29      1.0000 0.69457  0.60863  0.08983  Biso   1.000  H
  H30      1.0000 0.39137  0.08593  0.08983  Biso   1.000  H
  H31      1.0000 0.30543  0.91407  0.91017  Biso   1.000  H
  H32      1.0000 0.08593  0.39137  0.91017  Biso   1.000  H
  H33      1.0000 0.60863  0.69457  0.91017  Biso   1.000  H
  H34      1.0000 0.58073  0.63877  0.42317  Biso   1.000  H
  H35      1.0000 0.36123  0.94197  0.42317  Biso   1.000  H
  H36      1.0000 0.05803  0.41927  0.42317  Biso   1.000  H
  H37      1.0000 0.02790  0.75260  0.75650  Biso   1.000  H
  H38      1.0000 0.24740  0.27530  0.75650  Biso   1.000  H
  H39      1.0000 0.72470  0.97210  0.75650  Biso   1.000  H
  H40      1.0000 0.75260  0.02790  0.24350  Biso   1.000  H
  H41      1.0000 0.97210  0.72470  0.24350  Biso   1.000  H
  H42      1.0000 0.27530  0.24740  0.24350  Biso   1.000  H
  H43      1.0000 0.69457  0.08593  0.08983  Biso   1.000  H
  H44      1.0000 0.91407  0.60863  0.08983  Biso   1.000  H
  H45      1.0000 0.39137  0.30543  0.08983  Biso   1.000  H
  H46      1.0000 0.41927  0.36123  0.57683  Biso   1.000  H
  H47      1.0000 0.63877  0.05803  0.57683  Biso   1.000  H
  H48      1.0000 0.94197  0.58073  0.57683  Biso   1.000  H
  H49      1.0000 0.36123  0.41927  0.42317  Biso   1.000  H
  H50      1.0000 0.58073  0.94197  0.42317  Biso   1.000  H
  H51      1.0000 0.05803  0.63877  0.42317  Biso   1.000  H
  H52      1.0000 0.08593  0.69457  0.91017  Biso   1.000  H
  H53      1.0000 0.30543  0.39137  0.91017  Biso   1.000  H
  H54      1.0000 0.60863  0.91407  0.91017  Biso   1.000  H
  C127     1.0000 0.86011  0.13987  0.23818  Biso   1.000  C
  C128     1.0000 0.86013  0.72024  0.23818  Biso   1.000  C
  C129     1.0000 0.27976  0.13989  0.23818  Biso   1.000  C
  C130     1.0000 0.13987  0.86011  0.76182  Biso   1.000  C
  C131     1.0000 0.13989  0.27976  0.76182  Biso   1.000  C
  C132     1.0000 0.72024  0.86013  0.76182  Biso   1.000  C
  C133     1.0000 0.52678  0.47320  0.57151  Biso   1.000  C
  C134     1.0000 0.52680  0.05357  0.57151  Biso   1.000  C
  C135     1.0000 0.94643  0.47322  0.57151  Biso   1.000  C
  C136     1.0000 0.80654  0.19344  0.09515  Biso   1.000  C
  C137     1.0000 0.80656  0.61309  0.09515  Biso   1.000  C
  C138     1.0000 0.38691  0.19346  0.09515  Biso   1.000  C
  C139     1.0000 0.19344  0.80654  0.90485  Biso   1.000  C
  C140     1.0000 0.19346  0.38691  0.90485  Biso   1.000  C
  C141     1.0000 0.61309  0.80656  0.90485  Biso   1.000  C
  C142     1.0000 0.47320  0.52678  0.42849  Biso   1.000  C
  C143     1.0000 0.47322  0.94643  0.42849  Biso   1.000  C
  C144     1.0000 0.05357  0.52680  0.42849  Biso   1.000  C
  C145     1.0000 0.84626  0.15372  0.20162  Biso   1.000  C
  C146     1.0000 0.84628  0.69254  0.20162  Biso   1.000  C
  C147     1.0000 0.30746  0.15374  0.20162  Biso   1.000  C
  C148     1.0000 0.15372  0.84626  0.79838  Biso   1.000  C
  C149     1.0000 0.15374  0.30746  0.79838  Biso   1.000  C
  C150     1.0000 0.69254  0.84628  0.79838  Biso   1.000  C
  C151     1.0000 0.51293  0.48705  0.53495  Biso   1.000  C
  C152     1.0000 0.51295  0.02587  0.53495  Biso   1.000  C
  C153     1.0000 0.97413  0.48707  0.53495  Biso   1.000  C
  C154     1.0000 0.82039  0.17959  0.13171  Biso   1.000  C
  C155     1.0000 0.82041  0.64079  0.13171  Biso   1.000  C
  C156     1.0000 0.35921  0.17961  0.13171  Biso   1.000  C
  C157     1.0000 0.17959  0.82039  0.86829  Biso   1.000  C
  C158     1.0000 0.17961  0.35921  0.86829  Biso   1.000  C
  C159     1.0000 0.64079  0.82041  0.86829  Biso   1.000  C
  C160     1.0000 0.48705  0.51293  0.46505  Biso   1.000  C
  C161     1.0000 0.48707  0.97413  0.46505  Biso   1.000  C
  C162     1.0000 0.02587  0.51295  0.46505  Biso   1.000  C
  C163     1.0000 0.82940  0.09560  0.17634  Biso   1.000  C
  C164     1.0000 0.90440  0.73380  0.17634  Biso   1.000  C
  C165     1.0000 0.26620  0.17060  0.17634  Biso   1.000  C
  C166     1.0000 0.09560  0.82940  0.82366  Biso   1.000  C
  C167     1.0000 0.17060  0.26620  0.82366  Biso   1.000  C
  C168     1.0000 0.73380  0.90440  0.82366  Biso   1.000  C
  C169     1.0000 0.49607  0.42893  0.50967  Biso   1.000  C
  C170     1.0000 0.57107  0.06713  0.50967  Biso   1.000  C
  C171     1.0000 0.93287  0.50393  0.50967  Biso   1.000  C
  C172     1.0000 0.76227  0.16273  0.15699  Biso   1.000  C
  C173     1.0000 0.83727  0.59953  0.15699  Biso   1.000  C
  C174     1.0000 0.40047  0.23773  0.15699  Biso   1.000  C
  C175     1.0000 0.16273  0.76227  0.84301  Biso   1.000  C
  C176     1.0000 0.23773  0.40047  0.84301  Biso   1.000  C
  C177     1.0000 0.59953  0.83727  0.84301  Biso   1.000  C
  C178     1.0000 0.42893  0.49607  0.49033  Biso   1.000  C
  C179     1.0000 0.50393  0.93287  0.49033  Biso   1.000  C
  C180     1.0000 0.06713  0.57107  0.49033  Biso   1.000  C
  C181     1.0000 0.17060  0.90440  0.82366  Biso   1.000  C
  C182     1.0000 0.09560  0.26620  0.82366  Biso   1.000  C
  C183     1.0000 0.73380  0.82940  0.82366  Biso   1.000  C
  C184     1.0000 0.90440  0.17060  0.17634  Biso   1.000  C
  C185     1.0000 0.82940  0.73380  0.17634  Biso   1.000  C
  C186     1.0000 0.26620  0.09560  0.17634  Biso   1.000  C
  C187     1.0000 0.83727  0.23773  0.15699  Biso   1.000  C
  C188     1.0000 0.76227  0.59953  0.15699  Biso   1.000  C
  C189     1.0000 0.40047  0.16273  0.15699  Biso   1.000  C
  C190     1.0000 0.57107  0.50393  0.50967  Biso   1.000  C
  C191     1.0000 0.49607  0.06713  0.50967  Biso   1.000  C
  C192     1.0000 0.93287  0.42893  0.50967  Biso   1.000  C
  C193     1.0000 0.50393  0.57107  0.49033  Biso   1.000  C
  C194     1.0000 0.42893  0.93287  0.49033  Biso   1.000  C
  C195     1.0000 0.06713  0.49607  0.49033  Biso   1.000  C
  C196     1.0000 0.23773  0.83727  0.84301  Biso   1.000  C
  C197     1.0000 0.16273  0.40047  0.84301  Biso   1.000  C
  C198     1.0000 0.59953  0.76227  0.84301  Biso   1.000  C
  C199     1.0000 0.84960  0.22630  0.19049  Biso   1.000  C
  C200     1.0000 0.77370  0.62330  0.19049  Biso   1.000  C
  C201     1.0000 0.37670  0.15040  0.19049  Biso   1.000  C
  C202     1.0000 0.22630  0.84960  0.80951  Biso   1.000  C
  C203     1.0000 0.15040  0.37670  0.80951  Biso   1.000  C
  C204     1.0000 0.62330  0.77370  0.80951  Biso   1.000  C
  C205     1.0000 0.51627  0.55963  0.52382  Biso   1.000  C
  C206     1.0000 0.44037  0.95663  0.52382  Biso   1.000  C
  C207     1.0000 0.04337  0.48373  0.52382  Biso   1.000  C
  C208     1.0000 0.89297  0.18293  0.14284  Biso   1.000  C
  C209     1.0000 0.81707  0.71003  0.14284  Biso   1.000  C
  C210     1.0000 0.28997  0.10703  0.14284  Biso   1.000  C
  C211     1.0000 0.18293  0.89297  0.85716  Biso   1.000  C
  C212     1.0000 0.10703  0.28997  0.85716  Biso   1.000  C
  C213     1.0000 0.71003  0.81707  0.85716  Biso   1.000  C
  C214     1.0000 0.55963  0.51627  0.47618  Biso   1.000  C
  C215     1.0000 0.48373  0.04337  0.47618  Biso   1.000  C
  C216     1.0000 0.95663  0.44037  0.47618  Biso   1.000  C
  C217     1.0000 0.15040  0.77370  0.80951  Biso   1.000  C
  C218     1.0000 0.22630  0.37670  0.80951  Biso   1.000  C
  C219     1.0000 0.62330  0.84960  0.80951  Biso   1.000  C
  C220     1.0000 0.77370  0.15040  0.19049  Biso   1.000  C
  C221     1.0000 0.84960  0.62330  0.19049  Biso   1.000  C
  C222     1.0000 0.37670  0.22630  0.19049  Biso   1.000  C
  C223     1.0000 0.81707  0.10703  0.14284  Biso   1.000  C
  C224     1.0000 0.89297  0.71003  0.14284  Biso   1.000  C
  C225     1.0000 0.28997  0.18293  0.14284  Biso   1.000  C
  C226     1.0000 0.44037  0.48373  0.52382  Biso   1.000  C
  C227     1.0000 0.51627  0.95663  0.52382  Biso   1.000  C
  C228     1.0000 0.04337  0.55963  0.52382  Biso   1.000  C
  C229     1.0000 0.48373  0.44037  0.47618  Biso   1.000  C
  C230     1.0000 0.55963  0.04337  0.47618  Biso   1.000  C
  C231     1.0000 0.95663  0.51627  0.47618  Biso   1.000  C
  C232     1.0000 0.10703  0.81707  0.85716  Biso   1.000  C
  C233     1.0000 0.18293  0.28997  0.85716  Biso   1.000  C
  C234     1.0000 0.71003  0.89297  0.85716  Biso   1.000  C
  O1       1.0000 0.07824  0.30463  0.28907  Biso   1.000  O
  O2       1.0000 0.69537  0.77361  0.28907  Biso   1.000  O
  O3       1.0000 0.22639  0.92176  0.28907  Biso   1.000  O
  O4       1.0000 0.30463  0.07824  0.71093  Biso   1.000  O
  O5       1.0000 0.92176  0.22639  0.71093  Biso   1.000  O
  O6       1.0000 0.77361  0.69537  0.71093  Biso   1.000  O
  O7       1.0000 0.74491  0.63796  0.62240  Biso   1.000  O
  O8       1.0000 0.36204  0.10694  0.62240  Biso   1.000  O
  O9       1.0000 0.89306  0.25509  0.62240  Biso   1.000  O
  O10      1.0000 0.97130  0.41157  0.04426  Biso   1.000  O
  O11      1.0000 0.58843  0.55972  0.04426  Biso   1.000  O
  O12      1.0000 0.44028  0.02870  0.04426  Biso   1.000  O
  O13      1.0000 0.41157  0.97130  0.95574  Biso   1.000  O
  O14      1.0000 0.02870  0.44028  0.95574  Biso   1.000  O
  O15      1.0000 0.55972  0.58843  0.95574  Biso   1.000  O
  O16      1.0000 0.63796  0.74491  0.37760  Biso   1.000  O
  O17      1.0000 0.25509  0.89306  0.37760  Biso   1.000  O
  O18      1.0000 0.10694  0.36204  0.37760  Biso   1.000  O
  O19      1.0000 0.92176  0.69537  0.71093  Biso   1.000  O
  O20      1.0000 0.30463  0.22639  0.71093  Biso   1.000  O
  O21      1.0000 0.77361  0.07824  0.71093  Biso   1.000  O
  O22      1.0000 0.69537  0.92176  0.28907  Biso   1.000  O
  O23      1.0000 0.07824  0.77361  0.28907  Biso   1.000  O
  O24      1.0000 0.22639  0.30463  0.28907  Biso   1.000  O
  O25      1.0000 0.58843  0.02870  0.04426  Biso   1.000  O
  O26      1.0000 0.97130  0.55972  0.04426  Biso   1.000  O
  O27      1.0000 0.44028  0.41157  0.04426  Biso   1.000  O
  O28      1.0000 0.36204  0.25509  0.62240  Biso   1.000  O
  O29      1.0000 0.74491  0.10694  0.62240  Biso   1.000  O
  O30      1.0000 0.89306  0.63796  0.62240  Biso   1.000  O
  O31      1.0000 0.25509  0.36204  0.37760  Biso   1.000  O
  O32      1.0000 0.63796  0.89306  0.37760  Biso   1.000  O
  O33      1.0000 0.10694  0.74491  0.37760  Biso   1.000  O
  O34      1.0000 0.02870  0.58843  0.95574  Biso   1.000  O
  O35      1.0000 0.41157  0.44028  0.95574  Biso   1.000  O
  O36      1.0000 0.55972  0.97130  0.95574  Biso   1.000  O
  O37      1.0000 0.03781  0.22275  0.33595  Biso   1.000  O
  O38      1.0000 0.77725  0.81506  0.33595  Biso   1.000  O
  O39      1.0000 0.18494  0.96219  0.33595  Biso   1.000  O
  O40      1.0000 0.22275  0.03781  0.66405  Biso   1.000  O
  O41      1.0000 0.96219  0.18494  0.66405  Biso   1.000  O
  O42      1.0000 0.81506  0.77725  0.66405  Biso   1.000  O
  O43      1.0000 0.70448  0.55608  0.66928  Biso   1.000  O
  O44      1.0000 0.44392  0.14839  0.66928  Biso   1.000  O
  O45      1.0000 0.85161  0.29552  0.66928  Biso   1.000  O
  O46      1.0000 0.88942  0.37114  0.99738  Biso   1.000  O
  O47      1.0000 0.62886  0.51827  0.99738  Biso   1.000  O
  O48      1.0000 0.48173  0.11058  0.99738  Biso   1.000  O
  O49      1.0000 0.37114  0.88942  0.00262  Biso   1.000  O
  O50      1.0000 0.11058  0.48173  0.00262  Biso   1.000  O
  O51      1.0000 0.51827  0.62886  0.00262  Biso   1.000  O
  O52      1.0000 0.55608  0.70448  0.33072  Biso   1.000  O
  O53      1.0000 0.29552  0.85161  0.33072  Biso   1.000  O
  O54      1.0000 0.14839  0.44392  0.33072  Biso   1.000  O
  O55      1.0000 0.96219  0.77725  0.66405  Biso   1.000  O
  O56      1.0000 0.22275  0.18494  0.66405  Biso   1.000  O
  O57      1.0000 0.81506  0.03781  0.66405  Biso   1.000  O
  O58      1.0000 0.77725  0.96219  0.33595  Biso   1.000  O
  O59      1.0000 0.03781  0.81506  0.33595  Biso   1.000  O
  O60      1.0000 0.18494  0.22275  0.33595  Biso   1.000  O
  O61      1.0000 0.62886  0.11058  0.99738  Biso   1.000  O
  O62      1.0000 0.88942  0.51827  0.99738  Biso   1.000  O
  O63      1.0000 0.48173  0.37114  0.99738  Biso   1.000  O
  O64      1.0000 0.44392  0.29552  0.66928  Biso   1.000  O
  O65      1.0000 0.70448  0.14839  0.66928  Biso   1.000  O
  O66      1.0000 0.85161  0.55608  0.66928  Biso   1.000  O
  O67      1.0000 0.29552  0.44392  0.33072  Biso   1.000  O
  O68      1.0000 0.55608  0.85161  0.33072  Biso   1.000  O
  O69      1.0000 0.14839  0.70448  0.33072  Biso   1.000  O
  O70      1.0000 0.11058  0.62886  0.00262  Biso   1.000  O
  O71      1.0000 0.37114  0.48173  0.00262  Biso   1.000  O
  O72      1.0000 0.51827  0.88942  0.00262  Biso   1.000  O
  O73      1.0000 0.22783  0.45565  0.26017  Biso   1.000  O
  O74      1.0000 0.54435  0.77218  0.26017  Biso   1.000  O
  O75      1.0000 0.22782  0.77217  0.26017  Biso   1.000  O
  O76      1.0000 0.45565  0.22783  0.73983  Biso   1.000  O
  O77      1.0000 0.77217  0.22782  0.73983  Biso   1.000  O
  O78      1.0000 0.77218  0.54435  0.73983  Biso   1.000  O
  O79      1.0000 0.89450  0.78898  0.59350  Biso   1.000  O
  O80      1.0000 0.21102  0.10551  0.59350  Biso   1.000  O
  O81      1.0000 0.89449  0.10550  0.59350  Biso   1.000  O
  O82      1.0000 0.12232  0.56116  0.07316  Biso   1.000  O
  O83      1.0000 0.43884  0.56115  0.07316  Biso   1.000  O
  O84      1.0000 0.43885  0.87768  0.07316  Biso   1.000  O
  O85      1.0000 0.56116  0.12232  0.92684  Biso   1.000  O
  O86      1.0000 0.87768  0.43885  0.92684  Biso   1.000  O
  O87      1.0000 0.56115  0.43884  0.92684  Biso   1.000  O
  O88      1.0000 0.78898  0.89450  0.40650  Biso   1.000  O
  O89      1.0000 0.10550  0.89449  0.40650  Biso   1.000  O
  O90      1.0000 0.10551  0.21102  0.40650  Biso   1.000  O
  F1       1.0000 0.82690  0.02270  0.18487  Biso   1.000  F
  F2       1.0000 0.97730  0.80420  0.18487  Biso   1.000  F
  F3       1.0000 0.19580  0.17310  0.18487  Biso   1.000  F
  F4       1.0000 0.02270  0.82690  0.81513  Biso   1.000  F
  F5       1.0000 0.17310  0.19580  0.81513  Biso   1.000  F
  F6       1.0000 0.80420  0.97730  0.81513  Biso   1.000  F
  F7       1.0000 0.49357  0.35603  0.51820  Biso   1.000  F
  F8       1.0000 0.64397  0.13753  0.51820  Biso   1.000  F
  F9       1.0000 0.86247  0.50643  0.51820  Biso   1.000  F
  F10      1.0000 0.68937  0.16023  0.14846  Biso   1.000  F
  F11      1.0000 0.83977  0.52913  0.14846  Biso   1.000  F
  F12      1.0000 0.47087  0.31063  0.14846  Biso   1.000  F
  F13      1.0000 0.16023  0.68937  0.85154  Biso   1.000  F
  F14      1.0000 0.31063  0.47087  0.85154  Biso   1.000  F
  F15      1.0000 0.52913  0.83977  0.85154  Biso   1.000  F
  F16      1.0000 0.35603  0.49357  0.48180  Biso   1.000  F
  F17      1.0000 0.50643  0.86247  0.48180  Biso   1.000  F
  F18      1.0000 0.13753  0.64397  0.48180  Biso   1.000  F
  F19      1.0000 0.17310  0.97730  0.81513  Biso   1.000  F
  F20      1.0000 0.02270  0.19580  0.81513  Biso   1.000  F
  F21      1.0000 0.80420  0.82690  0.81513  Biso   1.000  F
  F22      1.0000 0.97730  0.17310  0.18487  Biso   1.000  F
  F23      1.0000 0.82690  0.80420  0.18487  Biso   1.000  F
  F24      1.0000 0.19580  0.02270  0.18487  Biso   1.000  F
  F25      1.0000 0.83977  0.31063  0.14846  Biso   1.000  F
  F26      1.0000 0.68937  0.52913  0.14846  Biso   1.000  F
  F27      1.0000 0.47087  0.16023  0.14846  Biso   1.000  F
  F28      1.0000 0.64397  0.50643  0.51820  Biso   1.000  F
  F29      1.0000 0.49357  0.13753  0.51820  Biso   1.000  F
  F30      1.0000 0.86247  0.35603  0.51820  Biso   1.000  F
  F31      1.0000 0.50643  0.64397  0.48180  Biso   1.000  F
  F32      1.0000 0.35603  0.86247  0.48180  Biso   1.000  F
  F33      1.0000 0.13753  0.49357  0.48180  Biso   1.000  F
  F34      1.0000 0.31063  0.83977  0.85154  Biso   1.000  F
  F35      1.0000 0.16023  0.47087  0.85154  Biso   1.000  F
  F36      1.0000 0.52913  0.68937  0.85154  Biso   1.000  F
  F37      1.0000 0.86430  0.28680  0.21350  Biso   1.000  F
  F38      1.0000 0.71320  0.57750  0.21350  Biso   1.000  F
  F39      1.0000 0.42250  0.13570  0.21350  Biso   1.000  F
  F40      1.0000 0.28680  0.86430  0.78650  Biso   1.000  F
  F41      1.0000 0.13570  0.42250  0.78650  Biso   1.000  F
  F42      1.0000 0.57750  0.71320  0.78650  Biso   1.000  F
  F43      1.0000 0.53097  0.62013  0.54683  Biso   1.000  F
  F44      1.0000 0.37987  0.91083  0.54683  Biso   1.000  F
  F45      1.0000 0.08917  0.46903  0.54683  Biso   1.000  F
  F46      1.0000 0.95347  0.19763  0.11983  Biso   1.000  F
  F47      1.0000 0.80237  0.75583  0.11983  Biso   1.000  F
  F48      1.0000 0.24417  0.04653  0.11983  Biso   1.000  F
  F49      1.0000 0.19763  0.95347  0.88017  Biso   1.000  F
  F50      1.0000 0.04653  0.24417  0.88017  Biso   1.000  F
  F51      1.0000 0.75583  0.80237  0.88017  Biso   1.000  F
  F52      1.0000 0.62013  0.53097  0.45317  Biso   1.000  F
  F53      1.0000 0.46903  0.08917  0.45317  Biso   1.000  F
  F54      1.0000 0.91083  0.37987  0.45317  Biso   1.000  F
  F55      1.0000 0.13570  0.71320  0.78650  Biso   1.000  F
  F56      1.0000 0.28680  0.42250  0.78650  Biso   1.000  F
  F57      1.0000 0.57750  0.86430  0.78650  Biso   1.000  F
  F58      1.0000 0.71320  0.13570  0.21350  Biso   1.000  F
  F59      1.0000 0.86430  0.57750  0.21350  Biso   1.000  F
  F60      1.0000 0.42250  0.28680  0.21350  Biso   1.000  F
  F61      1.0000 0.80237  0.04653  0.11983  Biso   1.000  F
  F62      1.0000 0.95347  0.75583  0.11983  Biso   1.000  F
  F63      1.0000 0.24417  0.19763  0.11983  Biso   1.000  F
  F64      1.0000 0.37987  0.46903  0.54683  Biso   1.000  F
  F65      1.0000 0.53097  0.91083  0.54683  Biso   1.000  F
  F66      1.0000 0.08917  0.62013  0.54683  Biso   1.000  F
  F67      1.0000 0.46903  0.37987  0.45317  Biso   1.000  F
  F68      1.0000 0.62013  0.08917  0.45317  Biso   1.000  F
  F69      1.0000 0.91083  0.53097  0.45317  Biso   1.000  F
  F70      1.0000 0.04653  0.80237  0.88017  Biso   1.000  F
  F71      1.0000 0.19763  0.24417  0.88017  Biso   1.000  F
  F72      1.0000 0.75583  0.95347  0.88017  Biso   1.000  F
