data_image0
_cell_length_a       13.228
_cell_length_b       13.36
_cell_length_c       13.967
_cell_angle_alpha    90
_cell_angle_beta     108.437
_cell_angle_gamma    90

_symmetry_space_group_name_H-M    "P 1"
_symmetry_int_tables_number       1

loop_
  _symmetry_equiv_pos_as_xyz
  'x, y, z'

loop_
  _atom_site_label
  _atom_site_occupancy
  _atom_site_fract_x
  _atom_site_fract_y
  _atom_site_fract_z
  _atom_site_thermal_displace_type
  _atom_site_B_iso_or_equiv
  _atom_site_type_symbol
  Cu1      1.0000 0.25140  0.27400  0.77080  Biso   1.000  Cu
  Cu2      1.0000 0.24860  0.77400  0.72920  Biso   1.000  Cu
  Cu3      1.0000 0.74860  0.72600  0.22920  Biso   1.000  Cu
  Cu4      1.0000 0.75140  0.22600  0.27080  Biso   1.000  Cu
  Cu5      1.0000 0.00290  0.10840  0.01430  Biso   1.000  Cu
  Cu6      1.0000 0.49710  0.60840  0.48570  Biso   1.000  Cu
  Cu7      1.0000 0.99710  0.89160  0.98570  Biso   1.000  Cu
  Cu8      1.0000 0.50290  0.39160  0.51430  Biso   1.000  Cu
  Cl1      1.0000 0.40650  0.18940  0.83300  Biso   1.000  Cl
  Cl2      1.0000 0.09350  0.68940  0.66700  Biso   1.000  Cl
  Cl3      1.0000 0.59350  0.81060  0.16700  Biso   1.000  Cl
  Cl4      1.0000 0.90650  0.31060  0.33300  Biso   1.000  Cl
  Cl5      1.0000 0.95160  0.26980  0.98700  Biso   1.000  Cl
  Cl6      1.0000 0.54840  0.76980  0.51300  Biso   1.000  Cl
  Cl7      1.0000 0.04840  0.73020  0.01300  Biso   1.000  Cl
  Cl8      1.0000 0.45160  0.23020  0.48700  Biso   1.000  Cl
  Cl9      1.0000 0.14040  0.01130  0.12170  Biso   1.000  Cl
  Cl10     1.0000 0.35960  0.51130  0.37830  Biso   1.000  Cl
  Cl11     1.0000 0.85960  0.98870  0.87830  Biso   1.000  Cl
  Cl12     1.0000 0.64040  0.48870  0.62170  Biso   1.000  Cl
  O1       1.0000 0.11730  0.35440  0.74010  Biso   1.000  O
  O2       1.0000 0.38270  0.85440  0.75990  Biso   1.000  O
  O3       1.0000 0.88270  0.64560  0.25990  Biso   1.000  O
  O4       1.0000 0.61730  0.14560  0.24010  Biso   1.000  O
  O5       1.0000 0.17590  0.21530  0.58350  Biso   1.000  O
  O6       1.0000 0.32410  0.71530  0.91650  Biso   1.000  O
  O7       1.0000 0.82410  0.78470  0.41650  Biso   1.000  O
  O8       1.0000 0.67590  0.28470  0.08350  Biso   1.000  O
  O9       1.0000 0.27370  0.35610  0.93390  Biso   1.000  O
  O10      1.0000 0.22630  0.85610  0.56610  Biso   1.000  O
  O11      1.0000 0.72630  0.64390  0.06610  Biso   1.000  O
  O12      1.0000 0.77370  0.14390  0.43390  Biso   1.000  O
  N1       1.0000 0.96850  0.43790  0.65440  Biso   1.000  N
  N2       1.0000 0.53150  0.93790  0.84560  Biso   1.000  N
  N3       1.0000 0.03150  0.56210  0.34560  Biso   1.000  N
  N4       1.0000 0.46850  0.06210  0.15440  Biso   1.000  N
  N5       1.0000 0.14430  0.17760  0.41730  Biso   1.000  N
  N6       1.0000 0.35570  0.67760  0.08270  Biso   1.000  N
  N7       1.0000 0.85570  0.82240  0.58270  Biso   1.000  N
  N8       1.0000 0.64430  0.32240  0.91730  Biso   1.000  N
  N9       1.0000 0.16980  0.16290  0.81010  Biso   1.000  N
  N10      1.0000 0.33020  0.66290  0.68990  Biso   1.000  N
  N11      1.0000 0.83020  0.83710  0.18990  Biso   1.000  N
  N12      1.0000 0.66980  0.33710  0.31010  Biso   1.000  N
  N13      1.0000 0.30440  0.34500  0.10080  Biso   1.000  N
  N14      1.0000 0.19560  0.84500  0.39920  Biso   1.000  N
  N15      1.0000 0.69560  0.65500  0.89920  Biso   1.000  N
  N16      1.0000 0.80440  0.15500  0.60080  Biso   1.000  N
  C1       1.0000 0.05190  0.38160  0.65910  Biso   1.000  C
  C2       1.0000 0.44810  0.88160  0.84090  Biso   1.000  C
  C3       1.0000 0.94810  0.61840  0.34090  Biso   1.000  C
  C4       1.0000 0.55190  0.11840  0.15910  Biso   1.000  C
  H1       1.0000 0.06220  0.36150  0.59910  Biso   1.000  H
  H2       1.0000 0.43780  0.86150  0.90090  Biso   1.000  H
  H3       1.0000 0.93780  0.63850  0.40090  Biso   1.000  H
  H4       1.0000 0.56220  0.13850  0.09910  Biso   1.000  H
  C5       1.0000 0.95090  0.47430  0.74600  Biso   1.000  C
  C6       1.0000 0.54910  0.97430  0.75400  Biso   1.000  C
  C7       1.0000 0.04910  0.52570  0.25400  Biso   1.000  C
  C8       1.0000 0.45090  0.02570  0.24600  Biso   1.000  C
  H5       1.0000 0.87630  0.48670  0.73310  Biso   1.000  H
  H6       1.0000 0.62370  0.98670  0.76690  Biso   1.000  H
  H7       1.0000 0.12370  0.51330  0.26690  Biso   1.000  H
  H8       1.0000 0.37630  0.01330  0.23310  Biso   1.000  H
  H9       1.0000 0.99010  0.53520  0.76710  Biso   1.000  H
  H10      1.0000 0.50990  0.03520  0.73290  Biso   1.000  H
  H11      1.0000 0.00990  0.46480  0.23290  Biso   1.000  H
  H12      1.0000 0.49010  0.96480  0.26710  Biso   1.000  H
  H13      1.0000 0.97480  0.42490  0.79820  Biso   1.000  H
  H14      1.0000 0.52520  0.92490  0.70180  Biso   1.000  H
  H15      1.0000 0.02520  0.57510  0.20180  Biso   1.000  H
  H16      1.0000 0.47480  0.07510  0.29820  Biso   1.000  H
  C9       1.0000 0.89330  0.46920  0.55840  Biso   1.000  C
  C10      1.0000 0.60670  0.96920  0.94160  Biso   1.000  C
  C11      1.0000 0.10670  0.53080  0.44160  Biso   1.000  C
  C12      1.0000 0.39330  0.03080  0.05840  Biso   1.000  C
  H17      1.0000 0.89170  0.54090  0.55470  Biso   1.000  H
  H18      1.0000 0.60830  0.04090  0.94530  Biso   1.000  H
  H19      1.0000 0.10830  0.45910  0.44530  Biso   1.000  H
  H20      1.0000 0.39170  0.95910  0.05470  Biso   1.000  H
  H21      1.0000 0.82350  0.44460  0.55310  Biso   1.000  H
  H22      1.0000 0.67650  0.94460  0.94690  Biso   1.000  H
  H23      1.0000 0.17650  0.55540  0.44690  Biso   1.000  H
  H24      1.0000 0.32350  0.05540  0.05310  Biso   1.000  H
  H25      1.0000 0.91500  0.44260  0.50410  Biso   1.000  H
  H26      1.0000 0.58500  0.94260  0.99590  Biso   1.000  H
  H27      1.0000 0.08500  0.55740  0.49590  Biso   1.000  H
  H28      1.0000 0.41500  0.05740  0.00410  Biso   1.000  H
  C13      1.0000 0.18590  0.23020  0.50040  Biso   1.000  C
  C14      1.0000 0.31410  0.73020  0.99960  Biso   1.000  C
  C15      1.0000 0.81410  0.76980  0.49960  Biso   1.000  C
  C16      1.0000 0.68590  0.26980  0.00040  Biso   1.000  C
  H29      1.0000 0.22760  0.28480  0.49540  Biso   1.000  H
  H30      1.0000 0.27240  0.78480  0.00460  Biso   1.000  H
  H31      1.0000 0.77240  0.71520  0.50460  Biso   1.000  H
  H32      1.0000 0.72760  0.21520  0.99540  Biso   1.000  H
  C17      1.0000 0.07680  0.09370  0.41850  Biso   1.000  C
  C18      1.0000 0.42320  0.59370  0.08150  Biso   1.000  C
  C19      1.0000 0.92320  0.90630  0.58150  Biso   1.000  C
  C20      1.0000 0.57680  0.40630  0.91850  Biso   1.000  C
  H33      1.0000 0.00670  0.11720  0.41340  Biso   1.000  H
  H34      1.0000 0.49330  0.61720  0.08660  Biso   1.000  H
  H35      1.0000 0.99330  0.88280  0.58660  Biso   1.000  H
  H36      1.0000 0.50670  0.38280  0.91340  Biso   1.000  H
  H37      1.0000 0.07280  0.05060  0.36240  Biso   1.000  H
  H38      1.0000 0.42720  0.55060  0.13760  Biso   1.000  H
  H39      1.0000 0.92720  0.94940  0.63760  Biso   1.000  H
  H40      1.0000 0.57280  0.44940  0.86240  Biso   1.000  H
  H41      1.0000 0.10580  0.05730  0.48040  Biso   1.000  H
  H42      1.0000 0.39420  0.55730  0.01960  Biso   1.000  H
  H43      1.0000 0.89420  0.94270  0.51960  Biso   1.000  H
  H44      1.0000 0.60580  0.44270  0.98040  Biso   1.000  H
  C21      1.0000 0.15850  0.20710  0.32300  Biso   1.000  C
  C22      1.0000 0.34150  0.70710  0.17700  Biso   1.000  C
  C23      1.0000 0.84150  0.79290  0.67700  Biso   1.000  C
  C24      1.0000 0.65850  0.29290  0.82300  Biso   1.000  C
  H45      1.0000 0.21130  0.25900  0.33520  Biso   1.000  H
  H46      1.0000 0.28870  0.75900  0.16480  Biso   1.000  H
  H47      1.0000 0.78870  0.74100  0.66480  Biso   1.000  H
  H48      1.0000 0.71130  0.24100  0.83520  Biso   1.000  H
  H49      1.0000 0.18160  0.15050  0.29310  Biso   1.000  H
  H50      1.0000 0.31840  0.65050  0.20690  Biso   1.000  H
  H51      1.0000 0.81840  0.84950  0.70690  Biso   1.000  H
  H52      1.0000 0.68160  0.34950  0.79310  Biso   1.000  H
  H53      1.0000 0.09220  0.23150  0.27810  Biso   1.000  H
  H54      1.0000 0.40780  0.73150  0.22190  Biso   1.000  H
  H55      1.0000 0.90780  0.76850  0.72190  Biso   1.000  H
  H56      1.0000 0.59220  0.26850  0.77810  Biso   1.000  H
  C25      1.0000 0.32370  0.32900  0.01700  Biso   1.000  C
  C26      1.0000 0.17630  0.82900  0.48300  Biso   1.000  C
  C27      1.0000 0.67630  0.67100  0.98300  Biso   1.000  C
  C28      1.0000 0.82370  0.17100  0.51700  Biso   1.000  C
  H57      1.0000 0.38440  0.29160  0.02200  Biso   1.000  H
  H58      1.0000 0.11560  0.79160  0.47800  Biso   1.000  H
  H59      1.0000 0.61560  0.70840  0.97800  Biso   1.000  H
  H60      1.0000 0.88440  0.20840  0.52200  Biso   1.000  H
  C29      1.0000 0.21130  0.40090  0.09780  Biso   1.000  C
  C30      1.0000 0.28870  0.90090  0.40220  Biso   1.000  C
  C31      1.0000 0.78870  0.59910  0.90220  Biso   1.000  C
  C32      1.0000 0.71130  0.09910  0.59780  Biso   1.000  C
  H61      1.0000 0.18650  0.43710  0.03530  Biso   1.000  H
  H62      1.0000 0.31350  0.93710  0.46470  Biso   1.000  H
  H63      1.0000 0.81350  0.56290  0.96470  Biso   1.000  H
  H64      1.0000 0.68650  0.06290  0.53530  Biso   1.000  H
  H65      1.0000 0.22830  0.44720  0.15320  Biso   1.000  H
  H66      1.0000 0.27170  0.94720  0.34680  Biso   1.000  H
  H67      1.0000 0.77170  0.55280  0.84680  Biso   1.000  H
  H68      1.0000 0.72830  0.05280  0.65320  Biso   1.000  H
  H69      1.0000 0.15660  0.35600  0.10290  Biso   1.000  H
  H70      1.0000 0.34340  0.85600  0.39710  Biso   1.000  H
  H71      1.0000 0.84340  0.64400  0.89710  Biso   1.000  H
  H72      1.0000 0.65660  0.14400  0.60290  Biso   1.000  H
  C33      1.0000 0.37360  0.30760  0.19540  Biso   1.000  C
  C34      1.0000 0.12640  0.80760  0.30460  Biso   1.000  C
  C35      1.0000 0.62640  0.69240  0.80460  Biso   1.000  C
  C36      1.0000 0.87360  0.19240  0.69540  Biso   1.000  C
  H73      1.0000 0.44200  0.29180  0.18890  Biso   1.000  H
  H74      1.0000 0.05800  0.79180  0.31110  Biso   1.000  H
  H75      1.0000 0.55800  0.70820  0.81110  Biso   1.000  H
  H76      1.0000 0.94200  0.20820  0.68890  Biso   1.000  H
  H77      1.0000 0.34310  0.24830  0.21380  Biso   1.000  H
  H78      1.0000 0.15690  0.74830  0.28620  Biso   1.000  H
  H79      1.0000 0.65690  0.75170  0.78620  Biso   1.000  H
  H80      1.0000 0.84310  0.25170  0.71380  Biso   1.000  H
  H81      1.0000 0.38200  0.35760  0.24670  Biso   1.000  H
  H82      1.0000 0.11800  0.85760  0.25330  Biso   1.000  H
  H83      1.0000 0.61800  0.64240  0.75330  Biso   1.000  H
  H84      1.0000 0.88200  0.14240  0.74670  Biso   1.000  H
  C37      1.0000 0.11520  0.19710  0.87790  Biso   1.000  C
  C38      1.0000 0.38480  0.69710  0.62210  Biso   1.000  C
  C39      1.0000 0.88480  0.80290  0.12210  Biso   1.000  C
  C40      1.0000 0.61520  0.30290  0.37790  Biso   1.000  C
  H85      1.0000 0.10620  0.26370  0.89280  Biso   1.000  H
  H86      1.0000 0.39380  0.76370  0.60720  Biso   1.000  H
  H87      1.0000 0.89380  0.73630  0.10720  Biso   1.000  H
  H88      1.0000 0.60620  0.23630  0.39280  Biso   1.000  H
  N17      1.0000 0.07700  0.11300  0.91870  Biso   1.000  N
  N18      1.0000 0.42300  0.61300  0.58130  Biso   1.000  N
  N19      1.0000 0.92300  0.88700  0.08130  Biso   1.000  N
  N20      1.0000 0.57700  0.38700  0.41870  Biso   1.000  N
  C41      1.0000 0.10600  0.03190  0.88040  Biso   1.000  C
  C42      1.0000 0.39400  0.53190  0.61960  Biso   1.000  C
  C43      1.0000 0.89400  0.96810  0.11960  Biso   1.000  C
  C44      1.0000 0.60600  0.46810  0.38040  Biso   1.000  C
  C45      1.0000 0.16110  0.05820  0.81430  Biso   1.000  C
  C46      1.0000 0.33890  0.55820  0.68570  Biso   1.000  C
  C47      1.0000 0.83890  0.94180  0.18570  Biso   1.000  C
  C48      1.0000 0.66110  0.44180  0.31430  Biso   1.000  C
  C49      1.0000 0.19850  0.98420  0.76410  Biso   1.000  C
  C50      1.0000 0.30150  0.48420  0.73590  Biso   1.000  C
  C51      1.0000 0.80150  0.01580  0.23590  Biso   1.000  C
  C52      1.0000 0.69850  0.51580  0.26410  Biso   1.000  C
  N21      1.0000 0.18080  0.88390  0.78000  Biso   1.000  N
  N22      1.0000 0.31920  0.38390  0.72000  Biso   1.000  N
  N23      1.0000 0.81920  0.11610  0.22000  Biso   1.000  N
  N24      1.0000 0.68080  0.61610  0.28000  Biso   1.000  N
  C53      1.0000 0.12570  0.85760  0.84610  Biso   1.000  C
  C54      1.0000 0.37430  0.35760  0.65390  Biso   1.000  C
  C55      1.0000 0.87430  0.14240  0.15390  Biso   1.000  C
  C56      1.0000 0.62570  0.64240  0.34610  Biso   1.000  C
  H89      1.0000 0.11380  0.79050  0.85670  Biso   1.000  H
  H90      1.0000 0.38620  0.29050  0.64330  Biso   1.000  H
  H91      1.0000 0.88620  0.20950  0.14330  Biso   1.000  H
  H92      1.0000 0.61380  0.70950  0.35670  Biso   1.000  H
  N25      1.0000 0.08830  0.93160  0.89630  Biso   1.000  N
  N26      1.0000 0.41170  0.43160  0.60370  Biso   1.000  N
  N27      1.0000 0.91170  0.06840  0.10370  Biso   1.000  N
  N28      1.0000 0.58830  0.56840  0.39630  Biso   1.000  N
  N29      1.0000 0.23940  0.02590  0.68700  Biso   1.000  N
  N30      1.0000 0.26060  0.52590  0.81300  Biso   1.000  N
  N31      1.0000 0.76060  0.97410  0.31300  Biso   1.000  N
  N32      1.0000 0.73940  0.47410  0.18700  Biso   1.000  N
  H93      1.0000 0.25550  0.98680  0.64500  Biso   1.000  H
  H94      1.0000 0.24450  0.48680  0.85500  Biso   1.000  H
  H95      1.0000 0.74450  0.01320  0.35500  Biso   1.000  H
  H96      1.0000 0.75550  0.51320  0.14500  Biso   1.000  H
  H97      1.0000 0.24750  0.08950  0.68350  Biso   1.000  H
  H98      1.0000 0.25250  0.58950  0.81650  Biso   1.000  H
  H99      1.0000 0.75250  0.91050  0.31650  Biso   1.000  H
  H100     1.0000 0.74750  0.41050  0.18350  Biso   1.000  H
