data_image0
_cell_length_a       9.8142
_cell_length_b       12.5932
_cell_length_c       13.8176
_cell_angle_alpha    65.145
_cell_angle_beta     88.252
_cell_angle_gamma    72.345

_symmetry_space_group_name_H-M    "P 1"
_symmetry_int_tables_number       1

loop_
  _symmetry_equiv_pos_as_xyz
  'x, y, z'

loop_
  _atom_site_label
  _atom_site_occupancy
  _atom_site_fract_x
  _atom_site_fract_y
  _atom_site_fract_z
  _atom_site_thermal_displace_type
  _atom_site_B_iso_or_equiv
  _atom_site_type_symbol
  Cu1      1.0000 0.23060  0.66037  0.51758  Biso   1.000  Cu
  Cu2      1.0000 0.76940  0.33963  0.48242  Biso   1.000  Cu
  Cu3      1.0000 0.80929  0.81210  0.97885  Biso   1.000  Cu
  Cu4      1.0000 0.19071  0.18790  0.02115  Biso   1.000  Cu
  N1       1.0000 0.37969  0.73759  0.44617  Biso   1.000  N
  N2       1.0000 0.62031  0.26241  0.55383  Biso   1.000  N
  N3       1.0000 0.08662  0.57959  0.58923  Biso   1.000  N
  N4       1.0000 0.91338  0.42041  0.41077  Biso   1.000  N
  N5       1.0000 0.48210  0.71693  0.60843  Biso   1.000  N
  N6       1.0000 0.51790  0.28307  0.39157  Biso   1.000  N
  N7       1.0000 0.08571  0.77213  0.38859  Biso   1.000  N
  N8       1.0000 0.91429  0.22787  0.61141  Biso   1.000  N
  N9       1.0000 0.72045  0.49239  0.00995  Biso   1.000  N
  N10      1.0000 0.27955  0.50761  0.99005  Biso   1.000  N
  N11      1.0000 0.68186  0.80649  0.69019  Biso   1.000  N
  N12      1.0000 0.31814  0.19351  0.30981  Biso   1.000  N
  N13      1.0000 0.79525  0.83179  0.82580  Biso   1.000  N
  N14      1.0000 0.20475  0.16821  0.17420  Biso   1.000  N
  N15      1.0000 0.79839  0.98553  0.93150  Biso   1.000  N
  N16      1.0000 0.20161  0.01447  0.06850  Biso   1.000  N
  N17      1.0000 0.37620  0.55964  0.64836  Biso   1.000  N
  N18      1.0000 0.62380  0.44036  0.35164  Biso   1.000  N
  N19      1.0000 0.82372  0.63545  0.02238  Biso   1.000  N
  N20      1.0000 0.17628  0.36455  0.97762  Biso   1.000  N
  N21      1.0000 0.54365  0.84204  0.45108  Biso   1.000  N
  N22      1.0000 0.45635  0.15796  0.54892  Biso   1.000  N
  N23      1.0000 0.80837  0.78657  0.13261  Biso   1.000  N
  N24      1.0000 0.19163  0.21343  0.86739  Biso   1.000  N
  N25      1.0000 0.68037  0.67979  0.86697  Biso   1.000  N
  N26      1.0000 0.31963  0.32021  0.13303  Biso   1.000  N
  C1       1.0000 0.72156  0.77636  0.79285  Biso   1.000  C
  C2       1.0000 0.27844  0.22364  0.20715  Biso   1.000  C
  N27      1.0000 0.53622  0.55764  0.77679  Biso   1.000  N
  N28      1.0000 0.46378  0.44236  0.22321  Biso   1.000  N
  C3       1.0000 0.38356  0.77815  0.33909  Biso   1.000  C
  C4       1.0000 0.61644  0.22185  0.66091  Biso   1.000  C
  H1       1.0000 0.32872  0.75653  0.30114  Biso   1.000  H
  H2       1.0000 0.67128  0.24347  0.69886  Biso   1.000  H
  N29      1.0000 0.81531  0.19123  0.88516  Biso   1.000  N
  N30      1.0000 0.18469  0.80877  0.11484  Biso   1.000  N
  C5       1.0000 0.73006  0.89152  0.61508  Biso   1.000  C
  C6       1.0000 0.26994  0.10848  0.38492  Biso   1.000  C
  H3       1.0000 0.70349  0.91520  0.54312  Biso   1.000  H
  H4       1.0000 0.29651  0.08480  0.45688  Biso   1.000  H
  N31      1.0000 0.93748  0.24644  0.00067  Biso   1.000  N
  N32      1.0000 0.06252  0.75356  0.99933  Biso   1.000  N
  C7       1.0000 0.81876  0.94572  0.64118  Biso   1.000  C
  C8       1.0000 0.18124  0.05428  0.35882  Biso   1.000  C
  H5       1.0000 0.85742  0.00034  0.58872  Biso   1.000  H
  H6       1.0000 0.14258  0.99966  0.41128  Biso   1.000  H
  N33      1.0000 0.69366  0.49240  0.55985  Biso   1.000  N
  N34      1.0000 0.30634  0.50760  0.44015  Biso   1.000  N
  C9       1.0000 0.46664  0.76605  0.49808  Biso   1.000  C
  C10      1.0000 0.53336  0.23395  0.50192  Biso   1.000  C
  C11      1.0000 0.46270  0.60759  0.67877  Biso   1.000  C
  C12      1.0000 0.53730  0.39241  0.32123  Biso   1.000  C
  C13      1.0000 0.37921  0.44438  0.71820  Biso   1.000  C
  C14      1.0000 0.62079  0.55562  0.28180  Biso   1.000  C
  H7       1.0000 0.32456  0.40620  0.69874  Biso   1.000  H
  H8       1.0000 0.67544  0.59380  0.30126  Biso   1.000  H
  C15      1.0000 0.98804  0.54823  0.61632  Biso   1.000  C
  C16      1.0000 0.01196  0.45177  0.38368  Biso   1.000  C
  C17      1.0000 0.87931  0.21653  0.94974  Biso   1.000  C
  C18      1.0000 0.12069  0.78347  0.05026  Biso   1.000  C
  C19      1.0000 0.84089  0.80067  0.20415  Biso   1.000  C
  C20      1.0000 0.15911  0.19933  0.79585  Biso   1.000  C
  C21      1.0000 0.90045  0.54602  0.11667  Biso   1.000  C
  C22      1.0000 0.09955  0.45398  0.88333  Biso   1.000  C
  H9       1.0000 0.96109  0.56454  0.15320  Biso   1.000  H
  H10      1.0000 0.03891  0.43546  0.84680  Biso   1.000  H
  C23      1.0000 0.45951  0.38229  0.81607  Biso   1.000  C
  C24      1.0000 0.54049  0.61771  0.18393  Biso   1.000  C
  H11      1.0000 0.46474  0.30158  0.86170  Biso   1.000  H
  H12      1.0000 0.53526  0.69842  0.13830  Biso   1.000  H
  C25      1.0000 0.84633  0.91449  0.74833  Biso   1.000  C
  C26      1.0000 0.15367  0.08551  0.25167  Biso   1.000  C
  H13      1.0000 0.90210  0.95154  0.76823  Biso   1.000  H
  H14      1.0000 0.09790  0.04846  0.23177  Biso   1.000  H
  N35      1.0000 0.85890  0.81978  0.28755  Biso   1.000  N
  N36      1.0000 0.14110  0.18022  0.71245  Biso   1.000  N
  C27      1.0000 0.80903  0.07965  0.91547  Biso   1.000  C
  C28      1.0000 0.19097  0.92035  0.08453  Biso   1.000  C
  C29      1.0000 0.53346  0.44576  0.84440  Biso   1.000  C
  C30      1.0000 0.46654  0.55424  0.15560  Biso   1.000  C
  H15      1.0000 0.58249  0.40859  0.91288  Biso   1.000  H
  H16      1.0000 0.41751  0.59141  0.08712  Biso   1.000  H
  N37      1.0000 0.88310  0.50956  0.65984  Biso   1.000  N
  N38      1.0000 0.11690  0.49044  0.34016  Biso   1.000  N
  C31      1.0000 0.79319  0.40780  0.10435  Biso   1.000  C
  C32      1.0000 0.20681  0.59220  0.89565  Biso   1.000  C
  H17      1.0000 0.77817  0.33147  0.13471  Biso   1.000  H
  H18      1.0000 0.22183  0.66853  0.86529  Biso   1.000  H
  C33      1.0000 0.98311  0.79189  0.33760  Biso   1.000  C
  C34      1.0000 0.01689  0.20811  0.66240  Biso   1.000  C
  C35      1.0000 0.46613  0.85036  0.28471  Biso   1.000  C
  C36      1.0000 0.53387  0.14964  0.71529  Biso   1.000  C
  H19      1.0000 0.47170  0.87531  0.21150  Biso   1.000  H
  H20      1.0000 0.52830  0.12469  0.78850  Biso   1.000  H
  C37      1.0000 0.78550  0.50284  0.60289  Biso   1.000  C
  C38      1.0000 0.21450  0.49716  0.39711  Biso   1.000  C
  C39      1.0000 0.74481  0.60124  0.97060  Biso   1.000  C
  C40      1.0000 0.25519  0.39876  0.02940  Biso   1.000  C
  C41      1.0000 0.89051  0.42890  0.15927  Biso   1.000  C
  C42      1.0000 0.10949  0.57110  0.84073  Biso   1.000  C
  H21      1.0000 0.94641  0.36658  0.22205  Biso   1.000  H
  H22      1.0000 0.05359  0.63342  0.77795  Biso   1.000  H
  C43      1.0000 0.54096  0.88431  0.34450  Biso   1.000  C
  C44      1.0000 0.45904  0.11569  0.65550  Biso   1.000  C
  H23      1.0000 0.59137  0.93878  0.30887  Biso   1.000  H
  H24      1.0000 0.40863  0.06122  0.69113  Biso   1.000  H
  N39      1.0000 0.54169  0.88664  0.96740  Biso   1.000  N
  N40      1.0000 0.45831  0.11336  0.03260  Biso   1.000  N
  C45      1.0000 0.43705  0.88648  0.92593  Biso   1.000  C
  C46      1.0000 0.56295  0.11352  0.07407  Biso   1.000  C
  N41      1.0000 0.35134  0.86197  0.84038  Biso   1.000  N
  N42      1.0000 0.64866  0.13803  0.15962  Biso   1.000  N
  C47      1.0000 0.28414  0.87928  0.80506  Biso   1.000  C
  C48      1.0000 0.71586  0.12072  0.19494  Biso   1.000  C
  N43      1.0000 0.17577  0.92979  0.68718  Biso   1.000  N
  N44      1.0000 0.82423  0.07021  0.31282  Biso   1.000  N
  O1       1.0000 0.14774  0.81263  0.58761  Biso   1.000  O
  O2       1.0000 0.85226  0.18737  0.41239  Biso   1.000  O
  C49      1.0000 0.16883  0.85940  0.64051  Biso   1.000  C
  C50      1.0000 0.83117  0.14060  0.35949  Biso   1.000  C
  N45      1.0000 0.25137  0.88112  0.72829  Biso   1.000  N
  N46      1.0000 0.74863  0.11888  0.27171  Biso   1.000  N
  C51      1.0000 0.27183  0.89037  0.76989  Biso   1.000  C
  C52      1.0000 0.72817  0.10963  0.23011  Biso   1.000  C
  N47      1.0000 0.32156  0.87063  0.89481  Biso   1.000  N
  N48      1.0000 0.67844  0.12937  0.10519  Biso   1.000  N
