data_image0
_cell_length_a       8.434
_cell_length_b       7.23
_cell_length_c       8.309
_cell_angle_alpha    90
_cell_angle_beta     112.209
_cell_angle_gamma    90

_symmetry_space_group_name_H-M    "P 1"
_symmetry_int_tables_number       1

loop_
  _symmetry_equiv_pos_as_xyz
  'x, y, z'

loop_
  _atom_site_label
  _atom_site_occupancy
  _atom_site_fract_x
  _atom_site_fract_y
  _atom_site_fract_z
  _atom_site_thermal_displace_type
  _atom_site_B_iso_or_equiv
  _atom_site_type_symbol
  Cu1      1.0000 0.50000  0.26450  0.75000  Biso   1.000  Cu
  Cu2      1.0000 0.50000  0.73550  0.25000  Biso   1.000  Cu
  O1       1.0000 0.63880  0.25800  0.00070  Biso   1.000  O
  O2       1.0000 0.36120  0.25800  0.49930  Biso   1.000  O
  O3       1.0000 0.36120  0.74200  0.99930  Biso   1.000  O
  O4       1.0000 0.63880  0.74200  0.50070  Biso   1.000  O
  O5       1.0000 0.86130  0.22700  0.92320  Biso   1.000  O
  O6       1.0000 0.13870  0.22700  0.57680  Biso   1.000  O
  O7       1.0000 0.13870  0.77300  0.07680  Biso   1.000  O
  O8       1.0000 0.86130  0.77300  0.42320  Biso   1.000  O
  O9       1.0000 0.50000  0.99510  0.75000  Biso   1.000  O
  O10      1.0000 0.50000  0.00490  0.25000  Biso   1.000  O
  H1       1.0000 0.43080  0.95140  0.79260  Biso   1.000  H
  H2       1.0000 0.56920  0.95140  0.70740  Biso   1.000  H
  H3       1.0000 0.56920  0.04860  0.20740  Biso   1.000  H
  H4       1.0000 0.43080  0.04860  0.29260  Biso   1.000  H
  N1       1.0000 0.50000  0.54900  0.75000  Biso   1.000  N
  N2       1.0000 0.50000  0.45100  0.25000  Biso   1.000  N
  C1       1.0000 0.79920  0.23980  0.03490  Biso   1.000  C
  C2       1.0000 0.20080  0.23980  0.46510  Biso   1.000  C
  C3       1.0000 0.20080  0.76020  0.96510  Biso   1.000  C
  C4       1.0000 0.79920  0.76020  0.53490  Biso   1.000  C
  C5       1.0000 0.90750  0.23560  0.22710  Biso   1.000  C
  C6       1.0000 0.09250  0.23560  0.27290  Biso   1.000  C
  C7       1.0000 0.09250  0.76440  0.77290  Biso   1.000  C
  C8       1.0000 0.90750  0.76440  0.72710  Biso   1.000  C
  H5       1.0000 0.87800  0.34230  0.28100  Biso   1.000  H
  H6       1.0000 0.12200  0.34230  0.21900  Biso   1.000  H
  H7       1.0000 0.12200  0.65770  0.71900  Biso   1.000  H
  H8       1.0000 0.87800  0.65770  0.78100  Biso   1.000  H
  H9       1.0000 0.87740  0.12610  0.27670  Biso   1.000  H
  H10      1.0000 0.12260  0.12610  0.22330  Biso   1.000  H
  H11      1.0000 0.12260  0.87390  0.72330  Biso   1.000  H
  H12      1.0000 0.87740  0.87390  0.77670  Biso   1.000  H
  O11      1.0000 0.78780  0.22200  0.56420  Biso   1.000  O
  O12      1.0000 0.21220  0.22200  0.93580  Biso   1.000  O
  O13      1.0000 0.21220  0.77800  0.43580  Biso   1.000  O
  O14      1.0000 0.78780  0.77800  0.06420  Biso   1.000  O
  H13      1.0000 0.80910  0.27760  0.66000  Biso   1.000  H
  H14      1.0000 0.19090  0.27760  0.84000  Biso   1.000  H
  H15      1.0000 0.19090  0.72240  0.34000  Biso   1.000  H
  H16      1.0000 0.80910  0.72240  0.16000  Biso   1.000  H
  H17      1.0000 0.88410  0.21500  0.55360  Biso   1.000  H
  H18      1.0000 0.11590  0.21500  0.94640  Biso   1.000  H
  H19      1.0000 0.11590  0.78500  0.44640  Biso   1.000  H
  H20      1.0000 0.88410  0.78500  0.05360  Biso   1.000  H
  H21      1.0000 0.56700  0.59010  0.85470  Biso   1.000  H
  H22      1.0000 0.43300  0.59010  0.64530  Biso   1.000  H
  H23      1.0000 0.43300  0.40990  0.14530  Biso   1.000  H
  H24      1.0000 0.56700  0.40990  0.35470  Biso   1.000  H
  H25      1.0000 0.39370  0.59010  0.72420  Biso   1.000  H
  H26      1.0000 0.60630  0.59010  0.77580  Biso   1.000  H
  H27      1.0000 0.60630  0.40990  0.27580  Biso   1.000  H
  H28      1.0000 0.39370  0.40990  0.22420  Biso   1.000  H
  H29      1.0000 0.53930  0.59010  0.67110  Biso   1.000  H
  H30      1.0000 0.46070  0.59010  0.82890  Biso   1.000  H
  H31      1.0000 0.46070  0.40990  0.32890  Biso   1.000  H
  H32      1.0000 0.53930  0.40990  0.17110  Biso   1.000  H
  H33      1.0000 0.40490  0.95280  0.67990  Biso   1.000  H
  H34      1.0000 0.59510  0.95280  0.82010  Biso   1.000  H
  H35      1.0000 0.59510  0.04720  0.32010  Biso   1.000  H
  H36      1.0000 0.40490  0.04720  0.17990  Biso   1.000  H
