data_image0
_cell_length_a       12.805
_cell_length_b       21.5075
_cell_length_c       10.2905
_cell_angle_alpha    90
_cell_angle_beta     105.406
_cell_angle_gamma    90

_symmetry_space_group_name_H-M    "P 1"
_symmetry_int_tables_number       1

loop_
  _symmetry_equiv_pos_as_xyz
  'x, y, z'

loop_
  _atom_site_label
  _atom_site_occupancy
  _atom_site_fract_x
  _atom_site_fract_y
  _atom_site_fract_z
  _atom_site_thermal_displace_type
  _atom_site_B_iso_or_equiv
  _atom_site_type_symbol
  Hg1      1.0000 0.57303  0.96783  0.37916  Biso   1.000  Hg
  Hg2      1.0000 0.42697  0.46783  0.12084  Biso   1.000  Hg
  Hg3      1.0000 0.42697  0.03217  0.62084  Biso   1.000  Hg
  Hg4      1.0000 0.57303  0.53217  0.87916  Biso   1.000  Hg
  Cu1      1.0000 0.93152  0.96338  0.37819  Biso   1.000  Cu
  Cu2      1.0000 0.06848  0.46338  0.12181  Biso   1.000  Cu
  Cu3      1.0000 0.06848  0.03662  0.62181  Biso   1.000  Cu
  Cu4      1.0000 0.93152  0.53662  0.87819  Biso   1.000  Cu
  O1       1.0000 0.02240  0.93750  0.55180  Biso   1.000  O
  O2       1.0000 0.97760  0.43750  0.94820  Biso   1.000  O
  O3       1.0000 0.97760  0.06250  0.44820  Biso   1.000  O
  O4       1.0000 0.02240  0.56250  0.05180  Biso   1.000  O
  O5       1.0000 0.80520  0.96340  0.44560  Biso   1.000  O
  O6       1.0000 0.19480  0.46340  0.05440  Biso   1.000  O
  O7       1.0000 0.19480  0.03660  0.55440  Biso   1.000  O
  O8       1.0000 0.80520  0.53660  0.94560  Biso   1.000  O
  O9       1.0000 0.70490  0.93640  0.58140  Biso   1.000  O
  O10      1.0000 0.29510  0.43640  0.91860  Biso   1.000  O
  O11      1.0000 0.29510  0.06360  0.41860  Biso   1.000  O
  O12      1.0000 0.70490  0.56360  0.08140  Biso   1.000  O
  O13      1.0000 0.60400  0.89410  0.26030  Biso   1.000  O
  O14      1.0000 0.39600  0.39410  0.23970  Biso   1.000  O
  O15      1.0000 0.39600  0.10590  0.73970  Biso   1.000  O
  O16      1.0000 0.60400  0.60590  0.76030  Biso   1.000  O
  O17      1.0000 0.43180  0.89340  0.18570  Biso   1.000  O
  O18      1.0000 0.56820  0.39340  0.31430  Biso   1.000  O
  O19      1.0000 0.56820  0.10660  0.81430  Biso   1.000  O
  O20      1.0000 0.43180  0.60660  0.68570  Biso   1.000  O
  O21      1.0000 0.54700  0.05490  0.45780  Biso   1.000  O
  O22      1.0000 0.45300  0.55490  0.04220  Biso   1.000  O
  O23      1.0000 0.45300  0.94510  0.54220  Biso   1.000  O
  O24      1.0000 0.54700  0.44510  0.95780  Biso   1.000  O
  O25      1.0000 0.52540  0.08000  0.24360  Biso   1.000  O
  O26      1.0000 0.47460  0.58000  0.25640  Biso   1.000  O
  O27      1.0000 0.47460  0.92000  0.75640  Biso   1.000  O
  O28      1.0000 0.52540  0.42000  0.74360  Biso   1.000  O
  N1       1.0000 0.84290  0.97390  0.18610  Biso   1.000  N
  N2       1.0000 0.15710  0.47390  0.31390  Biso   1.000  N
  N3       1.0000 0.15710  0.02610  0.81390  Biso   1.000  N
  N4       1.0000 0.84290  0.52610  0.68610  Biso   1.000  N
  N5       1.0000 0.04280  0.94080  0.28260  Biso   1.000  N
  N6       1.0000 0.95720  0.44080  0.21740  Biso   1.000  N
  N7       1.0000 0.95720  0.05920  0.71740  Biso   1.000  N
  N8       1.0000 0.04280  0.55920  0.78260  Biso   1.000  N
  C1       1.0000 0.74180  0.99580  0.14680  Biso   1.000  C
  C2       1.0000 0.25820  0.49580  0.35320  Biso   1.000  C
  C3       1.0000 0.25820  0.00420  0.85320  Biso   1.000  C
  C4       1.0000 0.74180  0.50420  0.64680  Biso   1.000  C
  H1       1.0000 0.71060  0.01400  0.21190  Biso   1.000  H
  H2       1.0000 0.28940  0.51400  0.28810  Biso   1.000  H
  H3       1.0000 0.28940  0.98600  0.78810  Biso   1.000  H
  H4       1.0000 0.71060  0.48600  0.71190  Biso   1.000  H
  C5       1.0000 0.68190  0.99260  0.01560  Biso   1.000  C
  C6       1.0000 0.31810  0.49260  0.48440  Biso   1.000  C
  C7       1.0000 0.31810  0.00740  0.98440  Biso   1.000  C
  C8       1.0000 0.68190  0.50740  0.51560  Biso   1.000  C
  H5       1.0000 0.60870  0.00620  0.99100  Biso   1.000  H
  H6       1.0000 0.39130  0.50620  0.50900  Biso   1.000  H
  H7       1.0000 0.39130  0.99380  0.00900  Biso   1.000  H
  H8       1.0000 0.60870  0.49380  0.49100  Biso   1.000  H
  C9       1.0000 0.72830  0.96960  0.91910  Biso   1.000  C
  C10      1.0000 0.27170  0.46960  0.58090  Biso   1.000  C
  C11      1.0000 0.27170  0.03040  0.08090  Biso   1.000  C
  C12      1.0000 0.72830  0.53040  0.41910  Biso   1.000  C
  H9       1.0000 0.68860  0.96840  0.82690  Biso   1.000  H
  H10      1.0000 0.31140  0.46840  0.67310  Biso   1.000  H
  H11      1.0000 0.31140  0.03160  0.17310  Biso   1.000  H
  H12      1.0000 0.68860  0.53160  0.32690  Biso   1.000  H
  C13      1.0000 0.83180  0.94860  0.95840  Biso   1.000  C
  C14      1.0000 0.16820  0.44860  0.54160  Biso   1.000  C
  C15      1.0000 0.16820  0.05140  0.04160  Biso   1.000  C
  C16      1.0000 0.83180  0.55140  0.45840  Biso   1.000  C
  H13      1.0000 0.86500  0.93200  0.89370  Biso   1.000  H
  H14      1.0000 0.13500  0.43200  0.60630  Biso   1.000  H
  H15      1.0000 0.13500  0.06800  0.10630  Biso   1.000  H
  H16      1.0000 0.86500  0.56800  0.39370  Biso   1.000  H
  C17      1.0000 0.88920  0.95160  0.09350  Biso   1.000  C
  C18      1.0000 0.11080  0.45160  0.40650  Biso   1.000  C
  C19      1.0000 0.11080  0.04840  0.90650  Biso   1.000  C
  C20      1.0000 0.88920  0.54840  0.59350  Biso   1.000  C
  C21      1.0000 0.00170  0.93210  0.14740  Biso   1.000  C
  C22      1.0000 0.99830  0.43210  0.35260  Biso   1.000  C
  C23      1.0000 0.99830  0.06790  0.85260  Biso   1.000  C
  C24      1.0000 0.00170  0.56790  0.64740  Biso   1.000  C
  C25      1.0000 0.06500  0.90530  0.07090  Biso   1.000  C
  C26      1.0000 0.93500  0.40530  0.42910  Biso   1.000  C
  C27      1.0000 0.93500  0.09470  0.92910  Biso   1.000  C
  C28      1.0000 0.06500  0.59470  0.57090  Biso   1.000  C
  H17      1.0000 0.03570  0.89830  0.97700  Biso   1.000  H
  H18      1.0000 0.96430  0.39830  0.52300  Biso   1.000  H
  H19      1.0000 0.96430  0.10170  0.02300  Biso   1.000  H
  H20      1.0000 0.03570  0.60170  0.47700  Biso   1.000  H
  C29      1.0000 0.17000  0.88910  0.13280  Biso   1.000  C
  C30      1.0000 0.83000  0.38910  0.36720  Biso   1.000  C
  C31      1.0000 0.83000  0.11090  0.86720  Biso   1.000  C
  C32      1.0000 0.17000  0.61090  0.63280  Biso   1.000  C
  H21      1.0000 0.21350  0.87040  0.08190  Biso   1.000  H
  H22      1.0000 0.78650  0.37040  0.41810  Biso   1.000  H
  H23      1.0000 0.78650  0.12960  0.91810  Biso   1.000  H
  H24      1.0000 0.21350  0.62960  0.58190  Biso   1.000  H
  C33      1.0000 0.21300  0.89990  0.26930  Biso   1.000  C
  C34      1.0000 0.78700  0.39990  0.23070  Biso   1.000  C
  C35      1.0000 0.78700  0.10010  0.73070  Biso   1.000  C
  C36      1.0000 0.21300  0.60010  0.76930  Biso   1.000  C
  H25      1.0000 0.28620  0.89020  0.31330  Biso   1.000  H
  H26      1.0000 0.71380  0.39020  0.18670  Biso   1.000  H
  H27      1.0000 0.71380  0.10980  0.68670  Biso   1.000  H
  H28      1.0000 0.28620  0.60980  0.81330  Biso   1.000  H
  C37      1.0000 0.14440  0.92540  0.33840  Biso   1.000  C
  C38      1.0000 0.85560  0.42540  0.16160  Biso   1.000  C
  C39      1.0000 0.85560  0.07460  0.66160  Biso   1.000  C
  C40      1.0000 0.14440  0.57460  0.83840  Biso   1.000  C
  H29      1.0000 0.17240  0.93220  0.43250  Biso   1.000  H
  H30      1.0000 0.82760  0.43220  0.06750  Biso   1.000  H
  H31      1.0000 0.82760  0.06780  0.56750  Biso   1.000  H
  H32      1.0000 0.17240  0.56780  0.93250  Biso   1.000  H
  C41      1.0000 0.79320  0.93330  0.54890  Biso   1.000  C
  C42      1.0000 0.20680  0.43330  0.95110  Biso   1.000  C
  C43      1.0000 0.20680  0.06670  0.45110  Biso   1.000  C
  C44      1.0000 0.79320  0.56670  0.04890  Biso   1.000  C
  C45      1.0000 0.87830  0.89270  0.62980  Biso   1.000  C
  C46      1.0000 0.12170  0.39270  0.87020  Biso   1.000  C
  C47      1.0000 0.12170  0.10730  0.37020  Biso   1.000  C
  C48      1.0000 0.87830  0.60730  0.12980  Biso   1.000  C
  C49      1.0000 0.98610  0.89550  0.62410  Biso   1.000  C
  C50      1.0000 0.01390  0.39550  0.87590  Biso   1.000  C
  C51      1.0000 0.01390  0.10450  0.37590  Biso   1.000  C
  C52      1.0000 0.98610  0.60450  0.12410  Biso   1.000  C
  C53      1.0000 0.06100  0.85090  0.70120  Biso   1.000  C
  C54      1.0000 0.93900  0.35090  0.79880  Biso   1.000  C
  C55      1.0000 0.93900  0.14910  0.29880  Biso   1.000  C
  C56      1.0000 0.06100  0.64910  0.20120  Biso   1.000  C
  C57      1.0000 0.02580  0.80720  0.77710  Biso   1.000  C
  C58      1.0000 0.97420  0.30720  0.72290  Biso   1.000  C
  C59      1.0000 0.97420  0.19280  0.22290  Biso   1.000  C
  C60      1.0000 0.02580  0.69280  0.27710  Biso   1.000  C
  H33      1.0000 0.07680  0.77840  0.82780  Biso   1.000  H
  H34      1.0000 0.92320  0.27840  0.67220  Biso   1.000  H
  H35      1.0000 0.92320  0.22160  0.17220  Biso   1.000  H
  H36      1.0000 0.07680  0.72160  0.32780  Biso   1.000  H
  C61      1.0000 0.91790  0.80320  0.78330  Biso   1.000  C
  C62      1.0000 0.08210  0.30320  0.71670  Biso   1.000  C
  C63      1.0000 0.08210  0.19680  0.21670  Biso   1.000  C
  C64      1.0000 0.91790  0.69680  0.28330  Biso   1.000  C
  C65      1.0000 0.84610  0.84590  0.70760  Biso   1.000  C
  C66      1.0000 0.15390  0.34590  0.79240  Biso   1.000  C
  C67      1.0000 0.15390  0.15410  0.29240  Biso   1.000  C
  C68      1.0000 0.84610  0.65410  0.20760  Biso   1.000  C
  H37      1.0000 0.77210  0.84360  0.70790  Biso   1.000  H
  H38      1.0000 0.22790  0.34360  0.79210  Biso   1.000  H
  H39      1.0000 0.22790  0.15640  0.29210  Biso   1.000  H
  H40      1.0000 0.77210  0.65640  0.20790  Biso   1.000  H
  C69      1.0000 0.17650  0.84940  0.68700  Biso   1.000  C
  C70      1.0000 0.82350  0.34940  0.81300  Biso   1.000  C
  C71      1.0000 0.82350  0.15060  0.31300  Biso   1.000  C
  C72      1.0000 0.17650  0.65060  0.18700  Biso   1.000  C
  H41      1.0000 0.19510  0.89190  0.66090  Biso   1.000  H
  H42      1.0000 0.80490  0.39190  0.83910  Biso   1.000  H
  H43      1.0000 0.80490  0.10810  0.33910  Biso   1.000  H
  H44      1.0000 0.19510  0.60810  0.16090  Biso   1.000  H
  C73      1.0000 0.26080  0.83060  0.81600  Biso   1.000  C
  C74      1.0000 0.73920  0.33060  0.68400  Biso   1.000  C
  C75      1.0000 0.73920  0.16940  0.18400  Biso   1.000  C
  C76      1.0000 0.26080  0.66940  0.31600  Biso   1.000  C
  H45      1.0000 0.24890  0.85430  0.89210  Biso   1.000  H
  H46      1.0000 0.75110  0.35430  0.60790  Biso   1.000  H
  H47      1.0000 0.75110  0.14570  0.10790  Biso   1.000  H
  H48      1.0000 0.24890  0.64570  0.39210  Biso   1.000  H
  H49      1.0000 0.33350  0.83940  0.80650  Biso   1.000  H
  H50      1.0000 0.66650  0.33940  0.69350  Biso   1.000  H
  H51      1.0000 0.66650  0.16060  0.19350  Biso   1.000  H
  H52      1.0000 0.33350  0.66060  0.30650  Biso   1.000  H
  H53      1.0000 0.25420  0.78600  0.83220  Biso   1.000  H
  H54      1.0000 0.74580  0.28600  0.66780  Biso   1.000  H
  H55      1.0000 0.74580  0.21400  0.16780  Biso   1.000  H
  H56      1.0000 0.25420  0.71400  0.33220  Biso   1.000  H
  C77      1.0000 0.18130  0.80410  0.57260  Biso   1.000  C
  C78      1.0000 0.81870  0.30410  0.92740  Biso   1.000  C
  C79      1.0000 0.81870  0.19590  0.42740  Biso   1.000  C
  C80      1.0000 0.18130  0.69590  0.07260  Biso   1.000  C
  H57      1.0000 0.16440  0.76190  0.59690  Biso   1.000  H
  H58      1.0000 0.83560  0.26190  0.90310  Biso   1.000  H
  H59      1.0000 0.83560  0.23810  0.40310  Biso   1.000  H
  H60      1.0000 0.16440  0.73810  0.09690  Biso   1.000  H
  H61      1.0000 0.25420  0.80470  0.55890  Biso   1.000  H
  H62      1.0000 0.74580  0.30470  0.94110  Biso   1.000  H
  H63      1.0000 0.74580  0.19530  0.44110  Biso   1.000  H
  H64      1.0000 0.25420  0.69530  0.05890  Biso   1.000  H
  H65      1.0000 0.12840  0.81680  0.48930  Biso   1.000  H
  H66      1.0000 0.87160  0.31680  0.01070  Biso   1.000  H
  H67      1.0000 0.87160  0.18320  0.51070  Biso   1.000  H
  H68      1.0000 0.12840  0.68320  0.98930  Biso   1.000  H
  C81      1.0000 0.88210  0.75330  0.86680  Biso   1.000  C
  C82      1.0000 0.11790  0.25330  0.63320  Biso   1.000  C
  C83      1.0000 0.11790  0.24670  0.13320  Biso   1.000  C
  C84      1.0000 0.88210  0.74670  0.36680  Biso   1.000  C
  H69      1.0000 0.93970  0.75000  0.95390  Biso   1.000  H
  H70      1.0000 0.06030  0.25000  0.54610  Biso   1.000  H
  H71      1.0000 0.06030  0.25000  0.04610  Biso   1.000  H
  H72      1.0000 0.93970  0.75000  0.45390  Biso   1.000  H
  C85      1.0000 0.87650  0.69050  0.79600  Biso   1.000  C
  C86      1.0000 0.12350  0.19050  0.70400  Biso   1.000  C
  C87      1.0000 0.12350  0.30950  0.20400  Biso   1.000  C
  C88      1.0000 0.87650  0.80950  0.29600  Biso   1.000  C
  H73      1.0000 0.81970  0.69170  0.71070  Biso   1.000  H
  H74      1.0000 0.18030  0.19170  0.78930  Biso   1.000  H
  H75      1.0000 0.18030  0.30830  0.28930  Biso   1.000  H
  H76      1.0000 0.81970  0.80830  0.21070  Biso   1.000  H
  H77      1.0000 0.85990  0.65790  0.85390  Biso   1.000  H
  H78      1.0000 0.14010  0.15790  0.64610  Biso   1.000  H
  H79      1.0000 0.14010  0.34210  0.14610  Biso   1.000  H
  H80      1.0000 0.85990  0.84210  0.35390  Biso   1.000  H
  H81      1.0000 0.94640  0.68170  0.77790  Biso   1.000  H
  H82      1.0000 0.05360  0.18170  0.72210  Biso   1.000  H
  H83      1.0000 0.05360  0.31830  0.22210  Biso   1.000  H
  H84      1.0000 0.94640  0.81830  0.27790  Biso   1.000  H
  C89      1.0000 0.77680  0.76570  0.90140  Biso   1.000  C
  C90      1.0000 0.22320  0.26570  0.59860  Biso   1.000  C
  C91      1.0000 0.22320  0.23430  0.09860  Biso   1.000  C
  C92      1.0000 0.77680  0.73430  0.40140  Biso   1.000  C
  H85      1.0000 0.78080  0.80600  0.94680  Biso   1.000  H
  H86      1.0000 0.21920  0.30600  0.55320  Biso   1.000  H
  H87      1.0000 0.21920  0.19400  0.05320  Biso   1.000  H
  H88      1.0000 0.78080  0.69400  0.44680  Biso   1.000  H
  H89      1.0000 0.76380  0.73280  0.96130  Biso   1.000  H
  H90      1.0000 0.23620  0.23280  0.53870  Biso   1.000  H
  H91      1.0000 0.23620  0.26720  0.03870  Biso   1.000  H
  H92      1.0000 0.76380  0.76720  0.46130  Biso   1.000  H
  H93      1.0000 0.71740  0.76620  0.81860  Biso   1.000  H
  H94      1.0000 0.28260  0.26620  0.68140  Biso   1.000  H
  H95      1.0000 0.28260  0.23380  0.18140  Biso   1.000  H
  H96      1.0000 0.71740  0.73380  0.31860  Biso   1.000  H
  C93      1.0000 0.51850  0.87520  0.18210  Biso   1.000  C
  C94      1.0000 0.48150  0.37520  0.31790  Biso   1.000  C
  C95      1.0000 0.48150  0.12480  0.81790  Biso   1.000  C
  C96      1.0000 0.51850  0.62480  0.68210  Biso   1.000  C
  C97      1.0000 0.53030  0.82930  0.07400  Biso   1.000  C
  C98      1.0000 0.46970  0.32930  0.42600  Biso   1.000  C
  C99      1.0000 0.46970  0.17070  0.92600  Biso   1.000  C
  C100     1.0000 0.53030  0.67070  0.57400  Biso   1.000  C
  H97      1.0000 0.46800  0.80110  0.05250  Biso   1.000  H
  H98      1.0000 0.53200  0.30110  0.44750  Biso   1.000  H
  H99      1.0000 0.53200  0.19890  0.94750  Biso   1.000  H
  H100     1.0000 0.46800  0.69890  0.55250  Biso   1.000  H
  H101     1.0000 0.59710  0.80520  0.10730  Biso   1.000  H
  H102     1.0000 0.40290  0.30520  0.39270  Biso   1.000  H
  H103     1.0000 0.40290  0.19480  0.89270  Biso   1.000  H
  H104     1.0000 0.59710  0.69480  0.60730  Biso   1.000  H
  H105     1.0000 0.53350  0.85210  0.99270  Biso   1.000  H
  H106     1.0000 0.46650  0.35210  0.50730  Biso   1.000  H
  H107     1.0000 0.46650  0.14790  0.00730  Biso   1.000  H
  H108     1.0000 0.53350  0.64790  0.49270  Biso   1.000  H
  C101     1.0000 0.52890  0.09610  0.36140  Biso   1.000  C
  C102     1.0000 0.47110  0.59610  0.13860  Biso   1.000  C
  C103     1.0000 0.47110  0.90390  0.63860  Biso   1.000  C
  C104     1.0000 0.52890  0.40390  0.86140  Biso   1.000  C
  C105     1.0000 0.49560  0.15900  0.39460  Biso   1.000  C
  C106     1.0000 0.50440  0.65900  0.10540  Biso   1.000  C
  C107     1.0000 0.50440  0.84100  0.60540  Biso   1.000  C
  C108     1.0000 0.49560  0.34100  0.89460  Biso   1.000  C
  H109     1.0000 0.51520  0.18970  0.33480  Biso   1.000  H
  H110     1.0000 0.48480  0.68970  0.16520  Biso   1.000  H
  H111     1.0000 0.48480  0.81030  0.66520  Biso   1.000  H
  H112     1.0000 0.51520  0.31030  0.83480  Biso   1.000  H
  H113     1.0000 0.53270  0.16900  0.48840  Biso   1.000  H
  H114     1.0000 0.46730  0.66900  0.01160  Biso   1.000  H
  H115     1.0000 0.46730  0.83100  0.51160  Biso   1.000  H
  H116     1.0000 0.53270  0.33100  0.98840  Biso   1.000  H
  H117     1.0000 0.41710  0.15970  0.38250  Biso   1.000  H
  H118     1.0000 0.58290  0.65970  0.11750  Biso   1.000  H
  H119     1.0000 0.58290  0.84030  0.61750  Biso   1.000  H
  H120     1.0000 0.41710  0.34030  0.88250  Biso   1.000  H
