data_image0
_cell_length_a       10.3212
_cell_length_b       13.1358
_cell_length_c       16.0182
_cell_angle_alpha    66.804
_cell_angle_beta     79.65
_cell_angle_gamma    87.942

_symmetry_space_group_name_H-M    "P 1"
_symmetry_int_tables_number       1

loop_
  _symmetry_equiv_pos_as_xyz
  'x, y, z'

loop_
  _atom_site_label
  _atom_site_occupancy
  _atom_site_fract_x
  _atom_site_fract_y
  _atom_site_fract_z
  _atom_site_thermal_displace_type
  _atom_site_B_iso_or_equiv
  _atom_site_type_symbol
  Hg1      1.0000 0.13212  0.06283  0.03212  Biso   1.000  Hg
  Hg2      1.0000 0.86788  0.93717  0.96788  Biso   1.000  Hg
  Cu1      1.0000 0.13702  0.43037  0.02434  Biso   1.000  Cu
  Cu2      1.0000 0.86298  0.56963  0.97566  Biso   1.000  Cu
  O1       1.0000 0.98660  0.44780  0.10350  Biso   1.000  O
  O2       1.0000 0.01340  0.55220  0.89650  Biso   1.000  O
  O3       1.0000 0.07560  0.28710  0.03560  Biso   1.000  O
  O4       1.0000 0.92440  0.71290  0.96440  Biso   1.000  O
  O5       1.0000 0.97250  0.12390  0.10810  Biso   1.000  O
  O6       1.0000 0.02750  0.87610  0.89190  Biso   1.000  O
  O7       1.0000 0.34110  0.10280  0.08440  Biso   1.000  O
  O8       1.0000 0.65890  0.89720  0.91560  Biso   1.000  O
  O9       1.0000 0.28250  0.94940  0.08380  Biso   1.000  O
  O10      1.0000 0.71750  0.05060  0.91620  Biso   1.000  O
  O11      1.0000 0.97890  0.88760  0.09320  Biso   1.000  O
  O12      1.0000 0.02110  0.11240  0.90680  Biso   1.000  O
  O13      1.0000 0.76380  0.86360  0.13640  Biso   1.000  O
  O14      1.0000 0.23620  0.13640  0.86360  Biso   1.000  O
  O15      1.0000 0.65590  0.80620  0.30590  Biso   1.000  O
  O16      1.0000 0.34410  0.19380  0.69410  Biso   1.000  O
  N1       1.0000 0.30510  0.43090  0.93880  Biso   1.000  N
  N2       1.0000 0.69490  0.56910  0.06120  Biso   1.000  N
  N3       1.0000 0.22570  0.56870  0.01510  Biso   1.000  N
  N4       1.0000 0.77430  0.43130  0.98490  Biso   1.000  N
  C1       1.0000 0.33650  0.35370  0.90370  Biso   1.000  C
  C2       1.0000 0.66350  0.64630  0.09630  Biso   1.000  C
  H1       1.0000 0.27690  0.29250  0.92090  Biso   1.000  H
  H2       1.0000 0.72310  0.70750  0.07910  Biso   1.000  H
  C3       1.0000 0.45250  0.36080  0.84360  Biso   1.000  C
  C4       1.0000 0.54750  0.63920  0.15640  Biso   1.000  C
  H3       1.0000 0.47280  0.30540  0.81960  Biso   1.000  H
  H4       1.0000 0.52720  0.69460  0.18040  Biso   1.000  H
  C5       1.0000 0.53990  0.45110  0.81860  Biso   1.000  C
  C6       1.0000 0.46010  0.54890  0.18140  Biso   1.000  C
  H5       1.0000 0.62190  0.45720  0.77870  Biso   1.000  H
  H6       1.0000 0.37810  0.54280  0.22130  Biso   1.000  H
  C7       1.0000 0.50560  0.52920  0.85230  Biso   1.000  C
  C8       1.0000 0.49440  0.47080  0.14770  Biso   1.000  C
  H7       1.0000 0.56220  0.59240  0.83460  Biso   1.000  H
  H8       1.0000 0.43780  0.40760  0.16540  Biso   1.000  H
  C9       1.0000 0.38640  0.51710  0.91340  Biso   1.000  C
  C10      1.0000 0.61360  0.48290  0.08660  Biso   1.000  C
  C11      1.0000 0.34600  0.59660  0.95860  Biso   1.000  C
  C12      1.0000 0.65400  0.40340  0.04140  Biso   1.000  C
  C13      1.0000 0.41380  0.69140  0.94330  Biso   1.000  C
  C14      1.0000 0.58620  0.30860  0.05670  Biso   1.000  C
  H9       1.0000 0.49700  0.71040  0.90320  Biso   1.000  H
  H10      1.0000 0.50300  0.28960  0.09680  Biso   1.000  H
  C15      1.0000 0.36130  0.75740  0.98550  Biso   1.000  C
  C16      1.0000 0.63870  0.24260  0.01450  Biso   1.000  C
  H11      1.0000 0.40880  0.82250  0.97660  Biso   1.000  H
  H12      1.0000 0.59120  0.17750  0.02340  Biso   1.000  H
  C17      1.0000 0.23830  0.73110  0.04190  Biso   1.000  C
  C18      1.0000 0.76170  0.26890  0.95810  Biso   1.000  C
  H13      1.0000 0.19900  0.77950  0.06950  Biso   1.000  H
  H14      1.0000 0.80100  0.22050  0.93050  Biso   1.000  H
  C19      1.0000 0.17420  0.63400  0.05710  Biso   1.000  C
  C20      1.0000 0.82580  0.36600  0.94290  Biso   1.000  C
  H15      1.0000 0.09190  0.61330  0.09820  Biso   1.000  H
  H16      1.0000 0.90810  0.38670  0.90180  Biso   1.000  H
  C21      1.0000 0.98490  0.22310  0.09790  Biso   1.000  C
  C22      1.0000 0.01510  0.77690  0.90210  Biso   1.000  C
  C23      1.0000 0.89740  0.25960  0.16370  Biso   1.000  C
  C24      1.0000 0.10260  0.74040  0.83630  Biso   1.000  C
  C25      1.0000 0.90900  0.36280  0.16920  Biso   1.000  C
  C26      1.0000 0.09100  0.63720  0.83080  Biso   1.000  C
  C27      1.0000 0.83450  0.38090  0.24430  Biso   1.000  C
  C28      1.0000 0.16550  0.61910  0.75570  Biso   1.000  C
  C29      1.0000 0.74320  0.30060  0.30640  Biso   1.000  C
  C30      1.0000 0.25680  0.69940  0.69360  Biso   1.000  C
  H17      1.0000 0.68830  0.31660  0.35370  Biso   1.000  H
  H18      1.0000 0.31170  0.68340  0.64630  Biso   1.000  H
  C31      1.0000 0.72740  0.19990  0.30370  Biso   1.000  C
  C32      1.0000 0.27260  0.80010  0.69630  Biso   1.000  C
  C33      1.0000 0.80380  0.17970  0.23130  Biso   1.000  C
  C34      1.0000 0.19620  0.82030  0.76870  Biso   1.000  C
  H19      1.0000 0.79290  0.11050  0.22700  Biso   1.000  H
  H20      1.0000 0.20710  0.88950  0.77300  Biso   1.000  H
  C35      1.0000 0.86490  0.48600  0.25590  Biso   1.000  C
  C36      1.0000 0.13510  0.51400  0.74410  Biso   1.000  C
  H21      1.0000 0.87230  0.54900  0.19420  Biso   1.000  H
  H22      1.0000 0.12770  0.45100  0.80580  Biso   1.000  H
  C37      1.0000 0.76210  0.51300  0.32310  Biso   1.000  C
  C38      1.0000 0.23790  0.48700  0.67690  Biso   1.000  C
  H23      1.0000 0.67560  0.51480  0.30560  Biso   1.000  H
  H24      1.0000 0.32440  0.48520  0.69440  Biso   1.000  H
  H25      1.0000 0.78420  0.58560  0.32200  Biso   1.000  H
  H26      1.0000 0.21580  0.41440  0.67800  Biso   1.000  H
  H27      1.0000 0.75980  0.45630  0.38550  Biso   1.000  H
  H28      1.0000 0.24020  0.54370  0.61450  Biso   1.000  H
  C39      1.0000 0.99960  0.47840  0.28830  Biso   1.000  C
  C40      1.0000 0.00040  0.52160  0.71170  Biso   1.000  C
  H29      1.0000 0.01480  0.54390  0.30060  Biso   1.000  H
  H30      1.0000 0.98520  0.45610  0.69940  Biso   1.000  H
  H31      1.0000 0.07040  0.47480  0.23980  Biso   1.000  H
  H32      1.0000 0.92960  0.52520  0.76020  Biso   1.000  H
  H33      1.0000 0.99860  0.41150  0.34470  Biso   1.000  H
  H34      1.0000 0.00140  0.58850  0.65530  Biso   1.000  H
  C41      1.0000 0.62610  0.11110  0.37380  Biso   1.000  C
  C42      1.0000 0.37390  0.88890  0.62620  Biso   1.000  C
  H35      1.0000 0.57230  0.14440  0.41440  Biso   1.000  H
  H36      1.0000 0.42770  0.85560  0.58560  Biso   1.000  H
  C43      1.0000 0.53300  0.06930  0.33100  Biso   1.000  C
  C44      1.0000 0.46700  0.93070  0.66900  Biso   1.000  C
  H37      1.0000 0.58340  0.03770  0.28930  Biso   1.000  H
  H38      1.0000 0.41660  0.96230  0.71070  Biso   1.000  H
  H39      1.0000 0.48230  0.13080  0.29560  Biso   1.000  H
  H40      1.0000 0.51770  0.86920  0.70440  Biso   1.000  H
  H41      1.0000 0.47230  0.01210  0.37940  Biso   1.000  H
  H42      1.0000 0.52770  0.98790  0.62060  Biso   1.000  H
  C45      1.0000 0.70000  0.01560  0.43440  Biso   1.000  C
  C46      1.0000 0.30000  0.98440  0.56560  Biso   1.000  C
  H43      1.0000 0.63680  0.96220  0.48430  Biso   1.000  H
  H44      1.0000 0.36320  0.03780  0.51570  Biso   1.000  H
  H45      1.0000 0.76100  0.04450  0.46080  Biso   1.000  H
  H46      1.0000 0.23900  0.95550  0.53920  Biso   1.000  H
  H47      1.0000 0.74980  0.97870  0.39690  Biso   1.000  H
  H48      1.0000 0.25020  0.02130  0.60310  Biso   1.000  H
  C47      1.0000 0.35850  0.00630  0.10380  Biso   1.000  C
  C48      1.0000 0.64150  0.99370  0.89620  Biso   1.000  C
  C49      1.0000 0.47630  0.95340  0.14280  Biso   1.000  C
  C50      1.0000 0.52370  0.04660  0.85720  Biso   1.000  C
  H49      1.0000 0.55580  0.98180  0.09560  Biso   1.000  H
  H50      1.0000 0.44420  0.01820  0.90440  Biso   1.000  H
  H51      1.0000 0.46740  0.87290  0.16230  Biso   1.000  H
  H52      1.0000 0.53260  0.12710  0.83770  Biso   1.000  H
  H53      1.0000 0.48320  0.97060  0.19610  Biso   1.000  H
  H54      1.0000 0.51680  0.02940  0.80390  Biso   1.000  H
  C51      1.0000 0.87320  0.85940  0.15320  Biso   1.000  C
  C52      1.0000 0.12680  0.14060  0.84680  Biso   1.000  C
  C53      1.0000 0.89230  0.81660  0.25290  Biso   1.000  C
  C54      1.0000 0.10770  0.18340  0.74710  Biso   1.000  C
  C55      1.0000 0.77860  0.78880  0.32450  Biso   1.000  C
  C56      1.0000 0.22140  0.21120  0.67550  Biso   1.000  C
  C57      1.0000 0.79230  0.74380  0.41940  Biso   1.000  C
  C58      1.0000 0.20770  0.25620  0.58060  Biso   1.000  C
  C59      1.0000 0.91850  0.72400  0.43740  Biso   1.000  C
  C60      1.0000 0.08150  0.27600  0.56260  Biso   1.000  C
  H55      1.0000 0.92930  0.69460  0.50010  Biso   1.000  H
  H56      1.0000 0.07070  0.30540  0.49990  Biso   1.000  H
  C61      1.0000 0.03240  0.74450  0.36910  Biso   1.000  C
  C62      1.0000 0.96760  0.25550  0.63090  Biso   1.000  C
  C63      1.0000 0.01420  0.79540  0.27610  Biso   1.000  C
  C64      1.0000 0.98580  0.20460  0.72390  Biso   1.000  C
  H57      1.0000 0.08950  0.81560  0.22830  Biso   1.000  H
  H58      1.0000 0.91050  0.18440  0.77170  Biso   1.000  H
  C65      1.0000 0.67060  0.71390  0.49380  Biso   1.000  C
  C66      1.0000 0.32940  0.28610  0.50620  Biso   1.000  C
  H59      1.0000 0.60900  0.77580  0.47310  Biso   1.000  H
  H60      1.0000 0.39100  0.22420  0.52690  Biso   1.000  H
  C67      1.0000 0.60000  0.60920  0.50100  Biso   1.000  C
  C68      1.0000 0.40000  0.39080  0.49900  Biso   1.000  C
  H61      1.0000 0.66300  0.55050  0.50700  Biso   1.000  H
  H62      1.0000 0.33700  0.44950  0.49300  Biso   1.000  H
  H63      1.0000 0.56120  0.62550  0.44620  Biso   1.000  H
  H64      1.0000 0.43880  0.37450  0.55380  Biso   1.000  H
  H65      1.0000 0.52980  0.58480  0.55620  Biso   1.000  H
  H66      1.0000 0.47020  0.41520  0.44380  Biso   1.000  H
  C69      1.0000 0.69200  0.70390  0.58530  Biso   1.000  C
  C70      1.0000 0.30800  0.29610  0.41470  Biso   1.000  C
  H67      1.0000 0.75450  0.64530  0.60760  Biso   1.000  H
  H68      1.0000 0.24550  0.35470  0.39240  Biso   1.000  H
  H69      1.0000 0.60850  0.68530  0.62870  Biso   1.000  H
  H70      1.0000 0.39150  0.31470  0.37130  Biso   1.000  H
  H71      1.0000 0.72900  0.77440  0.58010  Biso   1.000  H
  H72      1.0000 0.27100  0.22560  0.41990  Biso   1.000  H
  C71      1.0000 0.16900  0.71600  0.39500  Biso   1.000  C
  C72      1.0000 0.83100  0.28400  0.60500  Biso   1.000  C
  H73      1.0000 0.15420  0.65310  0.45670  Biso   1.000  H
  H74      1.0000 0.84580  0.34690  0.54330  Biso   1.000  H
  C73      1.0000 0.26400  0.68000  0.33600  Biso   1.000  C
  C74      1.0000 0.73600  0.32000  0.66400  Biso   1.000  C
  H75      1.0000 0.24930  0.71650  0.27190  Biso   1.000  H
  H76      1.0000 0.75070  0.28350  0.72810  Biso   1.000  H
  H77      1.0000 0.25380  0.59950  0.35580  Biso   1.000  H
  H78      1.0000 0.74620  0.40050  0.64420  Biso   1.000  H
  H79      1.0000 0.35330  0.69920  0.33890  Biso   1.000  H
  H80      1.0000 0.64670  0.30080  0.66110  Biso   1.000  H
  C75      1.0000 0.22400  0.81300  0.41100  Biso   1.000  C
  C76      1.0000 0.77600  0.18700  0.58900  Biso   1.000  C
  H81      1.0000 0.31450  0.79860  0.42210  Biso   1.000  H
  H82      1.0000 0.68550  0.20140  0.57790  Biso   1.000  H
  H83      1.0000 0.16900  0.82120  0.46420  Biso   1.000  H
  H84      1.0000 0.83100  0.17880  0.53580  Biso   1.000  H
  H85      1.0000 0.22410  0.88190  0.35590  Biso   1.000  H
  H86      1.0000 0.77590  0.11810  0.64410  Biso   1.000  H
  C77      1.0000 0.11900  0.11000  0.30600  Biso   1.000  C
  C78      1.0000 0.88100  0.89000  0.69400  Biso   1.000  C
  H87      1.0000 0.07010  0.07980  0.27240  Biso   1.000  H
  H88      1.0000 0.92990  0.92020  0.72760  Biso   1.000  H
  H89      1.0000 0.05680  0.12170  0.35470  Biso   1.000  H
  H90      1.0000 0.94320  0.87830  0.64530  Biso   1.000  H
  H91      1.0000 0.18390  0.05670  0.33290  Biso   1.000  H
  H92      1.0000 0.81610  0.94330  0.66710  Biso   1.000  H
  C79      1.0000 0.18700  0.21650  0.24040  Biso   1.000  C
  C80      1.0000 0.81300  0.78350  0.75960  Biso   1.000  C
  N5       1.0000 0.23900  0.29480  0.18880  Biso   1.000  N
  N6       1.0000 0.76100  0.70520  0.81120  Biso   1.000  N
