data_image0
_cell_length_a       8.0421
_cell_length_b       16.749
_cell_length_c       17.859
_cell_angle_alpha    63.935
_cell_angle_beta     85.106
_cell_angle_gamma    84.616

_symmetry_space_group_name_H-M    "P 1"
_symmetry_int_tables_number       1

loop_
  _symmetry_equiv_pos_as_xyz
  'x, y, z'

loop_
  _atom_site_label
  _atom_site_occupancy
  _atom_site_fract_x
  _atom_site_fract_y
  _atom_site_fract_z
  _atom_site_thermal_displace_type
  _atom_site_B_iso_or_equiv
  _atom_site_type_symbol
  Cu1      1.0000 0.33385  0.09224  0.44194  Biso   1.000  Cu
  Cu2      1.0000 0.66615  0.90776  0.55806  Biso   1.000  Cu
  Cu3      1.0000 0.44465  0.20756  0.23082  Biso   1.000  Cu
  Cu4      1.0000 0.55535  0.79244  0.76918  Biso   1.000  Cu
  Cu5      1.0000 0.63643  0.25696  0.36016  Biso   1.000  Cu
  Cu6      1.0000 0.36357  0.74304  0.63984  Biso   1.000  Cu
  Cu7      1.0000 0.59411  0.11762  0.70376  Biso   1.000  Cu
  Cu8      1.0000 0.40589  0.88238  0.29624  Biso   1.000  Cu
  Cu9      1.0000 0.80942  0.49218  0.03707  Biso   1.000  Cu
  Cu10     1.0000 0.19058  0.50782  0.96293  Biso   1.000  Cu
  Cu11     1.0000 0.75249  0.86976  0.02820  Biso   1.000  Cu
  Cu12     1.0000 0.24751  0.13024  0.97180  Biso   1.000  Cu
  Cu13     1.0000 0.50104  0.71669  0.09533  Biso   1.000  Cu
  Cu14     1.0000 0.49896  0.28331  0.90467  Biso   1.000  Cu
  C1       1.0000 0.26270  0.07560  0.23640  Biso   1.000  C
  C2       1.0000 0.73730  0.92440  0.76360  Biso   1.000  C
  C3       1.0000 0.60500  0.34580  0.11500  Biso   1.000  C
  C4       1.0000 0.39500  0.65420  0.88500  Biso   1.000  C
  C5       1.0000 0.45750  0.07620  0.58390  Biso   1.000  C
  C6       1.0000 0.54250  0.92380  0.41610  Biso   1.000  C
  C7       1.0000 0.59530  0.91060  0.14900  Biso   1.000  C
  C8       1.0000 0.40470  0.08940  0.85100  Biso   1.000  C
  C9       1.0000 0.81170  0.64270  0.89300  Biso   1.000  C
  C10      1.0000 0.18830  0.35730  0.10700  Biso   1.000  C
  C11      1.0000 0.18290  0.10110  0.30610  Biso   1.000  C
  C12      1.0000 0.81710  0.89890  0.69390  Biso   1.000  C
  C13      1.0000 0.58670  0.36780  0.19160  Biso   1.000  C
  C14      1.0000 0.41330  0.63220  0.80840  Biso   1.000  C
  C15      1.0000 0.49060  0.17260  0.52010  Biso   1.000  C
  C16      1.0000 0.50940  0.82740  0.47990  Biso   1.000  C
  C17      1.0000 0.57600  0.80950  0.18470  Biso   1.000  C
  C18      1.0000 0.42400  0.19050  0.81530  Biso   1.000  C
  C19      1.0000 0.91500  0.66110  0.95280  Biso   1.000  C
  C20      1.0000 0.08500  0.33890  0.04720  Biso   1.000  C
  C21      1.0000 0.12460  0.01880  0.38410  Biso   1.000  C
  C22      1.0000 0.87540  0.98120  0.61590  Biso   1.000  C
  C23      1.0000 0.76380  0.37990  0.21210  Biso   1.000  C
  C24      1.0000 0.23620  0.62010  0.78790  Biso   1.000  C
  C25      1.0000 0.66620  0.19750  0.52740  Biso   1.000  C
  C26      1.0000 0.33380  0.80250  0.47260  Biso   1.000  C
  C27      1.0000 0.38550  0.79610  0.19570  Biso   1.000  C
  C28      1.0000 0.61450  0.20390  0.80430  Biso   1.000  C
  C29      1.0000 0.79850  0.71150  0.99500  Biso   1.000  C
  C30      1.0000 0.20150  0.28850  0.00500  Biso   1.000  C
  O1       1.0000 0.37830  0.12520  0.19070  Biso   1.000  O
  O2       1.0000 0.62170  0.87480  0.80930  Biso   1.000  O
  O3       1.0000 0.56650  0.27100  0.12550  Biso   1.000  O
  O4       1.0000 0.43350  0.72900  0.87450  Biso   1.000  O
  O5       1.0000 0.39180  0.02820  0.55840  Biso   1.000  O
  O6       1.0000 0.60820  0.97180  0.44160  Biso   1.000  O
  O7       1.0000 0.66430  0.95040  0.07720  Biso   1.000  O
  O8       1.0000 0.33570  0.04960  0.92280  Biso   1.000  O
  O9       1.0000 0.74260  0.56790  0.92403  Biso   1.000  O
  O10      1.0000 0.25740  0.43210  0.07597  Biso   1.000  O
  O11      1.0000 0.70470  0.13950  0.32280  Biso   1.000  O
  O12      1.0000 0.29530  0.86050  0.67720  Biso   1.000  O
  H1       1.0000 0.80880  0.14020  0.30370  Biso   1.000  H
  H2       1.0000 0.19120  0.85980  0.69630  Biso   1.000  H
  H3       1.0000 0.69170  0.08820  0.36600  Biso   1.000  H
  H4       1.0000 0.30830  0.91180  0.63400  Biso   1.000  H
  O13      1.0000 0.21150  0.01280  0.22790  Biso   1.000  O
  O14      1.0000 0.78850  0.98720  0.77210  Biso   1.000  O
  O15      1.0000 0.65480  0.40490  0.04592  Biso   1.000  O
  O16      1.0000 0.34520  0.59510  0.95408  Biso   1.000  O
  O17      1.0000 0.48830  0.04940  0.65930  Biso   1.000  O
  O18      1.0000 0.51170  0.95060  0.34070  Biso   1.000  O
  O19      1.0000 0.53900  0.94910  0.19290  Biso   1.000  O
  O20      1.0000 0.46100  0.05090  0.80710  Biso   1.000  O
  O21      1.0000 0.79930  0.69900  0.82010  Biso   1.000  O
  O22      1.0000 0.20070  0.30100  0.17990  Biso   1.000  O
  O23      1.0000 0.50220  0.87220  0.96300  Biso   1.000  O
  O24      1.0000 0.49780  0.12780  0.03700  Biso   1.000  O
  H5       1.0000 0.43380  0.91820  0.95850  Biso   1.000  H
  H6       1.0000 0.56620  0.08180  0.04150  Biso   1.000  H
  H7       1.0000 0.52540  0.87580  0.91260  Biso   1.000  H
  H8       1.0000 0.47460  0.12420  0.08740  Biso   1.000  H
  O25      1.0000 0.29780  0.14540  0.32604  Biso   1.000  O
  O26      1.0000 0.70220  0.85460  0.67396  Biso   1.000  O
  O27      1.0000 0.51060  0.30080  0.25927  Biso   1.000  O
  O28      1.0000 0.48940  0.69920  0.74073  Biso   1.000  O
  O29      1.0000 0.47140  0.18230  0.44054  Biso   1.000  O
  O30      1.0000 0.52860  0.81770  0.55946  Biso   1.000  O
  O31      1.0000 0.65450  0.77660  0.13090  Biso   1.000  O
  O32      1.0000 0.34550  0.22340  0.86910  Biso   1.000  O
  O33      1.0000 0.97040  0.57940  0.01508  Biso   1.000  O
  O34      1.0000 0.02960  0.42060  0.98492  Biso   1.000  O
  O35      1.0000 0.82420  0.97420  0.92650  Biso   1.000  O
  O36      1.0000 0.17580  0.02580  0.07350  Biso   1.000  O
  H9       1.0000 0.88340  0.00510  0.93990  Biso   1.000  H
  H10      1.0000 0.11660  0.99490  0.06010  Biso   1.000  H
  H11      1.0000 0.88200  0.95690  0.89340  Biso   1.000  H
  H12      1.0000 0.11800  0.04310  0.10660  Biso   1.000  H
  O37      1.0000 0.03600  0.15530  0.27380  Biso   1.000  O
  O38      1.0000 0.96400  0.84470  0.72620  Biso   1.000  O
  H13      1.0000 0.06120  0.20350  0.23580  Biso   1.000  H
  H14      1.0000 0.93880  0.79650  0.76420  Biso   1.000  H
  O39      1.0000 0.49690  0.45140  0.16800  Biso   1.000  O
  O40      1.0000 0.50310  0.54860  0.83200  Biso   1.000  O
  H15      1.0000 0.41810  0.45430  0.14040  Biso   1.000  H
  H16      1.0000 0.58190  0.54570  0.85960  Biso   1.000  H
  O41      1.0000 0.37540  0.22880  0.54310  Biso   1.000  O
  O42      1.0000 0.62460  0.77120  0.45690  Biso   1.000  O
  H17      1.0000 0.27960  0.21910  0.53840  Biso   1.000  H
  H18      1.0000 0.72040  0.78090  0.46160  Biso   1.000  H
  O43      1.0000 0.63350  0.76720  0.26610  Biso   1.000  O
  O44      1.0000 0.36650  0.23280  0.73390  Biso   1.000  O
  H19      1.0000 0.73030  0.77960  0.26570  Biso   1.000  H
  H20      1.0000 0.26970  0.22040  0.73430  Biso   1.000  H
  O45      1.0000 0.04340  0.71270  0.90520  Biso   1.000  O
  O46      1.0000 0.95660  0.28730  0.09480  Biso   1.000  O
  H21      1.0000 0.05070  0.75380  0.91770  Biso   1.000  H
  H22      1.0000 0.94930  0.24620  0.08230  Biso   1.000  H
  O47      1.0000 0.52860  0.58260  0.22000  Biso   1.000  O
  O48      1.0000 0.47140  0.41740  0.78000  Biso   1.000  O
  H23      1.0000 0.44050  0.57690  0.25470  Biso   1.000  H
  H24      1.0000 0.55950  0.42310  0.74530  Biso   1.000  H
  H25      1.0000 0.53820  0.53560  0.20930  Biso   1.000  H
  H26      1.0000 0.46180  0.46440  0.79070  Biso   1.000  H
  O49      1.0000 0.00340  0.98140  0.37990  Biso   1.000  O
  O50      1.0000 0.99660  0.01860  0.62010  Biso   1.000  O
  O51      1.0000 0.85580  0.43350  0.15600  Biso   1.000  O
  O52      1.0000 0.14420  0.56650  0.84400  Biso   1.000  O
  O53      1.0000 0.71530  0.18450  0.59750  Biso   1.000  O
  O54      1.0000 0.28470  0.81550  0.40250  Biso   1.000  O
  O55      1.0000 0.29860  0.82110  0.24450  Biso   1.000  O
  O56      1.0000 0.70140  0.17890  0.75550  Biso   1.000  O
  O57      1.0000 0.67050  0.67340  0.03500  Biso   1.000  O
  O58      1.0000 0.32950  0.32660  0.96500  Biso   1.000  O
  O59      1.0000 0.32290  0.67430  0.05920  Biso   1.000  O
  O60      1.0000 0.67710  0.32570  0.94080  Biso   1.000  O
  H27      1.0000 0.33930  0.65460  0.01650  Biso   1.000  H
  H28      1.0000 0.66070  0.34540  0.98350  Biso   1.000  H
  H29      1.0000 0.24900  0.65390  0.09890  Biso   1.000  H
  H30      1.0000 0.75100  0.34610  0.90110  Biso   1.000  H
  O61      1.0000 0.20930  0.99570  0.44840  Biso   1.000  O
  O62      1.0000 0.79070  0.00430  0.55160  Biso   1.000  O
  O63      1.0000 0.80590  0.33490  0.28590  Biso   1.000  O
  O64      1.0000 0.19410  0.66510  0.71410  Biso   1.000  O
  O65      1.0000 0.75330  0.23390  0.46020  Biso   1.000  O
  O66      1.0000 0.24670  0.76610  0.53980  Biso   1.000  O
  O67      1.0000 0.32680  0.76160  0.15460  Biso   1.000  O
  O68      1.0000 0.67320  0.23840  0.84540  Biso   1.000  O
  O69      1.0000 0.84500  0.78470  0.98560  Biso   1.000  O
  O70      1.0000 0.15500  0.21530  0.01440  Biso   1.000  O
  O71      1.0000 0.10770  0.16590  0.49490  Biso   1.000  O
  O72      1.0000 0.89230  0.83410  0.50510  Biso   1.000  O
  H31      1.0000 0.06560  0.11280  0.53180  Biso   1.000  H
  H32      1.0000 0.93440  0.88720  0.46820  Biso   1.000  H
  H33      1.0000 0.08670  0.15200  0.46320  Biso   1.000  H
  H34      1.0000 0.91330  0.84800  0.53680  Biso   1.000  H
  O73      1.0000 0.03690  0.87830  0.06390  Biso   1.000  O
  O74      1.0000 0.96310  0.12170  0.93610  Biso   1.000  O
  H35      1.0000 0.11510  0.83830  0.06950  Biso   1.000  H
  H36      1.0000 0.88490  0.16170  0.93050  Biso   1.000  H
  H37      1.0000 0.99850  0.87170  0.11220  Biso   1.000  H
  H38      1.0000 0.00150  0.12830  0.88780  Biso   1.000  H
  O75      1.0000 0.47900  0.39210  0.38500  Biso   1.000  O
  O76      1.0000 0.52100  0.60790  0.61500  Biso   1.000  O
  H39      1.0000 0.43820  0.44560  0.36500  Biso   1.000  H
  H40      1.0000 0.56180  0.55440  0.63500  Biso   1.000  H
  H41      1.0000 0.50860  0.37670  0.43430  Biso   1.000  H
  H42      1.0000 0.49140  0.62330  0.56570  Biso   1.000  H
  N1       1.0000 0.83650  0.00050  0.24340  Biso   1.000  N
  N2       1.0000 0.16350  0.99950  0.75660  Biso   1.000  N
  H43      1.0000 0.73680  0.99520  0.26420  Biso   1.000  H
  H44      1.0000 0.26320  0.00480  0.73580  Biso   1.000  H
  H45      1.0000 0.83990  0.04650  0.19690  Biso   1.000  H
  H46      1.0000 0.16010  0.95350  0.80310  Biso   1.000  H
  H47      1.0000 0.88420  0.93960  0.25100  Biso   1.000  H
  H48      1.0000 0.11580  0.06040  0.74900  Biso   1.000  H
  H49      1.0000 0.91570  0.99860  0.27740  Biso   1.000  H
  H50      1.0000 0.08430  0.00140  0.72260  Biso   1.000  H
  O77      1.0000 0.15630  0.38630  0.29010  Biso   1.000  O
  O78      1.0000 0.84370  0.61370  0.70990  Biso   1.000  O
  H51      1.0000 0.18210  0.34360  0.27690  Biso   1.000  H
  H52      1.0000 0.81790  0.65640  0.72310  Biso   1.000  H
  H53      1.0000 0.12380  0.43230  0.24750  Biso   1.000  H
  H54      1.0000 0.87620  0.56770  0.75250  Biso   1.000  H
  O79      1.0000 0.10010  0.56300  0.15870  Biso   1.000  O
  O80      1.0000 0.89990  0.43700  0.84130  Biso   1.000  O
  H55      1.0000 0.03020  0.59530  0.17340  Biso   1.000  H
  H56      1.0000 0.96980  0.40470  0.82660  Biso   1.000  H
  H57      1.0000 0.06880  0.57110  0.11160  Biso   1.000  H
  H58      1.0000 0.93120  0.42890  0.88840  Biso   1.000  H
  O81      1.0000 0.07740  0.16560  0.74430  Biso   1.000  O
  O82      1.0000 0.92260  0.83440  0.25570  Biso   1.000  O
  O83      1.0000 0.83480  0.14140  0.08550  Biso   1.000  O
  O84      1.0000 0.16520  0.85860  0.91450  Biso   1.000  O
  H59      1.0000 0.88840  0.12440  0.05030  Biso   1.000  H
  H60      1.0000 0.11160  0.87560  0.94970  Biso   1.000  H
  H61      1.0000 0.73140  0.15480  0.06880  Biso   1.000  H
  H62      1.0000 0.26860  0.84520  0.93120  Biso   1.000  H
  O85      1.0000 0.14460  0.38170  0.76090  Biso   1.000  O
  O86      1.0000 0.85540  0.61830  0.23910  Biso   1.000  O
  H63      1.0000 0.19460  0.32880  0.75880  Biso   1.000  H
  H64      1.0000 0.80540  0.67120  0.24120  Biso   1.000  H
  H65      1.0000 0.26720  0.37820  0.77010  Biso   1.000  H
  H66      1.0000 0.73280  0.62180  0.22990  Biso   1.000  H
  O87      1.0000 0.16100  0.46000  0.60320  Biso   1.000  O
  O88      1.0000 0.83900  0.54000  0.39680  Biso   1.000  O
  H67      1.0000 0.15470  0.43500  0.65630  Biso   1.000  H
  H68      1.0000 0.84530  0.56500  0.34370  Biso   1.000  H
  H69      1.0000 0.10540  0.42820  0.60150  Biso   1.000  H
  H70      1.0000 0.89460  0.57180  0.39850  Biso   1.000  H
  O89      1.0000 0.43100  0.39540  0.54260  Biso   1.000  O
  O90      1.0000 0.56900  0.60460  0.45740  Biso   1.000  O
  H71      1.0000 0.44100  0.39330  0.58930  Biso   1.000  H
  H72      1.0000 0.55900  0.60670  0.41070  Biso   1.000  H
  H73      1.0000 0.37080  0.33750  0.56610  Biso   1.000  H
  H74      1.0000 0.62920  0.66250  0.43390  Biso   1.000  H
  O91      1.0000 0.06700  0.68730  0.41450  Biso   1.000  O
  O92      1.0000 0.93300  0.31270  0.58550  Biso   1.000  O
  H75      1.0000 0.98820  0.71940  0.44360  Biso   1.000  H
  H76      1.0000 0.01180  0.28060  0.55640  Biso   1.000  H
  H77      1.0000 0.14780  0.72660  0.41110  Biso   1.000  H
  H78      1.0000 0.85220  0.27340  0.58890  Biso   1.000  H
  O93      1.0000 0.04800  0.41500  0.43080  Biso   1.000  O
  O94      1.0000 0.95200  0.58500  0.56920  Biso   1.000  O
  H79      1.0000 0.04470  0.47540  0.38580  Biso   1.000  H
  H80      1.0000 0.95530  0.52460  0.61420  Biso   1.000  H
  H81      1.0000 0.05950  0.37620  0.39680  Biso   1.000  H
  H82      1.0000 0.94050  0.62380  0.60320  Biso   1.000  H
  O95      1.0000 0.32900  0.57410  0.36510  Biso   1.000  O
  O96      1.0000 0.67100  0.42590  0.63490  Biso   1.000  O
  H83      1.0000 0.35180  0.53390  0.41330  Biso   1.000  H
  H84      1.0000 0.64820  0.46610  0.58670  Biso   1.000  H
  H85      1.0000 0.22330  0.57960  0.36040  Biso   1.000  H
  H86      1.0000 0.77670  0.42040  0.63960  Biso   1.000  H
