data_image0
_cell_length_a       8.0421
_cell_length_b       16.7426
_cell_length_c       17.833
_cell_angle_alpha    63.883
_cell_angle_beta     85.122
_cell_angle_gamma    84.756

_symmetry_space_group_name_H-M    "P 1"
_symmetry_int_tables_number       1

loop_
  _symmetry_equiv_pos_as_xyz
  'x, y, z'

loop_
  _atom_site_label
  _atom_site_occupancy
  _atom_site_fract_x
  _atom_site_fract_y
  _atom_site_fract_z
  _atom_site_thermal_displace_type
  _atom_site_B_iso_or_equiv
  _atom_site_type_symbol
  Cu1      1.0000 0.83113  0.09179  0.44251  Biso   1.000  Cu
  Cu2      1.0000 0.16887  0.90821  0.55749  Biso   1.000  Cu
  Cu3      1.0000 0.05789  0.79295  0.76929  Biso   1.000  Cu
  Cu4      1.0000 0.94211  0.20705  0.23071  Biso   1.000  Cu
  Cu5      1.0000 0.13519  0.25568  0.35972  Biso   1.000  Cu
  Cu6      1.0000 0.86481  0.74432  0.64028  Biso   1.000  Cu
  Cu7      1.0000 0.09428  0.11835  0.70284  Biso   1.000  Cu
  Cu8      1.0000 0.90572  0.88165  0.29716  Biso   1.000  Cu
  Cu9      1.0000 0.30298  0.49281  0.03805  Biso   1.000  Cu
  Cu10     1.0000 0.69702  0.50719  0.96195  Biso   1.000  Cu
  Cu11     1.0000 0.24862  0.87222  0.02700  Biso   1.000  Cu
  Cu12     1.0000 0.75138  0.12778  0.97300  Biso   1.000  Cu
  Cu13     1.0000 0.00145  0.71548  0.09675  Biso   1.000  Cu
  Cu14     1.0000 0.99855  0.28452  0.90325  Biso   1.000  Cu
  C1       1.0000 0.23910  0.92540  0.76344  Biso   1.000  C
  C2       1.0000 0.76090  0.07460  0.23656  Biso   1.000  C
  C3       1.0000 0.10050  0.34600  0.11472  Biso   1.000  C
  C4       1.0000 0.89950  0.65400  0.88528  Biso   1.000  C
  C5       1.0000 0.95750  0.07600  0.58425  Biso   1.000  C
  C6       1.0000 0.04250  0.92400  0.41575  Biso   1.000  C
  C7       1.0000 0.90740  0.08830  0.85090  Biso   1.000  C
  C8       1.0000 0.09260  0.91170  0.14910  Biso   1.000  C
  C9       1.0000 0.31500  0.64320  0.89346  Biso   1.000  C
  C10      1.0000 0.68500  0.35680  0.10654  Biso   1.000  C
  C11      1.0000 0.31870  0.90030  0.69373  Biso   1.000  C
  C12      1.0000 0.68130  0.09970  0.30627  Biso   1.000  C
  C13      1.0000 0.08450  0.36750  0.19120  Biso   1.000  C
  C14      1.0000 0.91550  0.63250  0.80880  Biso   1.000  C
  C15      1.0000 0.99060  0.17180  0.52015  Biso   1.000  C
  C16      1.0000 0.00940  0.82820  0.47985  Biso   1.000  C
  C17      1.0000 0.92520  0.19000  0.81581  Biso   1.000  C
  C18      1.0000 0.07480  0.81000  0.18419  Biso   1.000  C
  C19      1.0000 0.41530  0.66330  0.95298  Biso   1.000  C
  C20      1.0000 0.58470  0.33670  0.04702  Biso   1.000  C
  C21      1.0000 0.37480  0.98310  0.61531  Biso   1.000  C
  C22      1.0000 0.62520  0.01690  0.38469  Biso   1.000  C
  C23      1.0000 0.26200  0.37920  0.21144  Biso   1.000  C
  C24      1.0000 0.73800  0.62080  0.78856  Biso   1.000  C
  C25      1.0000 0.16710  0.19730  0.52673  Biso   1.000  C
  C26      1.0000 0.83290  0.80270  0.47327  Biso   1.000  C
  C27      1.0000 0.11450  0.20510  0.80310  Biso   1.000  C
  C28      1.0000 0.88550  0.79490  0.19690  Biso   1.000  C
  C29      1.0000 0.29720  0.71340  0.99445  Biso   1.000  C
  C30      1.0000 0.70280  0.28660  0.00555  Biso   1.000  C
  O1       1.0000 0.12600  0.87473  0.81025  Biso   1.000  O
  O2       1.0000 0.87400  0.12527  0.18975  Biso   1.000  O
  O3       1.0000 0.06140  0.27169  0.12461  Biso   1.000  O
  O4       1.0000 0.93860  0.72831  0.87539  Biso   1.000  O
  O5       1.0000 0.89060  0.02787  0.55855  Biso   1.000  O
  O6       1.0000 0.10940  0.97213  0.44145  Biso   1.000  O
  O7       1.0000 0.84000  0.04838  0.92288  Biso   1.000  O
  O8       1.0000 0.16000  0.95162  0.07712  Biso   1.000  O
  O9       1.0000 0.24550  0.56881  0.92456  Biso   1.000  O
  O10      1.0000 0.75450  0.43119  0.07544  Biso   1.000  O
  O11      1.0000 0.29030  0.98833  0.77228  Biso   1.000  O
  O12      1.0000 0.70970  0.01167  0.22772  Biso   1.000  O
  O13      1.0000 0.15040  0.40584  0.04522  Biso   1.000  O
  O14      1.0000 0.84960  0.59416  0.95478  Biso   1.000  O
  O15      1.0000 0.98900  0.04931  0.65946  Biso   1.000  O
  O16      1.0000 0.01100  0.95069  0.34054  Biso   1.000  O
  O17      1.0000 0.96330  0.05101  0.80631  Biso   1.000  O
  O18      1.0000 0.03670  0.94899  0.19369  Biso   1.000  O
  O19      1.0000 0.30440  0.69910  0.82012  Biso   1.000  O
  O20      1.0000 0.69560  0.30090  0.17988  Biso   1.000  O
  O21      1.0000 0.20360  0.85610  0.67363  Biso   1.000  O
  O22      1.0000 0.79640  0.14390  0.32637  Biso   1.000  O
  O23      1.0000 0.00820  0.30063  0.25897  Biso   1.000  O
  O24      1.0000 0.99180  0.69937  0.74103  Biso   1.000  O
  O25      1.0000 0.97130  0.18159  0.44069  Biso   1.000  O
  O26      1.0000 0.02870  0.81841  0.55931  Biso   1.000  O
  O27      1.0000 0.84710  0.22212  0.87026  Biso   1.000  O
  O28      1.0000 0.15290  0.77788  0.12974  Biso   1.000  O
  O29      1.0000 0.46880  0.57938  0.01656  Biso   1.000  O
  O30      1.0000 0.53120  0.42062  0.98344  Biso   1.000  O
  O31      1.0000 0.46560  0.84621  0.72496  Biso   1.000  O
  O32      1.0000 0.53440  0.15379  0.27504  Biso   1.000  O
  H1       1.0000 0.44070  0.80010  0.76800  Biso   1.000  H
  H2       1.0000 0.55930  0.19990  0.23200  Biso   1.000  H
  O33      1.0000 0.99790  0.45201  0.16761  Biso   1.000  O
  O34      1.0000 0.00210  0.54799  0.83239  Biso   1.000  O
  H3       1.0000 0.89980  0.44940  0.15640  Biso   1.000  H
  H4       1.0000 0.10020  0.55060  0.84360  Biso   1.000  H
  O35      1.0000 0.87680  0.22856  0.54294  Biso   1.000  O
  O36      1.0000 0.12320  0.77144  0.45706  Biso   1.000  O
  H5       1.0000 0.92540  0.27340  0.53710  Biso   1.000  H
  H6       1.0000 0.07460  0.72660  0.46290  Biso   1.000  H
  O37      1.0000 0.86550  0.23274  0.73456  Biso   1.000  O
  O38      1.0000 0.13450  0.76726  0.26544  Biso   1.000  O
  H7       1.0000 0.76190  0.22790  0.73700  Biso   1.000  H
  H8       1.0000 0.23810  0.77210  0.26300  Biso   1.000  H
  O39      1.0000 0.54620  0.71274  0.90752  Biso   1.000  O
  O40      1.0000 0.45380  0.28726  0.09248  Biso   1.000  O
  H9       1.0000 0.55500  0.75500  0.91600  Biso   1.000  H
  H10      1.0000 0.44500  0.24500  0.08400  Biso   1.000  H
  O41      1.0000 0.49500  0.02163  0.61973  Biso   1.000  O
  O42      1.0000 0.50500  0.97837  0.38027  Biso   1.000  O
  O43      1.0000 0.35440  0.43281  0.15497  Biso   1.000  O
  O44      1.0000 0.64560  0.56719  0.84503  Biso   1.000  O
  O45      1.0000 0.21540  0.18425  0.59664  Biso   1.000  O
  O46      1.0000 0.78460  0.81575  0.40336  Biso   1.000  O
  O47      1.0000 0.20070  0.18105  0.75384  Biso   1.000  O
  O48      1.0000 0.79930  0.81895  0.24616  Biso   1.000  O
  O49      1.0000 0.17210  0.67300  0.03579  Biso   1.000  O
  O50      1.0000 0.82790  0.32700  0.96421  Biso   1.000  O
  O51      1.0000 0.29110  0.00591  0.55096  Biso   1.000  O
  O52      1.0000 0.70890  0.99409  0.44904  Biso   1.000  O
  O53      1.0000 0.30520  0.33333  0.28522  Biso   1.000  O
  O54      1.0000 0.69480  0.66667  0.71478  Biso   1.000  O
  O55      1.0000 0.25290  0.23368  0.45935  Biso   1.000  O
  O56      1.0000 0.74710  0.76632  0.54065  Biso   1.000  O
  O57      1.0000 0.17250  0.23984  0.84407  Biso   1.000  O
  O58      1.0000 0.82750  0.76016  0.15593  Biso   1.000  O
  O59      1.0000 0.34050  0.78780  0.98326  Biso   1.000  O
  O60      1.0000 0.65950  0.21220  0.01674  Biso   1.000  O
  O61      1.0000 0.20330  0.13930  0.32139  Biso   1.000  O
  O62      1.0000 0.79670  0.86070  0.67861  Biso   1.000  O
  H11      1.0000 0.18700  0.08300  0.36300  Biso   1.000  H
  H12      1.0000 0.81300  0.91700  0.63700  Biso   1.000  H
  H13      1.0000 0.30200  0.14500  0.30400  Biso   1.000  H
  H14      1.0000 0.69800  0.85500  0.69600  Biso   1.000  H
  O63      1.0000 0.99790  0.87151  0.96257  Biso   1.000  O
  O64      1.0000 0.00210  0.12849  0.03743  Biso   1.000  O
  H15      1.0000 0.94900  0.91600  0.95800  Biso   1.000  H
  H16      1.0000 0.05100  0.08400  0.04200  Biso   1.000  H
  H17      1.0000 0.02600  0.87600  0.91800  Biso   1.000  H
  H18      1.0000 0.97400  0.12400  0.08200  Biso   1.000  H
  O65      1.0000 0.31160  0.97870  0.92505  Biso   1.000  O
  O66      1.0000 0.68840  0.02130  0.07495  Biso   1.000  O
  H19      1.0000 0.31700  0.98100  0.87900  Biso   1.000  H
  H20      1.0000 0.68300  0.01900  0.12100  Biso   1.000  H
  H21      1.0000 0.34400  0.01200  0.93000  Biso   1.000  H
  H22      1.0000 0.65600  0.98800  0.07000  Biso   1.000  H
  O67      1.0000 0.02970  0.58310  0.22167  Biso   1.000  O
  O68      1.0000 0.97030  0.41690  0.77833  Biso   1.000  O
  H23      1.0000 0.13950  0.57500  0.23200  Biso   1.000  H
  H24      1.0000 0.86050  0.42500  0.76800  Biso   1.000  H
  H25      1.0000 0.01700  0.53720  0.20900  Biso   1.000  H
  H26      1.0000 0.98300  0.46280  0.79100  Biso   1.000  H
  O69      1.0000 0.82480  0.67089  0.06194  Biso   1.000  O
  O70      1.0000 0.17520  0.32911  0.93806  Biso   1.000  O
  H27      1.0000 0.84800  0.64100  0.03300  Biso   1.000  H
  H28      1.0000 0.15200  0.35900  0.96700  Biso   1.000  H
  H29      1.0000 0.75800  0.64000  0.09500  Biso   1.000  H
  H30      1.0000 0.24200  0.36000  0.90500  Biso   1.000  H
  O71      1.0000 0.61020  0.16542  0.49279  Biso   1.000  O
  O72      1.0000 0.38980  0.83458  0.50721  Biso   1.000  O
  H31      1.0000 0.53600  0.17500  0.45340  Biso   1.000  H
  H32      1.0000 0.46400  0.82500  0.54660  Biso   1.000  H
  H33      1.0000 0.55900  0.12260  0.53770  Biso   1.000  H
  H34      1.0000 0.44100  0.87740  0.46230  Biso   1.000  H
  O73      1.0000 0.53200  0.88020  0.06020  Biso   1.000  O
  O74      1.0000 0.46800  0.11980  0.93980  Biso   1.000  O
  H35      1.0000 0.54000  0.84700  0.10600  Biso   1.000  H
  H36      1.0000 0.46000  0.15300  0.89400  Biso   1.000  H
  H37      1.0000 0.50600  0.86200  0.11400  Biso   1.000  H
  H38      1.0000 0.49400  0.13800  0.88600  Biso   1.000  H
  O75      1.0000 0.00290  0.39220  0.38370  Biso   1.000  O
  O76      1.0000 0.99710  0.60780  0.61630  Biso   1.000  O
  O77      1.0000 0.33800  0.14200  0.08280  Biso   1.000  O
  O78      1.0000 0.66200  0.85800  0.91720  Biso   1.000  O
  H39      1.0000 0.25200  0.15700  0.07400  Biso   1.000  H
  H40      1.0000 0.74800  0.84300  0.92600  Biso   1.000  H
  H41      1.0000 0.34200  0.09300  0.12900  Biso   1.000  H
  H42      1.0000 0.65800  0.90700  0.87100  Biso   1.000  H
  O79      1.0000 0.65940  0.00020  0.75892  Biso   1.000  O
  O80      1.0000 0.34060  0.99980  0.24108  Biso   1.000  O
  H43      1.0000 0.76000  0.99800  0.74300  Biso   1.000  H
  H44      1.0000 0.24000  0.00200  0.25700  Biso   1.000  H
  H45      1.0000 0.59400  0.99200  0.72800  Biso   1.000  H
  H46      1.0000 0.40600  0.00800  0.27200  Biso   1.000  H
  O81      1.0000 0.65170  0.38810  0.29080  Biso   1.000  O
  O82      1.0000 0.34830  0.61190  0.70920  Biso   1.000  O
  O83      1.0000 0.58940  0.56450  0.15918  Biso   1.000  O
  O84      1.0000 0.41060  0.43550  0.84082  Biso   1.000  O
  O85      1.0000 0.42410  0.83520  0.24870  Biso   1.000  O
  O86      1.0000 0.57590  0.16480  0.75130  Biso   1.000  O
  H47      1.0000 0.51100  0.81900  0.26800  Biso   1.000  H
  H48      1.0000 0.48900  0.18100  0.73200  Biso   1.000  H
  H49      1.0000 0.41800  0.89200  0.24700  Biso   1.000  H
  H50      1.0000 0.58200  0.10800  0.75300  Biso   1.000  H
  O87      1.0000 0.35340  0.61730  0.24540  Biso   1.000  O
  O88      1.0000 0.64660  0.38270  0.75460  Biso   1.000  O
  O89      1.0000 0.05850  0.60590  0.45870  Biso   1.000  O
  O90      1.0000 0.94150  0.39410  0.54130  Biso   1.000  O
  O91      1.0000 0.45700  0.38600  0.63200  Biso   1.000  O
  O92      1.0000 0.54300  0.61400  0.36800  Biso   1.000  O
  O93      1.0000 0.47780  0.28930  0.58970  Biso   1.000  O
  O94      1.0000 0.52220  0.71070  0.41030  Biso   1.000  O
  O95      1.0000 0.26400  0.48850  0.40100  Biso   1.000  O
  O96      1.0000 0.73600  0.51150  0.59900  Biso   1.000  O
  O97      1.0000 0.81310  0.58150  0.36270  Biso   1.000  O
  O98      1.0000 0.18690  0.41850  0.63730  Biso   1.000  O
  O99      1.0000 0.59900  0.42270  0.60740  Biso   1.000  O
  O100     1.0000 0.40100  0.57730  0.39260  Biso   1.000  O
  O101     1.0000 0.38600  0.33480  0.57140  Biso   1.000  O
  O102     1.0000 0.61400  0.66520  0.42860  Biso   1.000  O
  O103     1.0000 0.57700  0.41760  0.43900  Biso   1.000  O
  O104     1.0000 0.42300  0.58240  0.56100  Biso   1.000  O
  O105     1.0000 0.50000  0.42100  0.49420  Biso   1.000  O
  O106     1.0000 0.50000  0.57900  0.50580  Biso   1.000  O
  O107     1.0000 0.67900  0.42500  0.42400  Biso   1.000  O
  O108     1.0000 0.32100  0.57500  0.57600  Biso   1.000  O
  O109     1.0000 0.49300  0.32110  0.41240  Biso   1.000  O
  O110     1.0000 0.50700  0.67890  0.58760  Biso   1.000  O
  O111     1.0000 0.46600  0.69050  0.20070  Biso   1.000  O
  O112     1.0000 0.53400  0.30950  0.79930  Biso   1.000  O
  O113     1.0000 0.89800  0.55360  0.37850  Biso   1.000  O
  O114     1.0000 0.10200  0.44640  0.62150  Biso   1.000  O
