data_image0
_cell_length_a       6.9122
_cell_length_b       10.0328
_cell_length_c       16.7456
_cell_angle_alpha    86.822
_cell_angle_beta     84.21
_cell_angle_gamma    80.771

_symmetry_space_group_name_H-M    "P 1"
_symmetry_int_tables_number       1

loop_
  _symmetry_equiv_pos_as_xyz
  'x, y, z'

loop_
  _atom_site_label
  _atom_site_occupancy
  _atom_site_fract_x
  _atom_site_fract_y
  _atom_site_fract_z
  _atom_site_thermal_displace_type
  _atom_site_B_iso_or_equiv
  _atom_site_type_symbol
  Cu1      1.0000 0.06345  0.16501  0.24747  Biso   1.000  Cu
  Cu2      1.0000 0.93655  0.83499  0.75253  Biso   1.000  Cu
  O1       1.0000 0.74460  0.07048  0.26910  Biso   1.000  O
  O2       1.0000 0.25540  0.92952  0.73090  Biso   1.000  O
  O3       1.0000 0.94590  0.35317  0.24333  Biso   1.000  O
  O4       1.0000 0.05410  0.64683  0.75667  Biso   1.000  O
  O5       1.0000 0.19180  0.46515  0.26226  Biso   1.000  O
  O6       1.0000 0.80820  0.53485  0.73774  Biso   1.000  O
  O7       1.0000 0.05280  0.96685  0.25491  Biso   1.000  O
  O8       1.0000 0.94720  0.03315  0.74509  Biso   1.000  O
  O9       1.0000 0.38840  0.20700  0.22304  Biso   1.000  O
  O10      1.0000 0.61160  0.79300  0.77696  Biso   1.000  O
  H1       1.0000 0.48900  0.16500  0.23980  Biso   1.000  H
  H2       1.0000 0.51100  0.83500  0.76020  Biso   1.000  H
  H3       1.0000 0.36200  0.28750  0.23380  Biso   1.000  H
  H4       1.0000 0.63800  0.71250  0.76620  Biso   1.000  H
  N1       1.0000 0.70190  0.43640  0.99097  Biso   1.000  N
  N2       1.0000 0.29810  0.56360  0.00903  Biso   1.000  N
  N3       1.0000 0.69420  0.43060  0.50868  Biso   1.000  N
  N4       1.0000 0.30580  0.56940  0.49132  Biso   1.000  N
  N5       1.0000 0.07350  0.15690  0.12699  Biso   1.000  N
  N6       1.0000 0.92650  0.84310  0.87301  Biso   1.000  N
  N7       1.0000 0.08510  0.16130  0.36631  Biso   1.000  N
  N8       1.0000 0.91490  0.83870  0.63369  Biso   1.000  N
  C1       1.0000 0.84740  0.34720  0.55036  Biso   1.000  C
  C2       1.0000 0.15260  0.65280  0.44964  Biso   1.000  C
  H5       1.0000 0.78530  0.29880  0.59670  Biso   1.000  H
  H6       1.0000 0.21470  0.70120  0.40330  Biso   1.000  H
  H7       1.0000 0.93030  0.40630  0.57150  Biso   1.000  H
  H8       1.0000 0.06970  0.59370  0.42850  Biso   1.000  H
  C3       1.0000 0.87070  0.35820  0.94744  Biso   1.000  C
  C4       1.0000 0.12930  0.64180  0.05256  Biso   1.000  C
  H9       1.0000 0.96020  0.42060  0.92370  Biso   1.000  H
  H10      1.0000 0.03980  0.57940  0.07630  Biso   1.000  H
  H11      1.0000 0.82460  0.31500  0.90270  Biso   1.000  H
  H12      1.0000 0.17540  0.68500  0.09730  Biso   1.000  H
  C5       1.0000 0.12320  0.15090  0.96156  Biso   1.000  C
  C6       1.0000 0.87680  0.84910  0.03844  Biso   1.000  C
  H13      1.0000 0.14120  0.14860  0.90460  Biso   1.000  H
  H14      1.0000 0.85880  0.85140  0.09540  Biso   1.000  H
  C7       1.0000 0.53270  0.35780  0.49701  Biso   1.000  C
  C8       1.0000 0.46730  0.64220  0.50299  Biso   1.000  C
  H15      1.0000 0.46810  0.33220  0.54980  Biso   1.000  H
  H16      1.0000 0.53190  0.66780  0.45020  Biso   1.000  H
  H17      1.0000 0.58500  0.27410  0.46830  Biso   1.000  H
  H18      1.0000 0.41500  0.72590  0.53170  Biso   1.000  H
  C9       1.0000 0.23440  0.05540  0.00767  Biso   1.000  C
  C10      1.0000 0.76560  0.94460  0.99233  Biso   1.000  C
  H19      1.0000 0.32870  0.98670  0.98320  Biso   1.000  H
  H20      1.0000 0.67130  0.01330  0.01680  Biso   1.000  H
  C11      1.0000 0.54140  0.35890  0.01158  Biso   1.000  C
  C12      1.0000 0.45860  0.64110  0.98842  Biso   1.000  C
  H21      1.0000 0.58810  0.27740  0.04460  Biso   1.000  H
  H22      1.0000 0.41190  0.72260  0.95540  Biso   1.000  H
  H23      1.0000 0.49780  0.32900  0.96190  Biso   1.000  H
  H24      1.0000 0.50220  0.67100  0.03810  Biso   1.000  H
  C13      1.0000 0.98600  0.24970  0.99791  Biso   1.000  C
  C14      1.0000 0.01400  0.75030  0.00209  Biso   1.000  C
  C15      1.0000 0.61530  0.55390  0.55103  Biso   1.000  C
  C16      1.0000 0.38470  0.44610  0.44897  Biso   1.000  C
  H25      1.0000 0.72390  0.60370  0.55920  Biso   1.000  H
  H26      1.0000 0.27610  0.39630  0.44080  Biso   1.000  H
  H27      1.0000 0.55140  0.53040  0.60440  Biso   1.000  H
  H28      1.0000 0.44860  0.46960  0.39560  Biso   1.000  H
  C17      1.0000 0.62890  0.55670  0.94262  Biso   1.000  C
  C18      1.0000 0.37110  0.44330  0.05738  Biso   1.000  C
  H29      1.0000 0.58630  0.52900  0.89220  Biso   1.000  H
  H30      1.0000 0.41370  0.47100  0.10780  Biso   1.000  H
  H31      1.0000 0.73600  0.61090  0.92840  Biso   1.000  H
  H32      1.0000 0.26400  0.38910  0.07160  Biso   1.000  H
  C19      1.0000 0.11340  0.14640  0.53032  Biso   1.000  C
  C20      1.0000 0.88660  0.85360  0.46968  Biso   1.000  C
  H33      1.0000 0.12340  0.14020  0.58660  Biso   1.000  H
  H34      1.0000 0.87660  0.85980  0.41340  Biso   1.000  H
  C21      1.0000 0.97670  0.24530  0.49772  Biso   1.000  C
  C22      1.0000 0.02330  0.75470  0.50228  Biso   1.000  C
  C23      1.0000 0.60130  0.82730  0.24824  Biso   1.000  C
  C24      1.0000 0.39870  0.17270  0.75176  Biso   1.000  C
  H35      1.0000 0.50880  0.90830  0.24770  Biso   1.000  H
  H36      1.0000 0.49120  0.09170  0.75230  Biso   1.000  H
  C25      1.0000 0.20530  0.06230  0.09015  Biso   1.000  C
  C26      1.0000 0.79470  0.93770  0.90985  Biso   1.000  C
  H37      1.0000 0.28220  0.99710  0.12210  Biso   1.000  H
  H38      1.0000 0.71780  0.00290  0.87790  Biso   1.000  H
  C27      1.0000 0.87020  0.58850  0.25201  Biso   1.000  C
  C28      1.0000 0.12980  0.41150  0.74799  Biso   1.000  C
  C29      1.0000 0.67370  0.58510  0.24274  Biso   1.000  C
  C30      1.0000 0.32630  0.41490  0.75726  Biso   1.000  C
  H39      1.0000 0.63040  0.50100  0.23770  Biso   1.000  H
  H40      1.0000 0.36960  0.49900  0.76230  Biso   1.000  H
  C31      1.0000 0.23510  0.05670  0.48069  Biso   1.000  C
  C32      1.0000 0.76490  0.94330  0.51931  Biso   1.000  C
  H41      1.0000 0.32970  0.98870  0.50240  Biso   1.000  H
  H42      1.0000 0.67030  0.01130  0.49760  Biso   1.000  H
  C33      1.0000 0.54050  0.70400  0.24079  Biso   1.000  C
  C34      1.0000 0.45950  0.29600  0.75921  Biso   1.000  C
  H43      1.0000 0.40640  0.70080  0.23430  Biso   1.000  H
  H44      1.0000 0.59360  0.29920  0.76570  Biso   1.000  H
  C35      1.0000 0.96900  0.24810  0.41507  Biso   1.000  C
  C36      1.0000 0.03100  0.75190  0.58493  Biso   1.000  C
  H45      1.0000 0.87590  0.31540  0.39180  Biso   1.000  H
  H46      1.0000 0.12410  0.68460  0.60820  Biso   1.000  H
  C37      1.0000 0.86800  0.96640  0.26089  Biso   1.000  C
  C38      1.0000 0.13200  0.03360  0.73911  Biso   1.000  C
  C39      1.0000 0.79970  0.83210  0.25656  Biso   1.000  C
  C40      1.0000 0.20030  0.16790  0.74344  Biso   1.000  C
  C41      1.0000 0.21740  0.06740  0.39949  Biso   1.000  C
  C42      1.0000 0.78260  0.93260  0.60051  Biso   1.000  C
  H47      1.0000 0.30210  0.00590  0.36550  Biso   1.000  H
  H48      1.0000 0.69790  0.99410  0.63450  Biso   1.000  H
  C43      1.0000 0.96490  0.24820  0.08150  Biso   1.000  C
  C44      1.0000 0.03510  0.75180  0.91850  Biso   1.000  C
  H49      1.0000 0.86930  0.31460  0.10750  Biso   1.000  H
  H50      1.0000 0.13070  0.68540  0.89250  Biso   1.000  H
  C45      1.0000 0.93130  0.71260  0.25844  Biso   1.000  C
  C46      1.0000 0.06870  0.28740  0.74156  Biso   1.000  C
  H51      1.0000 0.06580  0.71540  0.26420  Biso   1.000  H
  H52      1.0000 0.93420  0.28460  0.73580  Biso   1.000  H
  C47      1.0000 0.01860  0.46030  0.25266  Biso   1.000  C
  C48      1.0000 0.98140  0.53970  0.74734  Biso   1.000  C
