data_image0
_cell_length_a       6.12
_cell_length_b       7.339
_cell_length_c       7.173
_cell_angle_alpha    90
_cell_angle_beta     90
_cell_angle_gamma    90

_symmetry_space_group_name_H-M    "P 1"
_symmetry_int_tables_number       1

loop_
  _symmetry_equiv_pos_as_xyz
  'x, y, z'

loop_
  _atom_site_label
  _atom_site_occupancy
  _atom_site_fract_x
  _atom_site_fract_y
  _atom_site_fract_z
  _atom_site_thermal_displace_type
  _atom_site_B_iso_or_equiv
  _atom_site_type_symbol
  Cu1      1.0000 0.00000  0.00000  0.50000  Biso   1.000  Cu
  Cu2      1.0000 0.50000  0.50000  0.00000  Biso   1.000  Cu
  N1       1.0000 0.29920  0.58220  0.80080  Biso   1.000  N
  N2       1.0000 0.20080  0.08220  0.30080  Biso   1.000  N
  N3       1.0000 0.79920  0.91780  0.30080  Biso   1.000  N
  N4       1.0000 0.29920  0.58220  0.19920  Biso   1.000  N
  N5       1.0000 0.70080  0.41780  0.19920  Biso   1.000  N
  N6       1.0000 0.79920  0.91780  0.69920  Biso   1.000  N
  N7       1.0000 0.20080  0.08220  0.69920  Biso   1.000  N
  N8       1.0000 0.70080  0.41780  0.80080  Biso   1.000  N
  N9       1.0000 0.16520  0.69250  0.50000  Biso   1.000  N
  N10      1.0000 0.33480  0.19250  0.00000  Biso   1.000  N
  N11      1.0000 0.66520  0.80750  0.00000  Biso   1.000  N
  N12      1.0000 0.83480  0.30750  0.50000  Biso   1.000  N
  C1       1.0000 0.24390  0.62890  0.65610  Biso   1.000  C
  C2       1.0000 0.25610  0.12890  0.15610  Biso   1.000  C
  C3       1.0000 0.74390  0.87110  0.15610  Biso   1.000  C
  C4       1.0000 0.24390  0.62890  0.34390  Biso   1.000  C
  C5       1.0000 0.75610  0.37110  0.34390  Biso   1.000  C
  C6       1.0000 0.74390  0.87110  0.84390  Biso   1.000  C
  C7       1.0000 0.25610  0.12890  0.84390  Biso   1.000  C
  C8       1.0000 0.75610  0.37110  0.65610  Biso   1.000  C
