data_image0
_cell_length_a       6.082
_cell_length_b       7.288
_cell_length_c       7.187
_cell_angle_alpha    90
_cell_angle_beta     90
_cell_angle_gamma    90

_symmetry_space_group_name_H-M    "P 1"
_symmetry_int_tables_number       1

loop_
  _symmetry_equiv_pos_as_xyz
  'x, y, z'

loop_
  _atom_site_label
  _atom_site_occupancy
  _atom_site_fract_x
  _atom_site_fract_y
  _atom_site_fract_z
  _atom_site_thermal_displace_type
  _atom_site_B_iso_or_equiv
  _atom_site_type_symbol
  Cu1      1.0000 0.00000  0.00000  0.50000  Biso   1.000  Cu
  Cu2      1.0000 0.50000  0.50000  0.00000  Biso   1.000  Cu
  N1       1.0000 0.29640  0.57970  0.80090  Biso   1.000  N
  N2       1.0000 0.20360  0.07970  0.30090  Biso   1.000  N
  N3       1.0000 0.79640  0.92030  0.30090  Biso   1.000  N
  N4       1.0000 0.29640  0.57970  0.19910  Biso   1.000  N
  N5       1.0000 0.70360  0.42030  0.19910  Biso   1.000  N
  N6       1.0000 0.79640  0.92030  0.69910  Biso   1.000  N
  N7       1.0000 0.20360  0.07970  0.69910  Biso   1.000  N
  N8       1.0000 0.70360  0.42030  0.80090  Biso   1.000  N
  N9       1.0000 0.15990  0.69160  0.50000  Biso   1.000  N
  N10      1.0000 0.34010  0.19160  0.00000  Biso   1.000  N
  N11      1.0000 0.65990  0.80840  0.00000  Biso   1.000  N
  N12      1.0000 0.84010  0.30840  0.50000  Biso   1.000  N
  C1       1.0000 0.23930  0.62720  0.65620  Biso   1.000  C
  C2       1.0000 0.26070  0.12720  0.15620  Biso   1.000  C
  C3       1.0000 0.73930  0.87280  0.15620  Biso   1.000  C
  C4       1.0000 0.23930  0.62720  0.34380  Biso   1.000  C
  C5       1.0000 0.76070  0.37280  0.34380  Biso   1.000  C
  C6       1.0000 0.73930  0.87280  0.84380  Biso   1.000  C
  C7       1.0000 0.26070  0.12720  0.84380  Biso   1.000  C
  C8       1.0000 0.76070  0.37280  0.65620  Biso   1.000  C
