data_image0
_cell_length_a       11.9992
_cell_length_b       14.1922
_cell_length_c       10.0039
_cell_angle_alpha    90
_cell_angle_beta     114.224
_cell_angle_gamma    90

_symmetry_space_group_name_H-M    "P 1"
_symmetry_int_tables_number       1

loop_
  _symmetry_equiv_pos_as_xyz
  'x, y, z'

loop_
  _atom_site_label
  _atom_site_occupancy
  _atom_site_fract_x
  _atom_site_fract_y
  _atom_site_fract_z
  _atom_site_thermal_displace_type
  _atom_site_B_iso_or_equiv
  _atom_site_type_symbol
  Cu1      1.0000 0.93178  0.12373  0.72972  Biso   1.000  Cu
  Cu2      1.0000 0.06822  0.62373  0.77028  Biso   1.000  Cu
  Cu3      1.0000 0.06822  0.87627  0.27028  Biso   1.000  Cu
  Cu4      1.0000 0.93178  0.37627  0.22972  Biso   1.000  Cu
  Cl1      1.0000 0.44096  0.27600  0.29931  Biso   1.000  Cl
  Cl2      1.0000 0.55904  0.77600  0.20069  Biso   1.000  Cl
  Cl3      1.0000 0.55904  0.72400  0.70069  Biso   1.000  Cl
  Cl4      1.0000 0.44096  0.22400  0.79931  Biso   1.000  Cl
  Cl5      1.0000 0.53080  0.09226  0.18533  Biso   1.000  Cl
  Cl6      1.0000 0.46920  0.59226  0.31467  Biso   1.000  Cl
  Cl7      1.0000 0.46920  0.90774  0.81467  Biso   1.000  Cl
  Cl8      1.0000 0.53080  0.40774  0.68533  Biso   1.000  Cl
  O1       1.0000 0.15910  0.90190  0.84810  Biso   1.000  O
  O2       1.0000 0.84090  0.40190  0.65190  Biso   1.000  O
  O3       1.0000 0.84090  0.09810  0.15190  Biso   1.000  O
  O4       1.0000 0.15910  0.59810  0.34810  Biso   1.000  O
  O5       1.0000 0.97120  0.29990  0.06100  Biso   1.000  O
  O6       1.0000 0.02880  0.79990  0.43900  Biso   1.000  O
  O7       1.0000 0.02880  0.70010  0.93900  Biso   1.000  O
  O8       1.0000 0.97120  0.20010  0.56100  Biso   1.000  O
  N1       1.0000 0.08150  0.05450  0.80870  Biso   1.000  N
  N2       1.0000 0.91850  0.55450  0.69130  Biso   1.000  N
  N3       1.0000 0.91850  0.94550  0.19130  Biso   1.000  N
  N4       1.0000 0.08150  0.44550  0.30870  Biso   1.000  N
  N5       1.0000 0.85170  0.99880  0.63420  Biso   1.000  N
  N6       1.0000 0.14830  0.49880  0.86580  Biso   1.000  N
  N7       1.0000 0.14830  0.00120  0.36580  Biso   1.000  N
  N8       1.0000 0.85170  0.50120  0.13420  Biso   1.000  N
  N9       1.0000 0.77190  0.16490  0.73650  Biso   1.000  N
  N10      1.0000 0.22810  0.66490  0.76350  Biso   1.000  N
  N11      1.0000 0.22810  0.83510  0.26350  Biso   1.000  N
  N12      1.0000 0.77190  0.33510  0.23650  Biso   1.000  N
  N13      1.0000 0.00790  0.19860  0.90260  Biso   1.000  N
  N14      1.0000 0.99210  0.69860  0.59740  Biso   1.000  N
  N15      1.0000 0.99210  0.80140  0.09740  Biso   1.000  N
  N16      1.0000 0.00790  0.30140  0.40260  Biso   1.000  N
  C1       1.0000 0.13530  0.18340  0.97570  Biso   1.000  C
  C2       1.0000 0.86470  0.68340  0.52430  Biso   1.000  C
  C3       1.0000 0.86470  0.81660  0.02430  Biso   1.000  C
  C4       1.0000 0.13530  0.31660  0.47570  Biso   1.000  C
  C5       1.0000 0.21650  0.23540  0.09170  Biso   1.000  C
  C6       1.0000 0.78350  0.73540  0.40830  Biso   1.000  C
  C7       1.0000 0.78350  0.76460  0.90830  Biso   1.000  C
  C8       1.0000 0.21650  0.26460  0.59170  Biso   1.000  C
  H1       1.0000 0.18910  0.28840  0.12770  Biso   1.000  H
  H2       1.0000 0.81090  0.78840  0.37230  Biso   1.000  H
  H3       1.0000 0.81090  0.71160  0.87230  Biso   1.000  H
  H4       1.0000 0.18910  0.21160  0.62770  Biso   1.000  H
  C9       1.0000 0.34110  0.20830  0.15590  Biso   1.000  C
  C10      1.0000 0.65890  0.70830  0.34410  Biso   1.000  C
  C11      1.0000 0.65890  0.79170  0.84410  Biso   1.000  C
  C12      1.0000 0.34110  0.29170  0.65590  Biso   1.000  C
  C13      1.0000 0.37990  0.13030  0.10340  Biso   1.000  C
  C14      1.0000 0.62010  0.63030  0.39660  Biso   1.000  C
  C15      1.0000 0.62010  0.86970  0.89660  Biso   1.000  C
  C16      1.0000 0.37990  0.36970  0.60340  Biso   1.000  C
  C17      1.0000 0.29820  0.07750  0.98650  Biso   1.000  C
  C18      1.0000 0.70180  0.57750  0.51350  Biso   1.000  C
  C19      1.0000 0.70180  0.92250  0.01350  Biso   1.000  C
  C20      1.0000 0.29820  0.42250  0.48650  Biso   1.000  C
  H5       1.0000 0.32620  0.02440  0.95130  Biso   1.000  H
  H6       1.0000 0.67380  0.52440  0.54870  Biso   1.000  H
  H7       1.0000 0.67380  0.97560  0.04870  Biso   1.000  H
  H8       1.0000 0.32620  0.47560  0.45130  Biso   1.000  H
  C21      1.0000 0.17640  0.10290  0.92250  Biso   1.000  C
  C22      1.0000 0.82360  0.60290  0.57750  Biso   1.000  C
  C23      1.0000 0.82360  0.89710  0.07750  Biso   1.000  C
  C24      1.0000 0.17640  0.39710  0.42250  Biso   1.000  C
  C25      1.0000 0.07510  0.96110  0.79550  Biso   1.000  C
  C26      1.0000 0.92490  0.46110  0.70450  Biso   1.000  C
  C27      1.0000 0.92490  0.03890  0.20450  Biso   1.000  C
  C28      1.0000 0.07510  0.53890  0.29550  Biso   1.000  C
  C29      1.0000 0.94310  0.92470  0.71400  Biso   1.000  C
  C30      1.0000 0.05690  0.42470  0.78600  Biso   1.000  C
  C31      1.0000 0.05690  0.07530  0.28600  Biso   1.000  C
  C32      1.0000 0.94310  0.57530  0.21400  Biso   1.000  C
  H9       1.0000 0.91760  0.89410  0.78590  Biso   1.000  H
  H10      1.0000 0.08240  0.39410  0.71410  Biso   1.000  H
  H11      1.0000 0.08240  0.10590  0.21410  Biso   1.000  H
  H12      1.0000 0.91760  0.60590  0.28590  Biso   1.000  H
  H13      1.0000 0.94230  0.87600  0.64280  Biso   1.000  H
  H14      1.0000 0.05770  0.37600  0.85720  Biso   1.000  H
  H15      1.0000 0.05770  0.12400  0.35720  Biso   1.000  H
  H16      1.0000 0.94230  0.62400  0.14280  Biso   1.000  H
  C33      1.0000 0.82030  0.99470  0.47590  Biso   1.000  C
  C34      1.0000 0.17970  0.49470  0.02410  Biso   1.000  C
  C35      1.0000 0.17970  0.00530  0.52410  Biso   1.000  C
  C36      1.0000 0.82030  0.50530  0.97590  Biso   1.000  C
  H17      1.0000 0.76080  0.04420  0.42590  Biso   1.000  H
  H18      1.0000 0.23920  0.54420  0.07410  Biso   1.000  H
  H19      1.0000 0.23920  0.95580  0.57410  Biso   1.000  H
  H20      1.0000 0.76080  0.45580  0.92590  Biso   1.000  H
  H21      1.0000 0.89420  0.00410  0.45870  Biso   1.000  H
  H22      1.0000 0.10580  0.50410  0.04130  Biso   1.000  H
  H23      1.0000 0.10580  0.99590  0.54130  Biso   1.000  H
  H24      1.0000 0.89420  0.49590  0.95870  Biso   1.000  H
  H25      1.0000 0.78480  0.93290  0.43780  Biso   1.000  H
  H26      1.0000 0.21520  0.43290  0.06220  Biso   1.000  H
  H27      1.0000 0.21520  0.06710  0.56220  Biso   1.000  H
  H28      1.0000 0.78480  0.56710  0.93780  Biso   1.000  H
  C37      1.0000 0.73920  0.99580  0.66380  Biso   1.000  C
  C38      1.0000 0.26080  0.49580  0.83620  Biso   1.000  C
  C39      1.0000 0.26080  0.00420  0.33620  Biso   1.000  C
  C40      1.0000 0.73920  0.50420  0.16380  Biso   1.000  C
  H29      1.0000 0.66660  0.00720  0.57120  Biso   1.000  H
  H30      1.0000 0.33340  0.50720  0.92880  Biso   1.000  H
  H31      1.0000 0.33340  0.99280  0.42880  Biso   1.000  H
  H32      1.0000 0.66660  0.49280  0.07120  Biso   1.000  H
  H33      1.0000 0.73100  0.93230  0.69960  Biso   1.000  H
  H34      1.0000 0.26900  0.43230  0.80040  Biso   1.000  H
  H35      1.0000 0.26900  0.06770  0.30040  Biso   1.000  H
  H36      1.0000 0.73100  0.56770  0.19960  Biso   1.000  H
  C41      1.0000 0.74240  0.06900  0.77700  Biso   1.000  C
  C42      1.0000 0.25760  0.56900  0.72300  Biso   1.000  C
  C43      1.0000 0.25760  0.93100  0.22300  Biso   1.000  C
  C44      1.0000 0.74240  0.43100  0.27700  Biso   1.000  C
  H37      1.0000 0.80490  0.05090  0.87460  Biso   1.000  H
  H38      1.0000 0.19510  0.55090  0.62540  Biso   1.000  H
  H39      1.0000 0.19510  0.94910  0.12540  Biso   1.000  H
  H40      1.0000 0.80490  0.44910  0.37460  Biso   1.000  H
  H41      1.0000 0.66210  0.07090  0.78290  Biso   1.000  H
  H42      1.0000 0.33790  0.57090  0.71710  Biso   1.000  H
  H43      1.0000 0.33790  0.92910  0.21710  Biso   1.000  H
  H44      1.0000 0.66210  0.42910  0.28290  Biso   1.000  H
  C45      1.0000 0.66870  0.20000  0.60530  Biso   1.000  C
  C46      1.0000 0.33130  0.70000  0.89470  Biso   1.000  C
  C47      1.0000 0.33130  0.80000  0.39470  Biso   1.000  C
  C48      1.0000 0.66870  0.30000  0.10530  Biso   1.000  C
  H45      1.0000 0.65000  0.15450  0.52510  Biso   1.000  H
  H46      1.0000 0.35000  0.65450  0.97490  Biso   1.000  H
  H47      1.0000 0.35000  0.84550  0.47490  Biso   1.000  H
  H48      1.0000 0.65000  0.34550  0.02510  Biso   1.000  H
  H49      1.0000 0.59690  0.20790  0.62740  Biso   1.000  H
  H50      1.0000 0.40310  0.70790  0.87260  Biso   1.000  H
  H51      1.0000 0.40310  0.79210  0.37260  Biso   1.000  H
  H52      1.0000 0.59690  0.29210  0.12740  Biso   1.000  H
  H53      1.0000 0.69050  0.26070  0.57590  Biso   1.000  H
  H54      1.0000 0.30950  0.76070  0.92410  Biso   1.000  H
  H55      1.0000 0.30950  0.73930  0.42410  Biso   1.000  H
  H56      1.0000 0.69050  0.23930  0.07590  Biso   1.000  H
  C49      1.0000 0.80160  0.23320  0.85900  Biso   1.000  C
  C50      1.0000 0.19840  0.73320  0.64100  Biso   1.000  C
  C51      1.0000 0.19840  0.76680  0.14100  Biso   1.000  C
  C52      1.0000 0.80160  0.26680  0.35900  Biso   1.000  C
  H57      1.0000 0.76510  0.29490  0.81790  Biso   1.000  H
  H58      1.0000 0.23490  0.79490  0.68210  Biso   1.000  H
  H59      1.0000 0.23490  0.70510  0.18210  Biso   1.000  H
  H60      1.0000 0.76510  0.20510  0.31790  Biso   1.000  H
  H61      1.0000 0.76290  0.21140  0.92390  Biso   1.000  H
  H62      1.0000 0.23710  0.71140  0.57610  Biso   1.000  H
  H63      1.0000 0.23710  0.78860  0.07610  Biso   1.000  H
  H64      1.0000 0.76290  0.28860  0.42390  Biso   1.000  H
  C53      1.0000 0.93830  0.24710  0.95160  Biso   1.000  C
  C54      1.0000 0.06170  0.74710  0.54840  Biso   1.000  C
  C55      1.0000 0.06170  0.75290  0.04840  Biso   1.000  C
  C56      1.0000 0.93830  0.25290  0.45160  Biso   1.000  C
