data_image0
_cell_length_a       9.0198
_cell_length_b       19.23
_cell_length_c       12.41
_cell_angle_alpha    90
_cell_angle_beta     93.14
_cell_angle_gamma    90

_symmetry_space_group_name_H-M    "P 1"
_symmetry_int_tables_number       1

loop_
  _symmetry_equiv_pos_as_xyz
  'x, y, z'

loop_
  _atom_site_label
  _atom_site_occupancy
  _atom_site_fract_x
  _atom_site_fract_y
  _atom_site_fract_z
  _atom_site_thermal_displace_type
  _atom_site_B_iso_or_equiv
  _atom_site_type_symbol
  C1       1.0000 0.56260  0.81605  0.82028  Biso   1.000  C
  C2       1.0000 0.93740  0.31605  0.67972  Biso   1.000  C
  C3       1.0000 0.43740  0.18395  0.17972  Biso   1.000  C
  C4       1.0000 0.06260  0.68395  0.32028  Biso   1.000  C
  H1       1.0000 0.58570  0.85510  0.78020  Biso   1.000  H
  H2       1.0000 0.91430  0.35510  0.71980  Biso   1.000  H
  H3       1.0000 0.41430  0.14490  0.21980  Biso   1.000  H
  H4       1.0000 0.08570  0.64490  0.28020  Biso   1.000  H
  C5       1.0000 0.87300  0.95558  0.80844  Biso   1.000  C
  C6       1.0000 0.62700  0.45558  0.69156  Biso   1.000  C
  C7       1.0000 0.12700  0.04442  0.19156  Biso   1.000  C
  C8       1.0000 0.37300  0.54442  0.30844  Biso   1.000  C
  H5       1.0000 0.86490  0.98110  0.87150  Biso   1.000  H
  H6       1.0000 0.63510  0.48110  0.62850  Biso   1.000  H
  H7       1.0000 0.13510  0.01890  0.12850  Biso   1.000  H
  H8       1.0000 0.36490  0.51890  0.37150  Biso   1.000  H
  C9       1.0000 0.63310  0.86879  0.26409  Biso   1.000  C
  C10      1.0000 0.86690  0.36879  0.23591  Biso   1.000  C
  C11      1.0000 0.36690  0.13121  0.73591  Biso   1.000  C
  C12      1.0000 0.13310  0.63121  0.76409  Biso   1.000  C
  H9       1.0000 0.61810  0.82720  0.22690  Biso   1.000  H
  H10      1.0000 0.88190  0.32720  0.27310  Biso   1.000  H
  H11      1.0000 0.38190  0.17280  0.77310  Biso   1.000  H
  H12      1.0000 0.11810  0.67280  0.72690  Biso   1.000  H
  C13      1.0000 0.79060  0.90905  0.11083  Biso   1.000  C
  C14      1.0000 0.70940  0.40905  0.38917  Biso   1.000  C
  C15      1.0000 0.20940  0.09095  0.88917  Biso   1.000  C
  C16      1.0000 0.29060  0.59095  0.61083  Biso   1.000  C
  C17      1.0000 0.15070  0.88252  0.99111  Biso   1.000  C
  C18      1.0000 0.34930  0.38252  0.50889  Biso   1.000  C
  C19      1.0000 0.84930  0.11748  0.00889  Biso   1.000  C
  C20      1.0000 0.65070  0.61748  0.49111  Biso   1.000  C
  H13      1.0000 0.12640  0.91800  0.94240  Biso   1.000  H
  H14      1.0000 0.37360  0.41800  0.55760  Biso   1.000  H
  H15      1.0000 0.87360  0.08200  0.05760  Biso   1.000  H
  H16      1.0000 0.62640  0.58200  0.44240  Biso   1.000  H
  C21      1.0000 0.59090  0.94049  0.42073  Biso   1.000  C
  C22      1.0000 0.90910  0.44049  0.07927  Biso   1.000  C
  C23      1.0000 0.40910  0.05951  0.57927  Biso   1.000  C
  C24      1.0000 0.09090  0.55951  0.92073  Biso   1.000  C
  H17      1.0000 0.55010  0.94670  0.48730  Biso   1.000  H
  H18      1.0000 0.94990  0.44670  0.01270  Biso   1.000  H
  H19      1.0000 0.44990  0.05330  0.51270  Biso   1.000  H
  H20      1.0000 0.05010  0.55330  0.98730  Biso   1.000  H
  C25      1.0000 0.56630  0.87852  0.36365  Biso   1.000  C
  C26      1.0000 0.93370  0.37852  0.13635  Biso   1.000  C
  C27      1.0000 0.43370  0.12148  0.63635  Biso   1.000  C
  C28      1.0000 0.06630  0.62148  0.86365  Biso   1.000  C
  C29      1.0000 0.72100  0.92039  0.22068  Biso   1.000  C
  C30      1.0000 0.77900  0.42039  0.27932  Biso   1.000  C
  C31      1.0000 0.27900  0.07961  0.77932  Biso   1.000  C
  C32      1.0000 0.22100  0.57961  0.72068  Biso   1.000  C
  C33      1.0000 0.74080  0.98283  0.27703  Biso   1.000  C
  C34      1.0000 0.75920  0.48283  0.22297  Biso   1.000  C
  C35      1.0000 0.25920  0.01717  0.72297  Biso   1.000  C
  C36      1.0000 0.24080  0.51717  0.77703  Biso   1.000  C
  H21      1.0000 0.79680  0.01820  0.24830  Biso   1.000  H
  H22      1.0000 0.70320  0.51820  0.25170  Biso   1.000  H
  H23      1.0000 0.20320  0.98180  0.75170  Biso   1.000  H
  H24      1.0000 0.29680  0.48180  0.74830  Biso   1.000  H
  C37      1.0000 0.47000  0.82236  0.41053  Biso   1.000  C
  C38      1.0000 0.03000  0.32236  0.08947  Biso   1.000  C
  C39      1.0000 0.53000  0.17764  0.58947  Biso   1.000  C
  C40      1.0000 0.97000  0.67764  0.91053  Biso   1.000  C
  C41      1.0000 0.14170  0.78936  0.08824  Biso   1.000  C
  C42      1.0000 0.35830  0.28936  0.41176  Biso   1.000  C
  C43      1.0000 0.85830  0.21064  0.91176  Biso   1.000  C
  C44      1.0000 0.64170  0.71064  0.58824  Biso   1.000  C
  H25      1.0000 0.10720  0.74840  0.11770  Biso   1.000  H
  H26      1.0000 0.39280  0.24840  0.38230  Biso   1.000  H
  H27      1.0000 0.89280  0.25160  0.88230  Biso   1.000  H
  H28      1.0000 0.60720  0.75160  0.61770  Biso   1.000  H
  C45      1.0000 0.43880  0.73001  0.88760  Biso   1.000  C
  C46      1.0000 0.06120  0.23001  0.61240  Biso   1.000  C
  C47      1.0000 0.56120  0.26999  0.11240  Biso   1.000  C
  C48      1.0000 0.93880  0.76999  0.38760  Biso   1.000  C
  H29      1.0000 0.36340  0.69910  0.90260  Biso   1.000  H
  H30      1.0000 0.13660  0.19910  0.59740  Biso   1.000  H
  H31      1.0000 0.63660  0.30090  0.09740  Biso   1.000  H
  H32      1.0000 0.86340  0.80090  0.40260  Biso   1.000  H
  C49      1.0000 0.88850  0.93085  0.63420  Biso   1.000  C
  C50      1.0000 0.61150  0.43085  0.86580  Biso   1.000  C
  C51      1.0000 0.11150  0.06915  0.36580  Biso   1.000  C
  C52      1.0000 0.38850  0.56915  0.13420  Biso   1.000  C
  H33      1.0000 0.89250  0.93450  0.55970  Biso   1.000  H
  H34      1.0000 0.60750  0.43450  0.94030  Biso   1.000  H
  H35      1.0000 0.10750  0.06550  0.44030  Biso   1.000  H
  H36      1.0000 0.39250  0.56550  0.05970  Biso   1.000  H
  C53      1.0000 0.67640  0.99291  0.37779  Biso   1.000  C
  C54      1.0000 0.82360  0.49291  0.12221  Biso   1.000  C
  C55      1.0000 0.32360  0.00709  0.62221  Biso   1.000  C
  C56      1.0000 0.17640  0.50709  0.87779  Biso   1.000  C
  H37      1.0000 0.69140  0.03450  0.41510  Biso   1.000  H
  H38      1.0000 0.80860  0.53450  0.08490  Biso   1.000  H
  H39      1.0000 0.30860  0.96550  0.58490  Biso   1.000  H
  H40      1.0000 0.19140  0.46550  0.91510  Biso   1.000  H
  C57      1.0000 0.29770  0.80560  0.74810  Biso   1.000  C
  C58      1.0000 0.20230  0.30560  0.75190  Biso   1.000  C
  C59      1.0000 0.70230  0.19440  0.25190  Biso   1.000  C
  C60      1.0000 0.79770  0.69440  0.24810  Biso   1.000  C
  H41      1.0000 0.30820  0.85300  0.72540  Biso   1.000  H
  H42      1.0000 0.19180  0.35300  0.77460  Biso   1.000  H
  H43      1.0000 0.69180  0.14700  0.27460  Biso   1.000  H
  H44      1.0000 0.80820  0.64700  0.22540  Biso   1.000  H
  H45      1.0000 0.20940  0.80100  0.78730  Biso   1.000  H
  H46      1.0000 0.29060  0.30100  0.71270  Biso   1.000  H
  H47      1.0000 0.79060  0.19900  0.21270  Biso   1.000  H
  H48      1.0000 0.70940  0.69900  0.28730  Biso   1.000  H
  H49      1.0000 0.29060  0.77590  0.68590  Biso   1.000  H
  H50      1.0000 0.20940  0.27590  0.81410  Biso   1.000  H
  H51      1.0000 0.70940  0.22410  0.31410  Biso   1.000  H
  H52      1.0000 0.79060  0.72410  0.18590  Biso   1.000  H
  C61      1.0000 0.27430  0.81940  0.11530  Biso   1.000  C
  C62      1.0000 0.22570  0.31940  0.38470  Biso   1.000  C
  C63      1.0000 0.72570  0.18060  0.88470  Biso   1.000  C
  C64      1.0000 0.77430  0.68060  0.61530  Biso   1.000  C
  H53      1.0000 0.34700  0.80360  0.16550  Biso   1.000  H
  H54      1.0000 0.15300  0.30360  0.33450  Biso   1.000  H
  H55      1.0000 0.65300  0.19640  0.83450  Biso   1.000  H
  H56      1.0000 0.84700  0.69640  0.66550  Biso   1.000  H
  C65      1.0000 0.89380  0.87144  0.69450  Biso   1.000  C
  C66      1.0000 0.60620  0.37144  0.80550  Biso   1.000  C
  C67      1.0000 0.10620  0.12856  0.30550  Biso   1.000  C
  C68      1.0000 0.39380  0.62856  0.19450  Biso   1.000  C
  H57      1.0000 0.90300  0.82680  0.66670  Biso   1.000  H
  H58      1.0000 0.59700  0.32680  0.83330  Biso   1.000  H
  H59      1.0000 0.09700  0.17320  0.33330  Biso   1.000  H
  H60      1.0000 0.40300  0.67320  0.16670  Biso   1.000  H
  C69      1.0000 0.40130  0.92791  0.04770  Biso   1.000  C
  C70      1.0000 0.09870  0.42791  0.45230  Biso   1.000  C
  C71      1.0000 0.59870  0.07209  0.95230  Biso   1.000  C
  C72      1.0000 0.90130  0.57209  0.54770  Biso   1.000  C
  H61      1.0000 0.37490  0.96400  0.99670  Biso   1.000  H
  H62      1.0000 0.12510  0.46400  0.50330  Biso   1.000  H
  H63      1.0000 0.62510  0.03600  0.00330  Biso   1.000  H
  H64      1.0000 0.87490  0.53600  0.49670  Biso   1.000  H
  H65      1.0000 0.48800  0.90410  0.02560  Biso   1.000  H
  H66      1.0000 0.01200  0.40410  0.47440  Biso   1.000  H
  H67      1.0000 0.51200  0.09590  0.97440  Biso   1.000  H
  H68      1.0000 0.98800  0.59590  0.52560  Biso   1.000  H
  H69      1.0000 0.42160  0.94810  0.11770  Biso   1.000  H
  H70      1.0000 0.07840  0.44810  0.38230  Biso   1.000  H
  H71      1.0000 0.57840  0.05190  0.88230  Biso   1.000  H
  H72      1.0000 0.92160  0.55190  0.61770  Biso   1.000  H
  C73      1.0000 0.58030  0.72877  0.93050  Biso   1.000  C
  C74      1.0000 0.91970  0.22877  0.56950  Biso   1.000  C
  C75      1.0000 0.41970  0.27123  0.06950  Biso   1.000  C
  C76      1.0000 0.08030  0.77123  0.43050  Biso   1.000  C
  H73      1.0000 0.61860  0.69660  0.98060  Biso   1.000  H
  H74      1.0000 0.88140  0.19660  0.51940  Biso   1.000  H
  H75      1.0000 0.38140  0.30340  0.01940  Biso   1.000  H
  H76      1.0000 0.11860  0.80340  0.48060  Biso   1.000  H
  C77      1.0000 0.86970  0.05846  0.68190  Biso   1.000  C
  C78      1.0000 0.63030  0.55846  0.81810  Biso   1.000  C
  C79      1.0000 0.13030  0.94154  0.31810  Biso   1.000  C
  C80      1.0000 0.36970  0.44154  0.18190  Biso   1.000  C
  H77      1.0000 0.88110  0.08490  0.74740  Biso   1.000  H
  H78      1.0000 0.61890  0.58490  0.75260  Biso   1.000  H
  H79      1.0000 0.11890  0.91510  0.25260  Biso   1.000  H
  H80      1.0000 0.38110  0.41510  0.24740  Biso   1.000  H
  H81      1.0000 0.77570  0.06920  0.64570  Biso   1.000  H
  H82      1.0000 0.72430  0.56920  0.85430  Biso   1.000  H
  H83      1.0000 0.22430  0.93080  0.35430  Biso   1.000  H
  H84      1.0000 0.27570  0.43080  0.14570  Biso   1.000  H
  H85      1.0000 0.94820  0.07000  0.63580  Biso   1.000  H
  H86      1.0000 0.55180  0.57000  0.86420  Biso   1.000  H
  H87      1.0000 0.05180  0.93000  0.36420  Biso   1.000  H
  H88      1.0000 0.44820  0.43000  0.13580  Biso   1.000  H
  Cu1      1.0000 0.86433  0.81029  0.93986  Biso   1.000  Cu
  Cu2      1.0000 0.63567  0.31028  0.56014  Biso   1.000  Cu
  Cu3      1.0000 0.13567  0.18971  0.06014  Biso   1.000  Cu
  Cu4      1.0000 0.36433  0.68971  0.43986  Biso   1.000  Cu
  N1       1.0000 0.65800  0.78279  0.88767  Biso   1.000  N
  N2       1.0000 0.84200  0.28279  0.61233  Biso   1.000  N
  N3       1.0000 0.34200  0.21721  0.11233  Biso   1.000  N
  N4       1.0000 0.15800  0.71721  0.38767  Biso   1.000  N
  N5       1.0000 0.42760  0.78554  0.81789  Biso   1.000  N
  N6       1.0000 0.07240  0.28554  0.68211  Biso   1.000  N
  N7       1.0000 0.57240  0.21446  0.18211  Biso   1.000  N
  N8       1.0000 0.92760  0.71446  0.31789  Biso   1.000  N
  N9       1.0000 0.88328  0.88713  0.80473  Biso   1.000  N
  N10      1.0000 0.61672  0.38713  0.69527  Biso   1.000  N
  N11      1.0000 0.11672  0.11287  0.19527  Biso   1.000  N
  N12      1.0000 0.38328  0.61287  0.30473  Biso   1.000  N
  N13      1.0000 0.87580  0.98426  0.70737  Biso   1.000  N
  N14      1.0000 0.62420  0.48426  0.79263  Biso   1.000  N
  N15      1.0000 0.12420  0.01574  0.29263  Biso   1.000  N
  N16      1.0000 0.37580  0.51574  0.20737  Biso   1.000  N
  N17      1.0000 0.06488  0.82884  0.01003  Biso   1.000  N
  N18      1.0000 0.43512  0.32884  0.48997  Biso   1.000  N
  N19      1.0000 0.93512  0.17116  0.98997  Biso   1.000  N
  N20      1.0000 0.56488  0.67116  0.51003  Biso   1.000  N
  N21      1.0000 0.27870  0.87875  0.05230  Biso   1.000  N
  N22      1.0000 0.22130  0.37875  0.44770  Biso   1.000  N
  N23      1.0000 0.72130  0.12125  0.94770  Biso   1.000  N
  N24      1.0000 0.77870  0.62125  0.55230  Biso   1.000  N
  O1       1.0000 0.77245  0.84817  0.07143  Biso   1.000  O
  O2       1.0000 0.72755  0.34817  0.42857  Biso   1.000  O
  O3       1.0000 0.22755  0.15183  0.92857  Biso   1.000  O
  O4       1.0000 0.27245  0.65183  0.57143  Biso   1.000  O
  O5       1.0000 0.85554  0.95791  0.06868  Biso   1.000  O
  O6       1.0000 0.64446  0.45791  0.43132  Biso   1.000  O
  O7       1.0000 0.14446  0.04209  0.93132  Biso   1.000  O
  O8       1.0000 0.35554  0.54209  0.56868  Biso   1.000  O
  O9       1.0000 0.41306  0.83287  0.50001  Biso   1.000  O
  O10      1.0000 0.08694  0.33287  0.99999  Biso   1.000  O
  O11      1.0000 0.58694  0.16713  0.49999  Biso   1.000  O
  O12      1.0000 0.91306  0.66713  0.00001  Biso   1.000  O
  O13      1.0000 0.45535  0.76690  0.35315  Biso   1.000  O
  O14      1.0000 0.04465  0.26690  0.14685  Biso   1.000  O
  O15      1.0000 0.54465  0.23310  0.64685  Biso   1.000  O
  O16      1.0000 0.95535  0.73310  0.85315  Biso   1.000  O
