data_image0
_cell_length_a       7.7639
_cell_length_b       21.6931
_cell_length_c       8.7016
_cell_angle_alpha    90
_cell_angle_beta     96.731
_cell_angle_gamma    90

_symmetry_space_group_name_H-M    "P 1"
_symmetry_int_tables_number       1

loop_
  _symmetry_equiv_pos_as_xyz
  'x, y, z'

loop_
  _atom_site_label
  _atom_site_occupancy
  _atom_site_fract_x
  _atom_site_fract_y
  _atom_site_fract_z
  _atom_site_thermal_displace_type
  _atom_site_B_iso_or_equiv
  _atom_site_type_symbol
  C1       1.0000 0.96670  0.95140  0.23020  Biso   1.000  C
  C2       1.0000 0.03330  0.45140  0.76980  Biso   1.000  C
  C3       1.0000 0.03330  0.04860  0.76980  Biso   1.000  C
  C4       1.0000 0.96670  0.54860  0.23020  Biso   1.000  C
  H1       1.0000 0.88490  0.91630  0.21520  Biso   1.000  H
  H2       1.0000 0.11510  0.41630  0.78480  Biso   1.000  H
  H3       1.0000 0.11510  0.08370  0.78480  Biso   1.000  H
  H4       1.0000 0.88490  0.58370  0.21520  Biso   1.000  H
  H5       1.0000 0.91130  0.98740  0.17480  Biso   1.000  H
  H6       1.0000 0.08870  0.48740  0.82520  Biso   1.000  H
  H7       1.0000 0.08870  0.01260  0.82520  Biso   1.000  H
  H8       1.0000 0.91130  0.51260  0.17480  Biso   1.000  H
  C5       1.0000 0.13160  0.93520  0.16130  Biso   1.000  C
  C6       1.0000 0.86840  0.43520  0.83870  Biso   1.000  C
  C7       1.0000 0.86840  0.06480  0.83870  Biso   1.000  C
  C8       1.0000 0.13160  0.56480  0.16130  Biso   1.000  C
  H9       1.0000 0.10070  0.92360  0.05150  Biso   1.000  H
  H10      1.0000 0.89930  0.42360  0.94850  Biso   1.000  H
  H11      1.0000 0.89930  0.07640  0.94850  Biso   1.000  H
  H12      1.0000 0.10070  0.57640  0.05150  Biso   1.000  H
  H13      1.0000 0.18510  0.89870  0.21610  Biso   1.000  H
  H14      1.0000 0.81490  0.39870  0.78390  Biso   1.000  H
  H15      1.0000 0.81490  0.10130  0.78390  Biso   1.000  H
  H16      1.0000 0.18510  0.60130  0.21610  Biso   1.000  H
  C9       1.0000 0.26440  0.98650  0.16960  Biso   1.000  C
  C10      1.0000 0.73560  0.48650  0.83040  Biso   1.000  C
  C11      1.0000 0.73560  0.01350  0.83040  Biso   1.000  C
  C12      1.0000 0.26440  0.51350  0.16960  Biso   1.000  C
  H17      1.0000 0.20770  0.02510  0.12950  Biso   1.000  H
  H18      1.0000 0.79230  0.52510  0.87050  Biso   1.000  H
  H19      1.0000 0.79230  0.97490  0.87050  Biso   1.000  H
  H20      1.0000 0.20770  0.47490  0.12950  Biso   1.000  H
  H21      1.0000 0.35570  0.97600  0.10360  Biso   1.000  H
  H22      1.0000 0.64430  0.47600  0.89640  Biso   1.000  H
  H23      1.0000 0.64430  0.02400  0.89640  Biso   1.000  H
  H24      1.0000 0.35570  0.52400  0.10360  Biso   1.000  H
  C13      1.0000 0.37910  0.19409  0.56510  Biso   1.000  C
  C14      1.0000 0.62090  0.69409  0.43490  Biso   1.000  C
  C15      1.0000 0.62090  0.80591  0.43490  Biso   1.000  C
  C16      1.0000 0.37910  0.30591  0.56510  Biso   1.000  C
  C17      1.0000 0.32840  0.25000  0.49640  Biso   1.000  C
  C18      1.0000 0.67160  0.75000  0.50360  Biso   1.000  C
  H25      1.0000 0.25730  0.25000  0.39980  Biso   1.000  H
  H26      1.0000 0.74270  0.75000  0.60020  Biso   1.000  H
  C19      1.0000 0.54210  0.25000  0.77270  Biso   1.000  C
  C20      1.0000 0.45790  0.75000  0.22730  Biso   1.000  C
  H27      1.0000 0.61780  0.25000  0.86680  Biso   1.000  H
  H28      1.0000 0.38220  0.75000  0.13320  Biso   1.000  H
  C21      1.0000 0.48720  0.19464  0.70450  Biso   1.000  C
  C22      1.0000 0.51280  0.69464  0.29550  Biso   1.000  C
  C23      1.0000 0.51280  0.80536  0.29550  Biso   1.000  C
  C24      1.0000 0.48720  0.30536  0.70450  Biso   1.000  C
  H29      1.0000 0.52350  0.15680  0.75310  Biso   1.000  H
  H30      1.0000 0.47650  0.65680  0.24690  Biso   1.000  H
  H31      1.0000 0.47650  0.84320  0.24690  Biso   1.000  H
  H32      1.0000 0.52350  0.34320  0.75310  Biso   1.000  H
  C25      1.0000 0.31060  0.13452  0.49230  Biso   1.000  C
  C26      1.0000 0.68940  0.63452  0.50770  Biso   1.000  C
  C27      1.0000 0.68940  0.86548  0.50770  Biso   1.000  C
  C28      1.0000 0.31060  0.36548  0.49230  Biso   1.000  C
  C29      1.0000 0.16470  0.83670  0.58830  Biso   1.000  C
  C30      1.0000 0.83530  0.33670  0.41170  Biso   1.000  C
  C31      1.0000 0.83530  0.16330  0.41170  Biso   1.000  C
  C32      1.0000 0.16470  0.66330  0.58830  Biso   1.000  C
  H33      1.0000 0.08740  0.85490  0.50320  Biso   1.000  H
  H34      1.0000 0.91260  0.35490  0.49680  Biso   1.000  H
  H35      1.0000 0.91260  0.14510  0.49680  Biso   1.000  H
  H36      1.0000 0.08740  0.64510  0.50320  Biso   1.000  H
  H37      1.0000 0.26820  0.82020  0.54820  Biso   1.000  H
  H38      1.0000 0.73180  0.32020  0.45180  Biso   1.000  H
  H39      1.0000 0.73180  0.17980  0.45180  Biso   1.000  H
  H40      1.0000 0.26820  0.67980  0.54820  Biso   1.000  H
  H41      1.0000 0.10400  0.80320  0.63530  Biso   1.000  H
  H42      1.0000 0.89600  0.30320  0.36470  Biso   1.000  H
  H43      1.0000 0.89600  0.19680  0.36470  Biso   1.000  H
  H44      1.0000 0.10400  0.69680  0.63530  Biso   1.000  H
  C33      1.0000 0.39010  0.85120  0.84560  Biso   1.000  C
  C34      1.0000 0.60990  0.35120  0.15440  Biso   1.000  C
  C35      1.0000 0.60990  0.14880  0.15440  Biso   1.000  C
  C36      1.0000 0.39010  0.64880  0.84560  Biso   1.000  C
  H45      1.0000 0.44190  0.87710  0.93110  Biso   1.000  H
  H46      1.0000 0.55810  0.37710  0.06890  Biso   1.000  H
  H47      1.0000 0.55810  0.12290  0.06890  Biso   1.000  H
  H48      1.0000 0.44190  0.62290  0.93110  Biso   1.000  H
  H49      1.0000 0.33810  0.81460  0.88730  Biso   1.000  H
  H50      1.0000 0.66190  0.31460  0.11270  Biso   1.000  H
  H51      1.0000 0.66190  0.18540  0.11270  Biso   1.000  H
  H52      1.0000 0.33810  0.68540  0.88730  Biso   1.000  H
  H53      1.0000 0.48010  0.83850  0.78200  Biso   1.000  H
  H54      1.0000 0.51990  0.33850  0.21800  Biso   1.000  H
  H55      1.0000 0.51990  0.16150  0.21800  Biso   1.000  H
  H56      1.0000 0.48010  0.66150  0.78200  Biso   1.000  H
  Cu1      1.0000 0.18434  0.01834  0.48257  Biso   1.000  Cu
  Cu2      1.0000 0.81566  0.51834  0.51743  Biso   1.000  Cu
  Cu3      1.0000 0.81566  0.98166  0.51743  Biso   1.000  Cu
  Cu4      1.0000 0.18434  0.48166  0.48257  Biso   1.000  Cu
  N1       1.0000 0.34440  0.99631  0.33040  Biso   1.000  N
  N2       1.0000 0.65560  0.49631  0.66960  Biso   1.000  N
  N3       1.0000 0.65560  0.00369  0.66960  Biso   1.000  N
  N4       1.0000 0.34440  0.50369  0.33040  Biso   1.000  N
  O1       1.0000 0.99860  0.96511  0.38950  Biso   1.000  O
  O2       1.0000 0.00140  0.46511  0.61050  Biso   1.000  O
  O3       1.0000 0.00140  0.03489  0.61050  Biso   1.000  O
  O4       1.0000 0.99860  0.53489  0.38950  Biso   1.000  O
  O5       1.0000 0.33410  0.08612  0.57690  Biso   1.000  O
  O6       1.0000 0.66590  0.58612  0.42310  Biso   1.000  O
  O7       1.0000 0.66590  0.91388  0.42310  Biso   1.000  O
  O8       1.0000 0.33410  0.41388  0.57690  Biso   1.000  O
  O9       1.0000 0.23150  0.13547  0.36010  Biso   1.000  O
  O10      1.0000 0.76850  0.63547  0.63990  Biso   1.000  O
  O11      1.0000 0.76850  0.86453  0.63990  Biso   1.000  O
  O12      1.0000 0.23150  0.36453  0.36010  Biso   1.000  O
  O13      1.0000 0.32560  0.94149  0.65060  Biso   1.000  O
  O14      1.0000 0.67440  0.44149  0.34940  Biso   1.000  O
  O15      1.0000 0.67440  0.05851  0.34940  Biso   1.000  O
  O16      1.0000 0.32560  0.55851  0.65060  Biso   1.000  O
  S1       1.0000 0.22683  0.89386  0.72967  Biso   1.000  S
  S2       1.0000 0.77317  0.39386  0.27033  Biso   1.000  S
  S3       1.0000 0.77317  0.10614  0.27033  Biso   1.000  S
  S4       1.0000 0.22683  0.60614  0.72967  Biso   1.000  S
  S5       1.0000 0.04400  0.22412  0.97980  Biso   1.000  S
  S6       1.0000 0.95600  0.72412  0.02020  Biso   1.000  S
  S7       1.0000 0.95600  0.77588  0.02020  Biso   1.000  S
  S8       1.0000 0.04400  0.27588  0.97980  Biso   1.000  S
  C37      1.0000 0.02080  0.26360  0.79330  Biso   1.000  C
  C38      1.0000 0.97920  0.76360  0.20670  Biso   1.000  C
  C39      1.0000 0.97920  0.73640  0.20670  Biso   1.000  C
  C40      1.0000 0.02080  0.23640  0.79330  Biso   1.000  C
  H57      1.0000 0.08790  0.24180  0.72170  Biso   1.000  H
  H58      1.0000 0.91210  0.74180  0.27830  Biso   1.000  H
  H59      1.0000 0.91210  0.75820  0.27830  Biso   1.000  H
  H60      1.0000 0.08790  0.25820  0.72170  Biso   1.000  H
  H61      1.0000 0.89820  0.26440  0.75080  Biso   1.000  H
  H62      1.0000 0.10180  0.76440  0.24920  Biso   1.000  H
  H63      1.0000 0.10180  0.73560  0.24920  Biso   1.000  H
  H64      1.0000 0.89820  0.23560  0.75080  Biso   1.000  H
  H65      1.0000 0.06390  0.30600  0.80730  Biso   1.000  H
  H66      1.0000 0.93610  0.80600  0.19270  Biso   1.000  H
  H67      1.0000 0.93610  0.69400  0.19270  Biso   1.000  H
  H68      1.0000 0.06390  0.19400  0.80730  Biso   1.000  H
  C41      1.0000 0.20200  0.28530  0.04480  Biso   1.000  C
  C42      1.0000 0.79800  0.78530  0.95520  Biso   1.000  C
  C43      1.0000 0.79800  0.71470  0.95520  Biso   1.000  C
  C44      1.0000 0.20200  0.21470  0.04480  Biso   1.000  C
  H69      1.0000 0.30780  0.27960  0.99510  Biso   1.000  H
  H70      1.0000 0.69220  0.77960  0.00490  Biso   1.000  H
  H71      1.0000 0.69220  0.72040  0.00490  Biso   1.000  H
  H72      1.0000 0.30780  0.22040  0.99510  Biso   1.000  H
  H73      1.0000 0.15160  0.32570  0.01630  Biso   1.000  H
  H74      1.0000 0.84840  0.82570  0.98370  Biso   1.000  H
  H75      1.0000 0.84840  0.67430  0.98370  Biso   1.000  H
  H76      1.0000 0.15160  0.17430  0.01630  Biso   1.000  H
  H77      1.0000 0.23040  0.28310  0.15740  Biso   1.000  H
  H78      1.0000 0.76960  0.78310  0.84260  Biso   1.000  H
  H79      1.0000 0.76960  0.71690  0.84260  Biso   1.000  H
  H80      1.0000 0.23040  0.21690  0.15740  Biso   1.000  H
  O17      1.0000 0.89620  0.25000  0.06230  Biso   1.000  O
  O18      1.0000 0.10380  0.75000  0.93770  Biso   1.000  O
  H81      1.0000 0.39400  0.96210  0.35500  Biso   1.000  H
  H82      1.0000 0.60600  0.46210  0.64500  Biso   1.000  H
  H83      1.0000 0.60600  0.03790  0.64500  Biso   1.000  H
  H84      1.0000 0.39400  0.53790  0.35500  Biso   1.000  H
  H85      1.0000 0.41700  0.02600  0.33100  Biso   1.000  H
  H86      1.0000 0.58300  0.52600  0.66900  Biso   1.000  H
  H87      1.0000 0.58300  0.97400  0.66900  Biso   1.000  H
  H88      1.0000 0.41700  0.47400  0.33100  Biso   1.000  H
