data_image0
_cell_length_a       9.486
_cell_length_b       11.1545
_cell_length_c       11.8539
_cell_angle_alpha    63.275
_cell_angle_beta     69.956
_cell_angle_gamma    82.18

_symmetry_space_group_name_H-M    "P 1"
_symmetry_int_tables_number       1

loop_
  _symmetry_equiv_pos_as_xyz
  'x, y, z'

loop_
  _atom_site_label
  _atom_site_occupancy
  _atom_site_fract_x
  _atom_site_fract_y
  _atom_site_fract_z
  _atom_site_thermal_displace_type
  _atom_site_B_iso_or_equiv
  _atom_site_type_symbol
  Cu1      1.0000 0.98466  0.37280  0.15117  Biso   1.000  Cu
  Cu2      1.0000 0.01534  0.62720  0.84883  Biso   1.000  Cu
  O1       1.0000 0.75200  0.25760  0.40420  Biso   1.000  O
  O2       1.0000 0.24800  0.74240  0.59580  Biso   1.000  O
  O3       1.0000 0.82750  0.46320  0.24470  Biso   1.000  O
  O4       1.0000 0.17250  0.53680  0.75530  Biso   1.000  O
  O5       1.0000 0.87960  0.42210  0.02240  Biso   1.000  O
  O6       1.0000 0.12040  0.57790  0.97760  Biso   1.000  O
  O7       1.0000 0.16410  0.74180  0.37930  Biso   1.000  O
  O8       1.0000 0.83590  0.25820  0.62070  Biso   1.000  O
  N1       1.0000 0.11400  0.22250  0.12350  Biso   1.000  N
  N2       1.0000 0.88600  0.77750  0.87650  Biso   1.000  N
  N3       1.0000 0.11610  0.35690  0.25730  Biso   1.000  N
  N4       1.0000 0.88390  0.64310  0.74270  Biso   1.000  N
  N5       1.0000 0.57510  0.11260  0.33350  Biso   1.000  N
  N6       1.0000 0.42490  0.88740  0.66650  Biso   1.000  N
  N7       1.0000 0.55870  0.98510  0.23850  Biso   1.000  N
  N8       1.0000 0.44130  0.01490  0.76150  Biso   1.000  N
  C1       1.0000 0.61670  0.44390  0.43140  Biso   1.000  C
  C2       1.0000 0.38330  0.55610  0.56860  Biso   1.000  C
  C3       1.0000 0.74060  0.38270  0.35510  Biso   1.000  C
  C4       1.0000 0.25940  0.61730  0.64490  Biso   1.000  C
  C5       1.0000 0.22400  0.19120  0.18170  Biso   1.000  C
  C6       1.0000 0.77600  0.80880  0.81830  Biso   1.000  C
  C7       1.0000 0.53020  0.36610  0.56060  Biso   1.000  C
  C8       1.0000 0.46980  0.63390  0.43940  Biso   1.000  C
  C9       1.0000 0.22840  0.26810  0.25020  Biso   1.000  C
  C10      1.0000 0.77160  0.73190  0.74980  Biso   1.000  C
  C11      1.0000 0.63590  0.43410  0.00610  Biso   1.000  C
  C12      1.0000 0.36410  0.56590  0.99390  Biso   1.000  C
  C13      1.0000 0.45060  0.15330  0.29380  Biso   1.000  C
  C14      1.0000 0.54940  0.84670  0.70620  Biso   1.000  C
  C15      1.0000 0.11370  0.43140  0.31970  Biso   1.000  C
  C16      1.0000 0.88630  0.56860  0.68030  Biso   1.000  C
  H1       1.0000 0.03690  0.49210  0.32460  Biso   1.000  H
  H2       1.0000 0.96310  0.50790  0.67540  Biso   1.000  H
  C17      1.0000 0.34150  0.25210  0.30750  Biso   1.000  C
  C18      1.0000 0.65850  0.74790  0.69250  Biso   1.000  C
  C19      1.0000 0.31430  0.01690  0.11030  Biso   1.000  C
  C20      1.0000 0.68570  0.98310  0.88970  Biso   1.000  C
  C21      1.0000 0.44270  0.07310  0.23480  Biso   1.000  C
  C22      1.0000 0.55730  0.92690  0.76520  Biso   1.000  C
  C23      1.0000 0.54270  0.40210  0.95360  Biso   1.000  C
  C24      1.0000 0.45730  0.59790  0.04640  Biso   1.000  C
  C25      1.0000 0.59100  0.53250  0.05240  Biso   1.000  C
  C26      1.0000 0.40900  0.46750  0.94760  Biso   1.000  C
  H3       1.0000 0.65180  0.55440  0.08780  Biso   1.000  H
  H4       1.0000 0.34820  0.44560  0.91220  Biso   1.000  H
  C27      1.0000 0.83700  0.85420  0.26780  Biso   1.000  C
  C28      1.0000 0.16300  0.14580  0.73220  Biso   1.000  C
  H5       1.0000 0.78960  0.83740  0.21940  Biso   1.000  H
  H6       1.0000 0.21040  0.16260  0.78060  Biso   1.000  H
  C29      1.0000 0.77590  0.94510  0.32030  Biso   1.000  C
  C30      1.0000 0.22410  0.05490  0.67970  Biso   1.000  C
  C31      1.0000 0.32790  0.08990  0.17580  Biso   1.000  C
  C32      1.0000 0.67210  0.91010  0.82420  Biso   1.000  C
  C33      1.0000 0.97860  0.90200  0.41330  Biso   1.000  C
  C34      1.0000 0.02140  0.09800  0.58670  Biso   1.000  C
  C35      1.0000 0.20280  0.04740  0.05340  Biso   1.000  C
  C36      1.0000 0.79720  0.95260  0.94660  Biso   1.000  C
  C37      1.0000 0.22200  0.42110  0.37730  Biso   1.000  C
  C38      1.0000 0.77800  0.57890  0.62270  Biso   1.000  C
  C39      1.0000 0.58500  0.57910  0.37050  Biso   1.000  C
  C40      1.0000 0.41500  0.42090  0.62950  Biso   1.000  C
  C41      1.0000 0.63770  0.01350  0.29670  Biso   1.000  C
  C42      1.0000 0.36230  0.98650  0.70330  Biso   1.000  C
  C43      1.0000 0.10600  0.15090  0.06120  Biso   1.000  C
  C44      1.0000 0.89400  0.84910  0.93880  Biso   1.000  C
  C45      1.0000 0.96790  0.78750  0.28600  Biso   1.000  C
  C46      1.0000 0.03210  0.21250  0.71400  Biso   1.000  C
  C47      1.0000 0.03580  0.81150  0.36100  Biso   1.000  C
  C48      1.0000 0.96420  0.18850  0.63900  Biso   1.000  C
  C49      1.0000 0.33460  0.33200  0.37340  Biso   1.000  C
  C50      1.0000 0.66540  0.66800  0.62660  Biso   1.000  C
  C51      1.0000 0.84850  0.96930  0.39210  Biso   1.000  C
  C52      1.0000 0.15150  0.03070  0.60790  Biso   1.000  C
  C53      1.0000 0.78170  0.36150  0.01400  Biso   1.000  C
  C54      1.0000 0.21830  0.63850  0.98600  Biso   1.000  C
  O9       1.0000 0.79790  0.25280  0.00860  Biso   1.000  O
  O10      1.0000 0.20210  0.74720  0.99140  Biso   1.000  O
  H7       1.0000 0.03000  0.91100  0.46900  Biso   1.000  H
  H8       1.0000 0.97000  0.08900  0.53100  Biso   1.000  H
  H9       1.0000 0.20900  0.47400  0.42400  Biso   1.000  H
  H10      1.0000 0.79100  0.52600  0.57600  Biso   1.000  H
  H11      1.0000 0.58200  0.33500  0.92300  Biso   1.000  H
  H12      1.0000 0.41800  0.66500  0.07700  Biso   1.000  H
  H13      1.0000 0.19200  0.00600  0.00900  Biso   1.000  H
  H14      1.0000 0.80800  0.99400  0.99100  Biso   1.000  H
  H15      1.0000 0.60500  0.14500  0.36100  Biso   1.000  H
  H16      1.0000 0.39500  0.85500  0.63900  Biso   1.000  H
  H17      1.0000 0.37700  0.94300  0.10700  Biso   1.000  H
  H18      1.0000 0.62300  0.05700  0.89300  Biso   1.000  H
  H19      1.0000 0.64400  0.62900  0.28400  Biso   1.000  H
  H20      1.0000 0.35600  0.37100  0.71600  Biso   1.000  H
  H21      1.0000 0.54200  0.28200  0.59700  Biso   1.000  H
  H22      1.0000 0.45800  0.71800  0.40300  Biso   1.000  H
  H23      1.0000 0.04300  0.16600  0.03700  Biso   1.000  H
  H24      1.0000 0.95700  0.83400  0.96300  Biso   1.000  H
  H25      1.0000 0.79800  0.01600  0.43100  Biso   1.000  H
  H26      1.0000 0.20200  0.98400  0.56900  Biso   1.000  H
  H27      1.0000 0.39900  0.32800  0.41300  Biso   1.000  H
  H28      1.0000 0.60100  0.67200  0.58700  Biso   1.000  H
  H29      1.0000 0.01200  0.73100  0.24000  Biso   1.000  H
  H30      1.0000 0.98800  0.26900  0.76000  Biso   1.000  H
  H31      1.0000 0.18900  0.76000  0.43200  Biso   1.000  H
  H32      1.0000 0.81100  0.24000  0.56800  Biso   1.000  H
