data_image0
_cell_length_a       9.543
_cell_length_b       10.818
_cell_length_c       11.781
_cell_angle_alpha    116.096
_cell_angle_beta     98.893
_cell_angle_gamma    102.291

_symmetry_space_group_name_H-M    "P 1"
_symmetry_int_tables_number       1

loop_
  _symmetry_equiv_pos_as_xyz
  'x, y, z'

loop_
  _atom_site_label
  _atom_site_occupancy
  _atom_site_fract_x
  _atom_site_fract_y
  _atom_site_fract_z
  _atom_site_thermal_displace_type
  _atom_site_B_iso_or_equiv
  _atom_site_type_symbol
  Cu1      1.0000 0.99215  0.97596  0.34953  Biso   1.000  Cu
  Cu2      1.0000 0.00785  0.02404  0.65047  Biso   1.000  Cu
  O1       1.0000 0.88350  0.05270  0.47470  Biso   1.000  O
  O2       1.0000 0.11650  0.94730  0.52530  Biso   1.000  O
  O3       1.0000 0.80750  0.22980  0.46110  Biso   1.000  O
  O4       1.0000 0.19250  0.77020  0.53890  Biso   1.000  O
  O5       1.0000 0.83400  0.78350  0.25960  Biso   1.000  O
  O6       1.0000 0.16600  0.21650  0.74040  Biso   1.000  O
  O7       1.0000 0.75390  0.86800  0.12960  Biso   1.000  O
  O8       1.0000 0.24610  0.13200  0.87040  Biso   1.000  O
  N1       1.0000 0.12570  0.89070  0.24680  Biso   1.000  N
  N2       1.0000 0.87430  0.10930  0.75320  Biso   1.000  N
  N3       1.0000 0.13090  0.16220  0.37250  Biso   1.000  N
  N4       1.0000 0.86910  0.83780  0.62750  Biso   1.000  N
  N5       1.0000 0.59200  0.29990  0.25580  Biso   1.000  N
  N6       1.0000 0.40800  0.70010  0.74420  Biso   1.000  N
  N7       1.0000 0.59810  0.07120  0.16680  Biso   1.000  N
  N8       1.0000 0.40190  0.92880  0.83320  Biso   1.000  N
  N9       1.0000 0.00590  0.45020  0.19160  Biso   1.000  N
  N10      1.0000 0.99410  0.54980  0.80840  Biso   1.000  N
  C1       1.0000 0.11930  0.75200  0.18970  Biso   1.000  C
  C2       1.0000 0.88070  0.24800  0.81030  Biso   1.000  C
  C3       1.0000 0.22880  0.70780  0.13040  Biso   1.000  C
  C4       1.0000 0.77120  0.29220  0.86960  Biso   1.000  C
  C5       1.0000 0.34600  0.80580  0.13220  Biso   1.000  C
  C6       1.0000 0.65400  0.19420  0.86780  Biso   1.000  C
  C7       1.0000 0.35540  0.95270  0.19290  Biso   1.000  C
  C8       1.0000 0.64460  0.04730  0.80710  Biso   1.000  C
  C9       1.0000 0.47050  0.06980  0.20470  Biso   1.000  C
  C10      1.0000 0.52950  0.93020  0.79530  Biso   1.000  C
  C11      1.0000 0.66810  0.21170  0.20070  Biso   1.000  C
  C12      1.0000 0.33190  0.78830  0.79930  Biso   1.000  C
  C13      1.0000 0.81190  0.25650  0.17570  Biso   1.000  C
  C14      1.0000 0.18810  0.74350  0.82430  Biso   1.000  C
  C15      1.0000 0.88060  0.15800  0.10870  Biso   1.000  C
  C16      1.0000 0.11940  0.84200  0.89130  Biso   1.000  C
  C17      1.0000 0.01140  0.20540  0.08320  Biso   1.000  C
  C18      1.0000 0.98860  0.79460  0.91680  Biso   1.000  C
  C19      1.0000 0.06820  0.35110  0.12630  Biso   1.000  C
  C20      1.0000 0.93180  0.64890  0.87370  Biso   1.000  C
  C21      1.0000 0.87890  0.40170  0.21570  Biso   1.000  C
  C22      1.0000 0.12110  0.59830  0.78430  Biso   1.000  C
  C23      1.0000 0.46770  0.21130  0.26040  Biso   1.000  C
  C24      1.0000 0.53230  0.78870  0.73960  Biso   1.000  C
  C25      1.0000 0.35150  0.25010  0.31750  Biso   1.000  C
  C26      1.0000 0.64850  0.74990  0.68250  Biso   1.000  C
  C27      1.0000 0.33920  0.39030  0.37950  Biso   1.000  C
  C28      1.0000 0.66080  0.60970  0.62050  Biso   1.000  C
  C29      1.0000 0.22680  0.41360  0.43740  Biso   1.000  C
  C30      1.0000 0.77320  0.58640  0.56260  Biso   1.000  C
  C31      1.0000 0.12470  0.29800  0.43380  Biso   1.000  C
  C32      1.0000 0.87530  0.70200  0.56620  Biso   1.000  C
  C33      1.0000 0.24290  0.13890  0.31540  Biso   1.000  C
  C34      1.0000 0.75710  0.86110  0.68460  Biso   1.000  C
  C35      1.0000 0.24250  0.99110  0.25010  Biso   1.000  C
  C36      1.0000 0.75750  0.00890  0.74990  Biso   1.000  C
  C37      1.0000 0.78700  0.12100  0.47350  Biso   1.000  C
  C38      1.0000 0.21300  0.87900  0.52650  Biso   1.000  C
  C39      1.0000 0.63900  0.05820  0.48930  Biso   1.000  C
  C40      1.0000 0.36100  0.94180  0.51070  Biso   1.000  C
  C41      1.0000 0.55220  0.14670  0.53870  Biso   1.000  C
  C42      1.0000 0.44780  0.85330  0.46130  Biso   1.000  C
  C43      1.0000 0.58650  0.91110  0.45060  Biso   1.000  C
  C44      1.0000 0.41350  0.08890  0.54940  Biso   1.000  C
  C45      1.0000 0.74460  0.77030  0.16110  Biso   1.000  C
  C46      1.0000 0.25540  0.22970  0.83890  Biso   1.000  C
  C47      1.0000 0.62010  0.62850  0.07760  Biso   1.000  C
  C48      1.0000 0.37990  0.37150  0.92240  Biso   1.000  C
  C49      1.0000 0.54630  0.58910  0.94890  Biso   1.000  C
  C50      1.0000 0.45370  0.41090  0.05110  Biso   1.000  C
  C51      1.0000 0.57150  0.53860  0.12860  Biso   1.000  C
  C52      1.0000 0.42850  0.46140  0.87140  Biso   1.000  C
  H1       1.0000 0.22300  0.61400  0.08800  Biso   1.000  H
  H2       1.0000 0.77700  0.38600  0.91200  Biso   1.000  H
  H3       1.0000 0.59400  0.24400  0.56400  Biso   1.000  H
  H4       1.0000 0.40600  0.75600  0.43600  Biso   1.000  H
  H5       1.0000 0.61900  0.56100  0.21200  Biso   1.000  H
  H6       1.0000 0.38100  0.43900  0.78800  Biso   1.000  H
  H7       1.0000 0.41500  0.77200  0.09300  Biso   1.000  H
  H8       1.0000 0.58500  0.22800  0.90700  Biso   1.000  H
  H9       1.0000 0.57000  0.64500  0.91800  Biso   1.000  H
  H10      1.0000 0.43000  0.35500  0.08200  Biso   1.000  H
  H11      1.0000 0.41200  0.46600  0.38200  Biso   1.000  H
  H12      1.0000 0.58800  0.53400  0.61800  Biso   1.000  H
  H13      1.0000 0.03800  0.68400  0.19100  Biso   1.000  H
  H14      1.0000 0.96200  0.31600  0.80900  Biso   1.000  H
  H15      1.0000 0.63300  0.99500  0.13600  Biso   1.000  H
  H16      1.0000 0.36700  0.00500  0.86400  Biso   1.000  H
  H17      1.0000 0.22000  0.50500  0.47200  Biso   1.000  H
  H18      1.0000 0.78000  0.49500  0.52800  Biso   1.000  H
  H19      1.0000 0.83800  0.06200  0.07500  Biso   1.000  H
  H20      1.0000 0.16200  0.93800  0.92500  Biso   1.000  H
  H21      1.0000 0.04900  0.31300  0.46700  Biso   1.000  H
  H22      1.0000 0.95100  0.68700  0.53300  Biso   1.000  H
  H23      1.0000 0.16500  0.38500  0.11000  Biso   1.000  H
  H24      1.0000 0.83500  0.61500  0.89000  Biso   1.000  H
  H25      1.0000 0.64700  0.85500  0.42000  Biso   1.000  H
  H26      1.0000 0.35300  0.14500  0.58000  Biso   1.000  H
  H27      1.0000 0.83200  0.47400  0.26800  Biso   1.000  H
  H28      1.0000 0.16800  0.52600  0.73200  Biso   1.000  H
  H29      1.0000 0.06600  0.14200  0.03600  Biso   1.000  H
  H30      1.0000 0.93400  0.85800  0.96400  Biso   1.000  H
