data_image0
_cell_length_a       15.5273
_cell_length_b       9.4408
_cell_length_c       17.399
_cell_angle_alpha    90
_cell_angle_beta     111.988
_cell_angle_gamma    90

_symmetry_space_group_name_H-M    "P 1"
_symmetry_int_tables_number       1

loop_
  _symmetry_equiv_pos_as_xyz
  'x, y, z'

loop_
  _atom_site_label
  _atom_site_occupancy
  _atom_site_fract_x
  _atom_site_fract_y
  _atom_site_fract_z
  _atom_site_thermal_displace_type
  _atom_site_B_iso_or_equiv
  _atom_site_type_symbol
  C1       1.0000 0.45059  0.23590  0.09683  Biso   1.000  C
  C2       1.0000 0.54941  0.23590  0.40317  Biso   1.000  C
  C3       1.0000 0.54941  0.76410  0.90317  Biso   1.000  C
  C4       1.0000 0.45059  0.76410  0.59683  Biso   1.000  C
  H1       1.0000 0.42950  0.23140  0.14030  Biso   1.000  H
  H2       1.0000 0.57050  0.23140  0.35970  Biso   1.000  H
  H3       1.0000 0.57050  0.76860  0.85970  Biso   1.000  H
  H4       1.0000 0.42950  0.76860  0.64030  Biso   1.000  H
  C5       1.0000 0.52790  0.15880  0.10236  Biso   1.000  C
  C6       1.0000 0.47210  0.15880  0.39764  Biso   1.000  C
  C7       1.0000 0.47210  0.84120  0.89764  Biso   1.000  C
  C8       1.0000 0.52790  0.84120  0.60236  Biso   1.000  C
  H5       1.0000 0.55920  0.10540  0.14950  Biso   1.000  H
  H6       1.0000 0.44080  0.10540  0.35050  Biso   1.000  H
  H7       1.0000 0.44080  0.89460  0.85050  Biso   1.000  H
  H8       1.0000 0.55920  0.89460  0.64950  Biso   1.000  H
  C9       1.0000 0.55868  0.16120  0.03753  Biso   1.000  C
  C10      1.0000 0.44132  0.16120  0.46247  Biso   1.000  C
  C11      1.0000 0.44132  0.83880  0.96247  Biso   1.000  C
  C12      1.0000 0.55868  0.83880  0.53753  Biso   1.000  C
  C13      1.0000 0.64489  0.07770  0.04178  Biso   1.000  C
  C14      1.0000 0.35511  0.07770  0.45822  Biso   1.000  C
  C15      1.0000 0.35511  0.92230  0.95822  Biso   1.000  C
  C16      1.0000 0.64489  0.92230  0.54178  Biso   1.000  C
  C17      1.0000 0.51092  0.24330  0.96971  Biso   1.000  C
  C18      1.0000 0.48908  0.24330  0.53029  Biso   1.000  C
  C19      1.0000 0.48908  0.75670  0.03029  Biso   1.000  C
  C20      1.0000 0.51092  0.75670  0.46971  Biso   1.000  C
  H9       1.0000 0.52990  0.24670  0.92500  Biso   1.000  H
  H10      1.0000 0.47010  0.24670  0.57500  Biso   1.000  H
  H11      1.0000 0.47010  0.75330  0.07500  Biso   1.000  H
  H12      1.0000 0.52990  0.75330  0.42500  Biso   1.000  H
  C21      1.0000 0.43488  0.32050  0.96785  Biso   1.000  C
  C22      1.0000 0.56512  0.32050  0.53215  Biso   1.000  C
  C23      1.0000 0.56512  0.67950  0.03215  Biso   1.000  C
  C24      1.0000 0.43488  0.67950  0.46785  Biso   1.000  C
  C25      1.0000 0.38190  0.41660  0.89969  Biso   1.000  C
  C26      1.0000 0.61810  0.41660  0.60031  Biso   1.000  C
  C27      1.0000 0.61810  0.58340  0.10031  Biso   1.000  C
  C28      1.0000 0.38190  0.58340  0.39969  Biso   1.000  C
  C29      1.0000 0.39296  0.42140  0.82425  Biso   1.000  C
  C30      1.0000 0.60704  0.42140  0.67575  Biso   1.000  C
  C31      1.0000 0.60704  0.57860  0.17575  Biso   1.000  C
  C32      1.0000 0.39296  0.57860  0.32425  Biso   1.000  C
  H13      1.0000 0.43480  0.36120  0.81390  Biso   1.000  H
  H14      1.0000 0.56520  0.36120  0.68610  Biso   1.000  H
  H15      1.0000 0.56520  0.63880  0.18610  Biso   1.000  H
  H16      1.0000 0.43480  0.63880  0.31390  Biso   1.000  H
  C33      1.0000 0.34113  0.51680  0.76455  Biso   1.000  C
  C34      1.0000 0.65887  0.51680  0.73545  Biso   1.000  C
  C35      1.0000 0.65887  0.48320  0.23545  Biso   1.000  C
  C36      1.0000 0.34113  0.48320  0.26455  Biso   1.000  C
  C37      1.0000 0.34537  0.51270  0.67893  Biso   1.000  C
  C38      1.0000 0.65463  0.51270  0.82107  Biso   1.000  C
  C39      1.0000 0.65463  0.48730  0.32107  Biso   1.000  C
  C40      1.0000 0.34537  0.48730  0.17893  Biso   1.000  C
  C41      1.0000 0.28321  0.60910  0.78339  Biso   1.000  C
  C42      1.0000 0.71679  0.60910  0.71661  Biso   1.000  C
  C43      1.0000 0.71679  0.39090  0.21661  Biso   1.000  C
  C44      1.0000 0.28321  0.39090  0.28339  Biso   1.000  C
  H17      1.0000 0.25120  0.67900  0.74590  Biso   1.000  H
  H18      1.0000 0.74880  0.67900  0.75410  Biso   1.000  H
  H19      1.0000 0.74880  0.32100  0.25410  Biso   1.000  H
  H20      1.0000 0.25120  0.32100  0.24590  Biso   1.000  H
  C45      1.0000 0.27345  0.59620  0.85886  Biso   1.000  C
  C46      1.0000 0.72655  0.59620  0.64114  Biso   1.000  C
  C47      1.0000 0.72655  0.40380  0.14114  Biso   1.000  C
  C48      1.0000 0.27345  0.40380  0.35886  Biso   1.000  C
  H21      1.0000 0.23280  0.65670  0.87070  Biso   1.000  H
  H22      1.0000 0.76720  0.65670  0.62930  Biso   1.000  H
  H23      1.0000 0.76720  0.34330  0.12930  Biso   1.000  H
  H24      1.0000 0.23280  0.34330  0.37070  Biso   1.000  H
  C49      1.0000 0.16205  0.17480  0.91944  Biso   1.000  C
  C50      1.0000 0.83795  0.17480  0.58056  Biso   1.000  C
  C51      1.0000 0.83795  0.82520  0.08056  Biso   1.000  C
  C52      1.0000 0.16205  0.82520  0.41944  Biso   1.000  C
  H25      1.0000 0.21480  0.11790  0.93510  Biso   1.000  H
  H26      1.0000 0.78520  0.11790  0.56490  Biso   1.000  H
  H27      1.0000 0.78520  0.88210  0.06490  Biso   1.000  H
  H28      1.0000 0.21480  0.88210  0.43510  Biso   1.000  H
  C53      1.0000 0.07625  0.11560  0.87054  Biso   1.000  C
  C54      1.0000 0.92375  0.11560  0.62946  Biso   1.000  C
  C55      1.0000 0.92375  0.88440  0.12946  Biso   1.000  C
  C56      1.0000 0.07625  0.88440  0.37054  Biso   1.000  C
  H29      1.0000 0.07280  0.02150  0.85400  Biso   1.000  H
  H30      1.0000 0.92720  0.02150  0.64600  Biso   1.000  H
  H31      1.0000 0.92720  0.97850  0.14600  Biso   1.000  H
  H32      1.0000 0.07280  0.97850  0.35400  Biso   1.000  H
  C57      1.0000 0.99827  0.19590  0.84739  Biso   1.000  C
  C58      1.0000 0.00173  0.19590  0.65261  Biso   1.000  C
  C59      1.0000 0.00173  0.80410  0.15261  Biso   1.000  C
  C60      1.0000 0.99827  0.80410  0.34739  Biso   1.000  C
  H33      1.0000 0.94090  0.15700  0.81560  Biso   1.000  H
  H34      1.0000 0.05910  0.15700  0.68440  Biso   1.000  H
  H35      1.0000 0.05910  0.84300  0.18440  Biso   1.000  H
  H36      1.0000 0.94090  0.84300  0.31560  Biso   1.000  H
  C61      1.0000 0.00496  0.33810  0.87191  Biso   1.000  C
  C62      1.0000 0.99504  0.33810  0.62809  Biso   1.000  C
  C63      1.0000 0.99504  0.66190  0.12809  Biso   1.000  C
  C64      1.0000 0.00496  0.66190  0.37191  Biso   1.000  C
  C65      1.0000 0.09404  0.39020  0.92106  Biso   1.000  C
  C66      1.0000 0.90596  0.39020  0.57894  Biso   1.000  C
  C67      1.0000 0.90596  0.60980  0.07894  Biso   1.000  C
  C68      1.0000 0.09404  0.60980  0.42106  Biso   1.000  C
  C69      1.0000 0.10420  0.53300  0.94957  Biso   1.000  C
  C70      1.0000 0.89580  0.53300  0.55043  Biso   1.000  C
  C71      1.0000 0.89580  0.46700  0.05043  Biso   1.000  C
  C72      1.0000 0.10420  0.46700  0.44957  Biso   1.000  C
  C73      1.0000 0.92686  0.43010  0.85187  Biso   1.000  C
  C74      1.0000 0.07314  0.43010  0.64813  Biso   1.000  C
  C75      1.0000 0.07314  0.56990  0.14813  Biso   1.000  C
  C76      1.0000 0.92686  0.56990  0.35187  Biso   1.000  C
  H37      1.0000 0.86820  0.39670  0.81910  Biso   1.000  H
  H38      1.0000 0.13180  0.39670  0.68090  Biso   1.000  H
  H39      1.0000 0.13180  0.60330  0.18090  Biso   1.000  H
  H40      1.0000 0.86820  0.60330  0.31910  Biso   1.000  H
  C77      1.0000 0.93642  0.56480  0.87948  Biso   1.000  C
  C78      1.0000 0.06358  0.56480  0.62052  Biso   1.000  C
  C79      1.0000 0.06358  0.43520  0.12052  Biso   1.000  C
  C80      1.0000 0.93642  0.43520  0.37948  Biso   1.000  C
  H41      1.0000 0.88410  0.62200  0.86640  Biso   1.000  H
  H42      1.0000 0.11590  0.62200  0.63360  Biso   1.000  H
  H43      1.0000 0.11590  0.37800  0.13360  Biso   1.000  H
  H44      1.0000 0.88410  0.37800  0.36640  Biso   1.000  H
  C81      1.0000 0.02576  0.62140  0.92863  Biso   1.000  C
  C82      1.0000 0.97424  0.62140  0.57137  Biso   1.000  C
  C83      1.0000 0.97424  0.37860  0.07137  Biso   1.000  C
  C84      1.0000 0.02576  0.37860  0.42863  Biso   1.000  C
  C85      1.0000 0.03980  0.76050  0.95930  Biso   1.000  C
  C86      1.0000 0.96020  0.76050  0.54070  Biso   1.000  C
  C87      1.0000 0.96020  0.23950  0.04070  Biso   1.000  C
  C88      1.0000 0.03980  0.23950  0.45930  Biso   1.000  C
  H45      1.0000 0.98980  0.82230  0.94650  Biso   1.000  H
  H46      1.0000 0.01020  0.82230  0.55350  Biso   1.000  H
  H47      1.0000 0.01020  0.17770  0.05350  Biso   1.000  H
  H48      1.0000 0.98980  0.17770  0.44650  Biso   1.000  H
  C89      1.0000 0.12640  0.80470  0.00761  Biso   1.000  C
  C90      1.0000 0.87360  0.80470  0.49239  Biso   1.000  C
  C91      1.0000 0.87360  0.19530  0.99239  Biso   1.000  C
  C92      1.0000 0.12640  0.19530  0.50761  Biso   1.000  C
  H49      1.0000 0.13600  0.89650  0.02850  Biso   1.000  H
  H50      1.0000 0.86400  0.89650  0.47150  Biso   1.000  H
  H51      1.0000 0.86400  0.10350  0.97150  Biso   1.000  H
  H52      1.0000 0.13600  0.10350  0.52850  Biso   1.000  H
  C93      1.0000 0.20050  0.71120  0.02551  Biso   1.000  C
  C94      1.0000 0.79950  0.71120  0.47449  Biso   1.000  C
  C95      1.0000 0.79950  0.28880  0.97449  Biso   1.000  C
  C96      1.0000 0.20050  0.28880  0.52551  Biso   1.000  C
  H53      1.0000 0.25960  0.74250  0.05870  Biso   1.000  H
  H54      1.0000 0.74040  0.74250  0.44130  Biso   1.000  H
  H55      1.0000 0.74040  0.25750  0.94130  Biso   1.000  H
  H56      1.0000 0.25960  0.25750  0.55870  Biso   1.000  H
  Cu1      1.0000 0.29462  0.43825  0.01659  Biso   1.000  Cu
  Cu2      1.0000 0.70538  0.43825  0.48341  Biso   1.000  Cu
  Cu3      1.0000 0.70538  0.56175  0.98341  Biso   1.000  Cu
  Cu4      1.0000 0.29462  0.56175  0.51659  Biso   1.000  Cu
  N1       1.0000 0.40467  0.31696  0.03124  Biso   1.000  N
  N2       1.0000 0.59533  0.31696  0.46876  Biso   1.000  N
  N3       1.0000 0.59533  0.68304  0.96876  Biso   1.000  N
  N4       1.0000 0.40467  0.68304  0.53124  Biso   1.000  N
  N5       1.0000 0.32011  0.50038  0.91532  Biso   1.000  N
  N6       1.0000 0.67989  0.50038  0.58468  Biso   1.000  N
  N7       1.0000 0.67989  0.49962  0.08468  Biso   1.000  N
  N8       1.0000 0.32011  0.49962  0.41532  Biso   1.000  N
  N9       1.0000 0.17105  0.30840  0.94418  Biso   1.000  N
  N10      1.0000 0.82895  0.30840  0.55582  Biso   1.000  N
  N11      1.0000 0.82895  0.69160  0.05582  Biso   1.000  N
  N12      1.0000 0.17105  0.69160  0.44418  Biso   1.000  N
  N13      1.0000 0.19048  0.57921  0.99717  Biso   1.000  N
  N14      1.0000 0.80952  0.57921  0.50283  Biso   1.000  N
  N15      1.0000 0.80952  0.42079  0.00283  Biso   1.000  N
  N16      1.0000 0.19048  0.42079  0.49717  Biso   1.000  N
  O1       1.0000 0.70900  0.06210  0.11470  Biso   1.000  O
  O2       1.0000 0.29100  0.06210  0.38530  Biso   1.000  O
  O3       1.0000 0.29100  0.93790  0.88530  Biso   1.000  O
  O4       1.0000 0.70900  0.93790  0.61470  Biso   1.000  O
  O5       1.0000 0.65597  0.05883  0.97615  Biso   1.000  O
  O6       1.0000 0.34403  0.05883  0.52385  Biso   1.000  O
  O7       1.0000 0.34403  0.94117  0.02385  Biso   1.000  O
  O8       1.0000 0.65597  0.94117  0.47615  Biso   1.000  O
  O9       1.0000 0.39163  0.42090  0.66232  Biso   1.000  O
  O10      1.0000 0.60837  0.42090  0.83768  Biso   1.000  O
  O11      1.0000 0.60837  0.57910  0.33768  Biso   1.000  O
  O12      1.0000 0.39163  0.57910  0.16232  Biso   1.000  O
  O13      1.0000 0.29585  0.60548  0.62809  Biso   1.000  O
  O14      1.0000 0.70415  0.60548  0.87191  Biso   1.000  O
  O15      1.0000 0.70415  0.39452  0.37191  Biso   1.000  O
  O16      1.0000 0.29585  0.39452  0.12809  Biso   1.000  O
  O17      1.0000 0.17870  0.88250  0.62910  Biso   1.000  O
  O18      1.0000 0.82130  0.88250  0.87090  Biso   1.000  O
  O19      1.0000 0.82130  0.11750  0.37090  Biso   1.000  O
  O20      1.0000 0.17870  0.11750  0.12910  Biso   1.000  O
  O21      1.0000 0.57400  0.11800  0.80050  Biso   1.000  O
  O22      1.0000 0.42600  0.11800  0.69950  Biso   1.000  O
  O23      1.0000 0.42600  0.88200  0.19950  Biso   1.000  O
  O24      1.0000 0.57400  0.88200  0.30050  Biso   1.000  O
  O25      1.0000 0.24990  0.11390  0.74260  Biso   1.000  O
  O26      1.0000 0.75010  0.11390  0.75740  Biso   1.000  O
  O27      1.0000 0.75010  0.88610  0.25740  Biso   1.000  O
  O28      1.0000 0.24990  0.88610  0.24260  Biso   1.000  O
  O29      1.0000 0.68040  0.00710  0.10470  Biso   1.000  O
  O30      1.0000 0.31960  0.00710  0.39530  Biso   1.000  O
  O31      1.0000 0.31960  0.99290  0.89530  Biso   1.000  O
  O32      1.0000 0.68040  0.99290  0.60470  Biso   1.000  O
  O33      1.0000 0.24520  0.90690  0.61110  Biso   1.000  O
  O34      1.0000 0.75480  0.90690  0.88890  Biso   1.000  O
  O35      1.0000 0.75480  0.09310  0.38890  Biso   1.000  O
  O36      1.0000 0.24520  0.09310  0.11110  Biso   1.000  O
  O37      1.0000 0.61250  0.04400  0.81220  Biso   1.000  O
  O38      1.0000 0.38750  0.04400  0.68780  Biso   1.000  O
  O39      1.0000 0.38750  0.95600  0.18780  Biso   1.000  O
  O40      1.0000 0.61250  0.95600  0.31220  Biso   1.000  O
  O41      1.0000 0.18990  0.98200  0.72900  Biso   1.000  O
  O42      1.0000 0.81010  0.98200  0.77100  Biso   1.000  O
  O43      1.0000 0.81010  0.01800  0.27100  Biso   1.000  O
  O44      1.0000 0.18990  0.01800  0.22900  Biso   1.000  O
