data_image0
_cell_length_a       33.916
_cell_length_b       33.916
_cell_length_c       6.263
_cell_angle_alpha    90
_cell_angle_beta     90
_cell_angle_gamma    120

_symmetry_space_group_name_H-M    "P 1"
_symmetry_int_tables_number       1

loop_
  _symmetry_equiv_pos_as_xyz
  'x, y, z'

loop_
  _atom_site_label
  _atom_site_occupancy
  _atom_site_fract_x
  _atom_site_fract_y
  _atom_site_fract_z
  _atom_site_thermal_displace_type
  _atom_site_B_iso_or_equiv
  _atom_site_type_symbol
  Cu1      1.0000 0.50000  0.00000  0.00000  Biso   1.000  Cu
  Cu2      1.0000 0.00000  0.50000  0.00000  Biso   1.000  Cu
  Cu3      1.0000 0.50000  0.50000  0.00000  Biso   1.000  Cu
  Cu4      1.0000 0.16667  0.33333  0.33333  Biso   1.000  Cu
  Cu5      1.0000 0.66667  0.83333  0.33333  Biso   1.000  Cu
  Cu6      1.0000 0.16667  0.83333  0.33333  Biso   1.000  Cu
  Cu7      1.0000 0.83333  0.66667  0.66667  Biso   1.000  Cu
  Cu8      1.0000 0.33333  0.16667  0.66667  Biso   1.000  Cu
  Cu9      1.0000 0.83333  0.16667  0.66667  Biso   1.000  Cu
  O1       1.0000 0.42588  0.96682  0.23240  Biso   1.000  O
  O2       1.0000 0.03318  0.45906  0.23240  Biso   1.000  O
  O3       1.0000 0.54094  0.57412  0.23240  Biso   1.000  O
  O4       1.0000 0.09255  0.30015  0.56573  Biso   1.000  O
  O5       1.0000 0.69985  0.79239  0.56573  Biso   1.000  O
  O6       1.0000 0.20761  0.90745  0.56573  Biso   1.000  O
  O7       1.0000 0.75921  0.63349  0.89907  Biso   1.000  O
  O8       1.0000 0.36651  0.12573  0.89907  Biso   1.000  O
  O9       1.0000 0.87427  0.24079  0.89907  Biso   1.000  O
  O10      1.0000 0.57412  0.03318  0.76760  Biso   1.000  O
  O11      1.0000 0.96682  0.54094  0.76760  Biso   1.000  O
  O12      1.0000 0.45906  0.42588  0.76760  Biso   1.000  O
  O13      1.0000 0.24079  0.36651  0.10093  Biso   1.000  O
  O14      1.0000 0.63349  0.87427  0.10093  Biso   1.000  O
  O15      1.0000 0.12573  0.75921  0.10093  Biso   1.000  O
  O16      1.0000 0.90745  0.69985  0.43427  Biso   1.000  O
  O17      1.0000 0.30015  0.20761  0.43427  Biso   1.000  O
  O18      1.0000 0.79239  0.09255  0.43427  Biso   1.000  O
  H1       1.0000 0.43100  0.95700  0.34280  Biso   1.000  H
  H2       1.0000 0.04300  0.47400  0.34280  Biso   1.000  H
  H3       1.0000 0.52600  0.56900  0.34280  Biso   1.000  H
  H4       1.0000 0.09767  0.29033  0.67613  Biso   1.000  H
  H5       1.0000 0.70967  0.80733  0.67613  Biso   1.000  H
  H6       1.0000 0.19267  0.90233  0.67613  Biso   1.000  H
  H7       1.0000 0.76433  0.62367  0.00947  Biso   1.000  H
  H8       1.0000 0.37633  0.14067  0.00947  Biso   1.000  H
  H9       1.0000 0.85933  0.23567  0.00947  Biso   1.000  H
  H10      1.0000 0.56900  0.04300  0.65720  Biso   1.000  H
  H11      1.0000 0.95700  0.52600  0.65720  Biso   1.000  H
  H12      1.0000 0.47400  0.43100  0.65720  Biso   1.000  H
  H13      1.0000 0.23567  0.37633  0.99053  Biso   1.000  H
  H14      1.0000 0.62367  0.85933  0.99053  Biso   1.000  H
  H15      1.0000 0.14067  0.76433  0.99053  Biso   1.000  H
  H16      1.0000 0.90233  0.70967  0.32387  Biso   1.000  H
  H17      1.0000 0.29033  0.19267  0.32387  Biso   1.000  H
  H18      1.0000 0.80733  0.09767  0.32387  Biso   1.000  H
  O19      1.0000 0.52068  0.96942  0.18680  Biso   1.000  O
  O20      1.0000 0.03058  0.55126  0.18680  Biso   1.000  O
  O21      1.0000 0.44874  0.47932  0.18680  Biso   1.000  O
  O22      1.0000 0.18735  0.30275  0.52013  Biso   1.000  O
  O23      1.0000 0.69725  0.88459  0.52013  Biso   1.000  O
  O24      1.0000 0.11541  0.81265  0.52013  Biso   1.000  O
  O25      1.0000 0.85401  0.63609  0.85347  Biso   1.000  O
  O26      1.0000 0.36391  0.21793  0.85347  Biso   1.000  O
  O27      1.0000 0.78207  0.14599  0.85347  Biso   1.000  O
  O28      1.0000 0.47932  0.03058  0.81320  Biso   1.000  O
  O29      1.0000 0.96942  0.44874  0.81320  Biso   1.000  O
  O30      1.0000 0.55126  0.52068  0.81320  Biso   1.000  O
  O31      1.0000 0.14599  0.36391  0.14653  Biso   1.000  O
  O32      1.0000 0.63609  0.78207  0.14653  Biso   1.000  O
  O33      1.0000 0.21793  0.85401  0.14653  Biso   1.000  O
  O34      1.0000 0.81265  0.69725  0.47987  Biso   1.000  O
  O35      1.0000 0.30275  0.11541  0.47987  Biso   1.000  O
  O36      1.0000 0.88459  0.18735  0.47987  Biso   1.000  O
  O37      1.0000 0.63590  0.18133  0.80730  Biso   1.000  O
  O38      1.0000 0.81867  0.45457  0.80730  Biso   1.000  O
  O39      1.0000 0.54543  0.36410  0.80730  Biso   1.000  O
  O40      1.0000 0.30257  0.51466  0.14063  Biso   1.000  O
  O41      1.0000 0.48534  0.78790  0.14063  Biso   1.000  O
  O42      1.0000 0.21210  0.69743  0.14063  Biso   1.000  O
  O43      1.0000 0.96923  0.84800  0.47397  Biso   1.000  O
  O44      1.0000 0.15200  0.12124  0.47397  Biso   1.000  O
  O45      1.0000 0.87876  0.03077  0.47397  Biso   1.000  O
  O46      1.0000 0.36410  0.81867  0.19270  Biso   1.000  O
  O47      1.0000 0.18133  0.54543  0.19270  Biso   1.000  O
  O48      1.0000 0.45457  0.63590  0.19270  Biso   1.000  O
  O49      1.0000 0.03077  0.15200  0.52603  Biso   1.000  O
  O50      1.0000 0.84800  0.87876  0.52603  Biso   1.000  O
  O51      1.0000 0.12124  0.96923  0.52603  Biso   1.000  O
  O52      1.0000 0.69743  0.48534  0.85937  Biso   1.000  O
  O53      1.0000 0.51466  0.21210  0.85937  Biso   1.000  O
  O54      1.0000 0.78790  0.30257  0.85937  Biso   1.000  O
  O55      1.0000 0.61787  0.24686  0.71160  Biso   1.000  O
  O56      1.0000 0.75314  0.37101  0.71160  Biso   1.000  O
  O57      1.0000 0.62899  0.38213  0.71160  Biso   1.000  O
  O58      1.0000 0.28454  0.58019  0.04493  Biso   1.000  O
  O59      1.0000 0.41981  0.70434  0.04493  Biso   1.000  O
  O60      1.0000 0.29566  0.71546  0.04493  Biso   1.000  O
  O61      1.0000 0.95120  0.91353  0.37827  Biso   1.000  O
  O62      1.0000 0.08647  0.03768  0.37827  Biso   1.000  O
  O63      1.0000 0.96232  0.04880  0.37827  Biso   1.000  O
  O64      1.0000 0.38213  0.75314  0.28840  Biso   1.000  O
  O65      1.0000 0.24686  0.62899  0.28840  Biso   1.000  O
  O66      1.0000 0.37101  0.61787  0.28840  Biso   1.000  O
  O67      1.0000 0.04880  0.08647  0.62173  Biso   1.000  O
  O68      1.0000 0.91353  0.96232  0.62173  Biso   1.000  O
  O69      1.0000 0.03768  0.95120  0.62173  Biso   1.000  O
  O70      1.0000 0.71546  0.41981  0.95507  Biso   1.000  O
  O71      1.0000 0.58019  0.29566  0.95507  Biso   1.000  O
  O72      1.0000 0.70434  0.28454  0.95507  Biso   1.000  O
  H19      1.0000 0.63540  0.24560  0.78470  Biso   1.000  H
  H20      1.0000 0.75440  0.38980  0.78470  Biso   1.000  H
  H21      1.0000 0.61020  0.36460  0.78470  Biso   1.000  H
  H22      1.0000 0.30207  0.57893  0.11803  Biso   1.000  H
  H23      1.0000 0.42107  0.72313  0.11803  Biso   1.000  H
  H24      1.0000 0.27687  0.69793  0.11803  Biso   1.000  H
  H25      1.0000 0.96873  0.91227  0.45137  Biso   1.000  H
  H26      1.0000 0.08773  0.05647  0.45137  Biso   1.000  H
  H27      1.0000 0.94353  0.03127  0.45137  Biso   1.000  H
  H28      1.0000 0.36460  0.75440  0.21530  Biso   1.000  H
  H29      1.0000 0.24560  0.61020  0.21530  Biso   1.000  H
  H30      1.0000 0.38980  0.63540  0.21530  Biso   1.000  H
  H31      1.0000 0.03127  0.08773  0.54863  Biso   1.000  H
  H32      1.0000 0.91227  0.94353  0.54863  Biso   1.000  H
  H33      1.0000 0.05647  0.96873  0.54863  Biso   1.000  H
  H34      1.0000 0.69793  0.42107  0.88197  Biso   1.000  H
  H35      1.0000 0.57893  0.27687  0.88197  Biso   1.000  H
  H36      1.0000 0.72313  0.30207  0.88197  Biso   1.000  H
  N1       1.0000 0.55100  0.03692  0.37610  Biso   1.000  N
  N2       1.0000 0.96308  0.51408  0.37610  Biso   1.000  N
  N3       1.0000 0.48592  0.44900  0.37610  Biso   1.000  N
  N4       1.0000 0.21767  0.37025  0.70943  Biso   1.000  N
  N5       1.0000 0.62975  0.84741  0.70943  Biso   1.000  N
  N6       1.0000 0.15259  0.78233  0.70943  Biso   1.000  N
  N7       1.0000 0.88433  0.70359  0.04277  Biso   1.000  N
  N8       1.0000 0.29641  0.18075  0.04277  Biso   1.000  N
  N9       1.0000 0.81925  0.11567  0.04277  Biso   1.000  N
  N10      1.0000 0.44900  0.96308  0.62390  Biso   1.000  N
  N11      1.0000 0.03692  0.48592  0.62390  Biso   1.000  N
  N12      1.0000 0.51408  0.55100  0.62390  Biso   1.000  N
  N13      1.0000 0.11567  0.29641  0.95723  Biso   1.000  N
  N14      1.0000 0.70359  0.81925  0.95723  Biso   1.000  N
  N15      1.0000 0.18075  0.88433  0.95723  Biso   1.000  N
  N16      1.0000 0.78233  0.62975  0.29057  Biso   1.000  N
  N17      1.0000 0.37025  0.15259  0.29057  Biso   1.000  N
  N18      1.0000 0.84741  0.21767  0.29057  Biso   1.000  N
  N19      1.0000 0.53173  0.04914  0.21080  Biso   1.000  N
  N20      1.0000 0.95086  0.48259  0.21080  Biso   1.000  N
  N21      1.0000 0.51741  0.46827  0.21080  Biso   1.000  N
  N22      1.0000 0.19840  0.38247  0.54413  Biso   1.000  N
  N23      1.0000 0.61753  0.81592  0.54413  Biso   1.000  N
  N24      1.0000 0.18408  0.80160  0.54413  Biso   1.000  N
  N25      1.0000 0.86506  0.71581  0.87747  Biso   1.000  N
  N26      1.0000 0.28419  0.14926  0.87747  Biso   1.000  N
  N27      1.0000 0.85074  0.13494  0.87747  Biso   1.000  N
  N28      1.0000 0.46827  0.95086  0.78920  Biso   1.000  N
  N29      1.0000 0.04914  0.51741  0.78920  Biso   1.000  N
  N30      1.0000 0.48259  0.53173  0.78920  Biso   1.000  N
  N31      1.0000 0.13494  0.28419  0.12253  Biso   1.000  N
  N32      1.0000 0.71581  0.85074  0.12253  Biso   1.000  N
  N33      1.0000 0.14926  0.86506  0.12253  Biso   1.000  N
  N34      1.0000 0.80160  0.61753  0.45587  Biso   1.000  N
  N35      1.0000 0.38247  0.18408  0.45587  Biso   1.000  N
  N36      1.0000 0.81592  0.19840  0.45587  Biso   1.000  N
  C1       1.0000 0.42331  0.00397  0.29540  Biso   1.000  C
  C2       1.0000 0.99603  0.41934  0.29540  Biso   1.000  C
  C3       1.0000 0.58066  0.57669  0.29540  Biso   1.000  C
  C4       1.0000 0.08998  0.33730  0.62873  Biso   1.000  C
  C5       1.0000 0.66270  0.75267  0.62873  Biso   1.000  C
  C6       1.0000 0.24733  0.91002  0.62873  Biso   1.000  C
  C7       1.0000 0.75664  0.67064  0.96207  Biso   1.000  C
  C8       1.0000 0.32936  0.08601  0.96207  Biso   1.000  C
  C9       1.0000 0.91399  0.24336  0.96207  Biso   1.000  C
  C10      1.0000 0.57669  0.99603  0.70460  Biso   1.000  C
  C11      1.0000 0.00397  0.58066  0.70460  Biso   1.000  C
  C12      1.0000 0.41934  0.42331  0.70460  Biso   1.000  C
  C13      1.0000 0.24336  0.32936  0.03793  Biso   1.000  C
  C14      1.0000 0.67064  0.91399  0.03793  Biso   1.000  C
  C15      1.0000 0.08601  0.75664  0.03793  Biso   1.000  C
  C16      1.0000 0.91002  0.66270  0.37127  Biso   1.000  C
  C17      1.0000 0.33730  0.24733  0.37127  Biso   1.000  C
  C18      1.0000 0.75267  0.08998  0.37127  Biso   1.000  C
  C19      1.0000 0.56172  0.97652  0.50360  Biso   1.000  C
  C20      1.0000 0.02348  0.58520  0.50360  Biso   1.000  C
  C21      1.0000 0.41480  0.43828  0.50360  Biso   1.000  C
  C22      1.0000 0.22839  0.30985  0.83693  Biso   1.000  C
  C23      1.0000 0.69015  0.91853  0.83693  Biso   1.000  C
  C24      1.0000 0.08147  0.77161  0.83693  Biso   1.000  C
  C25      1.0000 0.89505  0.64319  0.17027  Biso   1.000  C
  C26      1.0000 0.35681  0.25187  0.17027  Biso   1.000  C
  C27      1.0000 0.74813  0.10495  0.17027  Biso   1.000  C
  C28      1.0000 0.43828  0.02348  0.49640  Biso   1.000  C
  C29      1.0000 0.97652  0.41480  0.49640  Biso   1.000  C
  C30      1.0000 0.58520  0.56172  0.49640  Biso   1.000  C
  C31      1.0000 0.10495  0.35681  0.82973  Biso   1.000  C
  C32      1.0000 0.64319  0.74813  0.82973  Biso   1.000  C
  C33      1.0000 0.25187  0.89505  0.82973  Biso   1.000  C
  C34      1.0000 0.77161  0.69015  0.16307  Biso   1.000  C
  C35      1.0000 0.30985  0.08147  0.16307  Biso   1.000  C
  C36      1.0000 0.91853  0.22839  0.16307  Biso   1.000  C
  C37      1.0000 0.56514  0.93860  0.45080  Biso   1.000  C
  C38      1.0000 0.06140  0.62654  0.45080  Biso   1.000  C
  C39      1.0000 0.37346  0.43486  0.45080  Biso   1.000  C
  C40      1.0000 0.23181  0.27193  0.78413  Biso   1.000  C
  C41      1.0000 0.72807  0.95987  0.78413  Biso   1.000  C
  C42      1.0000 0.04013  0.76819  0.78413  Biso   1.000  C
  C43      1.0000 0.89847  0.60527  0.11747  Biso   1.000  C
  C44      1.0000 0.39473  0.29321  0.11747  Biso   1.000  C
  C45      1.0000 0.70679  0.10153  0.11747  Biso   1.000  C
  C46      1.0000 0.43486  0.06140  0.54920  Biso   1.000  C
  C47      1.0000 0.93860  0.37346  0.54920  Biso   1.000  C
  C48      1.0000 0.62654  0.56514  0.54920  Biso   1.000  C
  C49      1.0000 0.10153  0.39473  0.88253  Biso   1.000  C
  C50      1.0000 0.60527  0.70679  0.88253  Biso   1.000  C
  C51      1.0000 0.29321  0.89847  0.88253  Biso   1.000  C
  C52      1.0000 0.76819  0.72807  0.21587  Biso   1.000  C
  C53      1.0000 0.27193  0.04013  0.21587  Biso   1.000  C
  C54      1.0000 0.95987  0.23181  0.21587  Biso   1.000  C
  H37      1.0000 0.55600  0.92570  0.31600  Biso   1.000  H
  H38      1.0000 0.07430  0.63030  0.31600  Biso   1.000  H
  H39      1.0000 0.36970  0.44400  0.31600  Biso   1.000  H
  H40      1.0000 0.22267  0.25903  0.64933  Biso   1.000  H
  H41      1.0000 0.74097  0.96363  0.64933  Biso   1.000  H
  H42      1.0000 0.03637  0.77733  0.64933  Biso   1.000  H
  H43      1.0000 0.88933  0.59237  0.98267  Biso   1.000  H
  H44      1.0000 0.40763  0.29697  0.98267  Biso   1.000  H
  H45      1.0000 0.70303  0.11067  0.98267  Biso   1.000  H
  H46      1.0000 0.44400  0.07430  0.68400  Biso   1.000  H
  H47      1.0000 0.92570  0.36970  0.68400  Biso   1.000  H
  H48      1.0000 0.63030  0.55600  0.68400  Biso   1.000  H
  H49      1.0000 0.11067  0.40763  0.01733  Biso   1.000  H
  H50      1.0000 0.59237  0.70303  0.01733  Biso   1.000  H
  H51      1.0000 0.29697  0.88933  0.01733  Biso   1.000  H
  H52      1.0000 0.77733  0.74097  0.35067  Biso   1.000  H
  H53      1.0000 0.25903  0.03637  0.35067  Biso   1.000  H
  H54      1.0000 0.96363  0.22267  0.35067  Biso   1.000  H
  C55      1.0000 0.58180  0.91986  0.59410  Biso   1.000  C
  C56      1.0000 0.08014  0.66194  0.59410  Biso   1.000  C
  C57      1.0000 0.33806  0.41820  0.59410  Biso   1.000  C
  C58      1.0000 0.24847  0.25319  0.92743  Biso   1.000  C
  C59      1.0000 0.74681  0.99527  0.92743  Biso   1.000  C
  C60      1.0000 0.00473  0.75153  0.92743  Biso   1.000  C
  C61      1.0000 0.91513  0.58653  0.26077  Biso   1.000  C
  C62      1.0000 0.41347  0.32861  0.26077  Biso   1.000  C
  C63      1.0000 0.67139  0.08487  0.26077  Biso   1.000  C
  C64      1.0000 0.41820  0.08014  0.40590  Biso   1.000  C
  C65      1.0000 0.91986  0.33806  0.40590  Biso   1.000  C
  C66      1.0000 0.66194  0.58180  0.40590  Biso   1.000  C
  C67      1.0000 0.08487  0.41347  0.73923  Biso   1.000  C
  C68      1.0000 0.58653  0.67139  0.73923  Biso   1.000  C
  C69      1.0000 0.32861  0.91513  0.73923  Biso   1.000  C
  C70      1.0000 0.75153  0.74681  0.07257  Biso   1.000  C
  C71      1.0000 0.25319  0.00473  0.07257  Biso   1.000  C
  C72      1.0000 0.99527  0.24847  0.07257  Biso   1.000  C
  H55      1.0000 0.58350  0.89420  0.55770  Biso   1.000  H
  H56      1.0000 0.10580  0.68930  0.55770  Biso   1.000  H
  H57      1.0000 0.31070  0.41650  0.55770  Biso   1.000  H
  H58      1.0000 0.25017  0.22753  0.89103  Biso   1.000  H
  H59      1.0000 0.77247  0.02263  0.89103  Biso   1.000  H
  H60      1.0000 0.97737  0.74983  0.89103  Biso   1.000  H
  H61      1.0000 0.91683  0.56087  0.22437  Biso   1.000  H
  H62      1.0000 0.43913  0.35597  0.22437  Biso   1.000  H
  H63      1.0000 0.64403  0.08317  0.22437  Biso   1.000  H
  H64      1.0000 0.41650  0.10580  0.44230  Biso   1.000  H
  H65      1.0000 0.89420  0.31070  0.44230  Biso   1.000  H
  H66      1.0000 0.68930  0.58350  0.44230  Biso   1.000  H
  H67      1.0000 0.08317  0.43913  0.77563  Biso   1.000  H
  H68      1.0000 0.56087  0.64403  0.77563  Biso   1.000  H
  H69      1.0000 0.35597  0.91683  0.77563  Biso   1.000  H
  H70      1.0000 0.74983  0.77247  0.10897  Biso   1.000  H
  H71      1.0000 0.22753  0.97737  0.10897  Biso   1.000  H
  H72      1.0000 0.02263  0.25017  0.10897  Biso   1.000  H
  C73      1.0000 0.40394  0.06038  0.20700  Biso   1.000  C
  C74      1.0000 0.93962  0.34356  0.20700  Biso   1.000  C
  C75      1.0000 0.65644  0.59606  0.20700  Biso   1.000  C
  C76      1.0000 0.07061  0.39371  0.54033  Biso   1.000  C
  C77      1.0000 0.60629  0.67689  0.54033  Biso   1.000  C
  C78      1.0000 0.32311  0.92939  0.54033  Biso   1.000  C
  C79      1.0000 0.73727  0.72705  0.87367  Biso   1.000  C
  C80      1.0000 0.27295  0.01023  0.87367  Biso   1.000  C
  C81      1.0000 0.98977  0.26273  0.87367  Biso   1.000  C
  C82      1.0000 0.59606  0.93962  0.79300  Biso   1.000  C
  C83      1.0000 0.06038  0.65644  0.79300  Biso   1.000  C
  C84      1.0000 0.34356  0.40394  0.79300  Biso   1.000  C
  C85      1.0000 0.26273  0.27295  0.12633  Biso   1.000  C
  C86      1.0000 0.72705  0.98977  0.12633  Biso   1.000  C
  C87      1.0000 0.01023  0.73727  0.12633  Biso   1.000  C
  C88      1.0000 0.92939  0.60629  0.45967  Biso   1.000  C
  C89      1.0000 0.39371  0.32311  0.45967  Biso   1.000  C
  C90      1.0000 0.67689  0.07061  0.45967  Biso   1.000  C
  H73      1.0000 0.39260  0.07290  0.10950  Biso   1.000  H
  H74      1.0000 0.92710  0.31970  0.10950  Biso   1.000  H
  H75      1.0000 0.68030  0.60740  0.10950  Biso   1.000  H
  H76      1.0000 0.05927  0.40623  0.44283  Biso   1.000  H
  H77      1.0000 0.59377  0.65303  0.44283  Biso   1.000  H
  H78      1.0000 0.34697  0.94073  0.44283  Biso   1.000  H
  H79      1.0000 0.72593  0.73957  0.77617  Biso   1.000  H
  H80      1.0000 0.26043  0.98637  0.77617  Biso   1.000  H
  H81      1.0000 0.01363  0.27407  0.77617  Biso   1.000  H
  H82      1.0000 0.60740  0.92710  0.89050  Biso   1.000  H
  H83      1.0000 0.07290  0.68030  0.89050  Biso   1.000  H
  H84      1.0000 0.31970  0.39260  0.89050  Biso   1.000  H
  H85      1.0000 0.27407  0.26043  0.22383  Biso   1.000  H
  H86      1.0000 0.73957  0.01363  0.22383  Biso   1.000  H
  H87      1.0000 0.98637  0.72593  0.22383  Biso   1.000  H
  H88      1.0000 0.94073  0.59377  0.55717  Biso   1.000  H
  H89      1.0000 0.40623  0.34697  0.55717  Biso   1.000  H
  H90      1.0000 0.65303  0.05927  0.55717  Biso   1.000  H
  C91      1.0000 0.40627  0.02257  0.15170  Biso   1.000  C
  C92      1.0000 0.97743  0.38370  0.15170  Biso   1.000  C
  C93      1.0000 0.61630  0.59373  0.15170  Biso   1.000  C
  C94      1.0000 0.07294  0.35590  0.48503  Biso   1.000  C
  C95      1.0000 0.64410  0.71703  0.48503  Biso   1.000  C
  C96      1.0000 0.28297  0.92706  0.48503  Biso   1.000  C
  C97      1.0000 0.73960  0.68924  0.81837  Biso   1.000  C
  C98      1.0000 0.31076  0.05037  0.81837  Biso   1.000  C
  C99      1.0000 0.94963  0.26040  0.81837  Biso   1.000  C
  C100     1.0000 0.59373  0.97743  0.84830  Biso   1.000  C
  C101     1.0000 0.02257  0.61630  0.84830  Biso   1.000  C
  C102     1.0000 0.38370  0.40627  0.84830  Biso   1.000  C
  C103     1.0000 0.26040  0.31076  0.18163  Biso   1.000  C
  C104     1.0000 0.68924  0.94963  0.18163  Biso   1.000  C
  C105     1.0000 0.05037  0.73960  0.18163  Biso   1.000  C
  C106     1.0000 0.92706  0.64410  0.51497  Biso   1.000  C
  C107     1.0000 0.35590  0.28297  0.51497  Biso   1.000  C
  C108     1.0000 0.71703  0.07294  0.51497  Biso   1.000  C
  H91      1.0000 0.39640  0.00940  0.01770  Biso   1.000  H
  H92      1.0000 0.99060  0.38700  0.01770  Biso   1.000  H
  H93      1.0000 0.61300  0.60360  0.01770  Biso   1.000  H
  H94      1.0000 0.06307  0.34273  0.35103  Biso   1.000  H
  H95      1.0000 0.65727  0.72033  0.35103  Biso   1.000  H
  H96      1.0000 0.27967  0.93693  0.35103  Biso   1.000  H
  H97      1.0000 0.72973  0.67607  0.68437  Biso   1.000  H
  H98      1.0000 0.32393  0.05367  0.68437  Biso   1.000  H
  H99      1.0000 0.94633  0.27027  0.68437  Biso   1.000  H
  H100     1.0000 0.60360  0.99060  0.98230  Biso   1.000  H
  H101     1.0000 0.00940  0.61300  0.98230  Biso   1.000  H
  H102     1.0000 0.38700  0.39640  0.98230  Biso   1.000  H
  H103     1.0000 0.27027  0.32393  0.31563  Biso   1.000  H
  H104     1.0000 0.67607  0.94633  0.31563  Biso   1.000  H
  H105     1.0000 0.05367  0.72973  0.31563  Biso   1.000  H
  H106     1.0000 0.93693  0.65727  0.64897  Biso   1.000  H
  H107     1.0000 0.34273  0.27967  0.64897  Biso   1.000  H
  H108     1.0000 0.72033  0.06307  0.64897  Biso   1.000  H
  C109     1.0000 0.54292  0.99473  0.34480  Biso   1.000  C
  C110     1.0000 0.00527  0.54819  0.34480  Biso   1.000  C
  C111     1.0000 0.45181  0.45708  0.34480  Biso   1.000  C
  C112     1.0000 0.20959  0.32806  0.67813  Biso   1.000  C
  C113     1.0000 0.67194  0.88152  0.67813  Biso   1.000  C
  C114     1.0000 0.11848  0.79041  0.67813  Biso   1.000  C
  C115     1.0000 0.87625  0.66140  0.01147  Biso   1.000  C
  C116     1.0000 0.33860  0.21486  0.01147  Biso   1.000  C
  C117     1.0000 0.78514  0.12375  0.01147  Biso   1.000  C
  C118     1.0000 0.45708  0.00527  0.65520  Biso   1.000  C
  C119     1.0000 0.99473  0.45181  0.65520  Biso   1.000  C
  C120     1.0000 0.54819  0.54292  0.65520  Biso   1.000  C
  C121     1.0000 0.12375  0.33860  0.98853  Biso   1.000  C
  C122     1.0000 0.66140  0.78514  0.98853  Biso   1.000  C
  C123     1.0000 0.21486  0.87625  0.98853  Biso   1.000  C
  C124     1.0000 0.79041  0.67194  0.32187  Biso   1.000  C
  C125     1.0000 0.32806  0.11848  0.32187  Biso   1.000  C
  C126     1.0000 0.88152  0.20959  0.32187  Biso   1.000  C
  C127     1.0000 0.53641  0.08953  0.20670  Biso   1.000  C
  C128     1.0000 0.91047  0.44688  0.20670  Biso   1.000  C
  C129     1.0000 0.55312  0.46359  0.20670  Biso   1.000  C
  C130     1.0000 0.20308  0.42286  0.54003  Biso   1.000  C
  C131     1.0000 0.57714  0.78021  0.54003  Biso   1.000  C
  C132     1.0000 0.21979  0.79692  0.54003  Biso   1.000  C
  C133     1.0000 0.86974  0.75620  0.87337  Biso   1.000  C
  C134     1.0000 0.24380  0.11355  0.87337  Biso   1.000  C
  C135     1.0000 0.88645  0.13026  0.87337  Biso   1.000  C
  C136     1.0000 0.46359  0.91047  0.79330  Biso   1.000  C
  C137     1.0000 0.08953  0.55312  0.79330  Biso   1.000  C
  C138     1.0000 0.44688  0.53641  0.79330  Biso   1.000  C
  C139     1.0000 0.13026  0.24380  0.12663  Biso   1.000  C
  C140     1.0000 0.75620  0.88645  0.12663  Biso   1.000  C
  C141     1.0000 0.11355  0.86974  0.12663  Biso   1.000  C
  C142     1.0000 0.79692  0.57714  0.45997  Biso   1.000  C
  C143     1.0000 0.42286  0.21979  0.45997  Biso   1.000  C
  C144     1.0000 0.78021  0.20308  0.45997  Biso   1.000  C
  H109     1.0000 0.52220  0.09430  0.09050  Biso   1.000  H
  H110     1.0000 0.90570  0.42790  0.09050  Biso   1.000  H
  H111     1.0000 0.57210  0.47780  0.09050  Biso   1.000  H
  H112     1.0000 0.18887  0.42763  0.42383  Biso   1.000  H
  H113     1.0000 0.57237  0.76123  0.42383  Biso   1.000  H
  H114     1.0000 0.23877  0.81113  0.42383  Biso   1.000  H
  H115     1.0000 0.85553  0.76097  0.75717  Biso   1.000  H
  H116     1.0000 0.23903  0.09457  0.75717  Biso   1.000  H
  H117     1.0000 0.90543  0.14447  0.75717  Biso   1.000  H
  H118     1.0000 0.47780  0.90570  0.90950  Biso   1.000  H
  H119     1.0000 0.09430  0.57210  0.90950  Biso   1.000  H
  H120     1.0000 0.42790  0.52220  0.90950  Biso   1.000  H
  H121     1.0000 0.14447  0.23903  0.24283  Biso   1.000  H
  H122     1.0000 0.76097  0.90543  0.24283  Biso   1.000  H
  H123     1.0000 0.09457  0.85553  0.24283  Biso   1.000  H
  H124     1.0000 0.81113  0.57237  0.57617  Biso   1.000  H
  H125     1.0000 0.42763  0.23877  0.57617  Biso   1.000  H
  H126     1.0000 0.76123  0.18887  0.57617  Biso   1.000  H
  C145     1.0000 0.55915  0.12858  0.34590  Biso   1.000  C
  C146     1.0000 0.87142  0.43057  0.34590  Biso   1.000  C
  C147     1.0000 0.56943  0.44085  0.34590  Biso   1.000  C
  C148     1.0000 0.22582  0.46191  0.67923  Biso   1.000  C
  C149     1.0000 0.53809  0.76390  0.67923  Biso   1.000  C
  C150     1.0000 0.23610  0.77418  0.67923  Biso   1.000  C
  C151     1.0000 0.89248  0.79525  0.01257  Biso   1.000  C
  C152     1.0000 0.20475  0.09724  0.01257  Biso   1.000  C
  C153     1.0000 0.90276  0.10752  0.01257  Biso   1.000  C
  C154     1.0000 0.44085  0.87142  0.65410  Biso   1.000  C
  C155     1.0000 0.12858  0.56943  0.65410  Biso   1.000  C
  C156     1.0000 0.43057  0.55915  0.65410  Biso   1.000  C
  C157     1.0000 0.10752  0.20475  0.98743  Biso   1.000  C
  C158     1.0000 0.79525  0.90276  0.98743  Biso   1.000  C
  C159     1.0000 0.09724  0.89248  0.98743  Biso   1.000  C
  C160     1.0000 0.77418  0.53809  0.32077  Biso   1.000  C
  C161     1.0000 0.46191  0.23610  0.32077  Biso   1.000  C
  C162     1.0000 0.76390  0.22582  0.32077  Biso   1.000  C
  C163     1.0000 0.58765  0.13376  0.51710  Biso   1.000  C
  C164     1.0000 0.86624  0.45389  0.51710  Biso   1.000  C
  C165     1.0000 0.54611  0.41235  0.51710  Biso   1.000  C
  C166     1.0000 0.25432  0.46709  0.85043  Biso   1.000  C
  C167     1.0000 0.53291  0.78722  0.85043  Biso   1.000  C
  C168     1.0000 0.21278  0.74568  0.85043  Biso   1.000  C
  C169     1.0000 0.92098  0.80043  0.18377  Biso   1.000  C
  C170     1.0000 0.19957  0.12056  0.18377  Biso   1.000  C
  C171     1.0000 0.87944  0.07902  0.18377  Biso   1.000  C
  C172     1.0000 0.41235  0.86624  0.48290  Biso   1.000  C
  C173     1.0000 0.13376  0.54611  0.48290  Biso   1.000  C
  C174     1.0000 0.45389  0.58765  0.48290  Biso   1.000  C
  C175     1.0000 0.07902  0.19957  0.81623  Biso   1.000  C
  C176     1.0000 0.80043  0.87944  0.81623  Biso   1.000  C
  C177     1.0000 0.12056  0.92098  0.81623  Biso   1.000  C
  C178     1.0000 0.74568  0.53291  0.14957  Biso   1.000  C
  C179     1.0000 0.46709  0.21278  0.14957  Biso   1.000  C
  C180     1.0000 0.78722  0.25432  0.14957  Biso   1.000  C
  H127     1.0000 0.59350  0.11040  0.54960  Biso   1.000  H
  H128     1.0000 0.88960  0.48310  0.54960  Biso   1.000  H
  H129     1.0000 0.51690  0.40650  0.54960  Biso   1.000  H
  H130     1.0000 0.26017  0.44373  0.88293  Biso   1.000  H
  H131     1.0000 0.55627  0.81643  0.88293  Biso   1.000  H
  H132     1.0000 0.18357  0.73983  0.88293  Biso   1.000  H
  H133     1.0000 0.92683  0.77707  0.21627  Biso   1.000  H
  H134     1.0000 0.22293  0.14977  0.21627  Biso   1.000  H
  H135     1.0000 0.85023  0.07317  0.21627  Biso   1.000  H
  H136     1.0000 0.40650  0.88960  0.45040  Biso   1.000  H
  H137     1.0000 0.11040  0.51690  0.45040  Biso   1.000  H
  H138     1.0000 0.48310  0.59350  0.45040  Biso   1.000  H
  H139     1.0000 0.07317  0.22293  0.78373  Biso   1.000  H
  H140     1.0000 0.77707  0.85023  0.78373  Biso   1.000  H
  H141     1.0000 0.14977  0.92683  0.78373  Biso   1.000  H
  H142     1.0000 0.73983  0.55627  0.11707  Biso   1.000  H
  H143     1.0000 0.44373  0.18357  0.11707  Biso   1.000  H
  H144     1.0000 0.81643  0.26017  0.11707  Biso   1.000  H
  C181     1.0000 0.60720  0.17266  0.63840  Biso   1.000  C
  C182     1.0000 0.82734  0.43454  0.63840  Biso   1.000  C
  C183     1.0000 0.56546  0.39280  0.63840  Biso   1.000  C
  C184     1.0000 0.27387  0.50599  0.97173  Biso   1.000  C
  C185     1.0000 0.49401  0.76787  0.97173  Biso   1.000  C
  C186     1.0000 0.23213  0.72613  0.97173  Biso   1.000  C
  C187     1.0000 0.94053  0.83933  0.30507  Biso   1.000  C
  C188     1.0000 0.16067  0.10121  0.30507  Biso   1.000  C
  C189     1.0000 0.89879  0.05947  0.30507  Biso   1.000  C
  C190     1.0000 0.39280  0.82734  0.36160  Biso   1.000  C
  C191     1.0000 0.17266  0.56546  0.36160  Biso   1.000  C
  C192     1.0000 0.43454  0.60720  0.36160  Biso   1.000  C
  C193     1.0000 0.05947  0.16067  0.69493  Biso   1.000  C
  C194     1.0000 0.83933  0.89879  0.69493  Biso   1.000  C
  C195     1.0000 0.10121  0.94053  0.69493  Biso   1.000  C
  C196     1.0000 0.72613  0.49401  0.02827  Biso   1.000  C
  C197     1.0000 0.50599  0.23213  0.02827  Biso   1.000  C
  C198     1.0000 0.76787  0.27387  0.02827  Biso   1.000  C
  C199     1.0000 0.59894  0.20794  0.59060  Biso   1.000  C
  C200     1.0000 0.79206  0.39100  0.59060  Biso   1.000  C
  C201     1.0000 0.60900  0.40106  0.59060  Biso   1.000  C
  C202     1.0000 0.26561  0.54127  0.92393  Biso   1.000  C
  C203     1.0000 0.45873  0.72433  0.92393  Biso   1.000  C
  C204     1.0000 0.27567  0.73439  0.92393  Biso   1.000  C
  C205     1.0000 0.93227  0.87461  0.25727  Biso   1.000  C
  C206     1.0000 0.12539  0.05767  0.25727  Biso   1.000  C
  C207     1.0000 0.94233  0.06773  0.25727  Biso   1.000  C
  C208     1.0000 0.40106  0.79206  0.40940  Biso   1.000  C
  C209     1.0000 0.20794  0.60900  0.40940  Biso   1.000  C
  C210     1.0000 0.39100  0.59894  0.40940  Biso   1.000  C
  C211     1.0000 0.06773  0.12539  0.74273  Biso   1.000  C
  C212     1.0000 0.87461  0.94233  0.74273  Biso   1.000  C
  C213     1.0000 0.05767  0.93227  0.74273  Biso   1.000  C
  C214     1.0000 0.73439  0.45873  0.07607  Biso   1.000  C
  C215     1.0000 0.54127  0.27567  0.07607  Biso   1.000  C
  C216     1.0000 0.72433  0.26561  0.07607  Biso   1.000  C
  C217     1.0000 0.57197  0.20401  0.42090  Biso   1.000  C
  C218     1.0000 0.79599  0.36796  0.42090  Biso   1.000  C
  C219     1.0000 0.63204  0.42803  0.42090  Biso   1.000  C
  C220     1.0000 0.23864  0.53734  0.75423  Biso   1.000  C
  C221     1.0000 0.46266  0.70129  0.75423  Biso   1.000  C
  C222     1.0000 0.29871  0.76136  0.75423  Biso   1.000  C
  C223     1.0000 0.90530  0.87068  0.08757  Biso   1.000  C
  C224     1.0000 0.12932  0.03463  0.08757  Biso   1.000  C
  C225     1.0000 0.96537  0.09470  0.08757  Biso   1.000  C
  C226     1.0000 0.42803  0.79599  0.57910  Biso   1.000  C
  C227     1.0000 0.20401  0.63204  0.57910  Biso   1.000  C
  C228     1.0000 0.36796  0.57197  0.57910  Biso   1.000  C
  C229     1.0000 0.09470  0.12932  0.91243  Biso   1.000  C
  C230     1.0000 0.87068  0.96537  0.91243  Biso   1.000  C
  C231     1.0000 0.03463  0.90530  0.91243  Biso   1.000  C
  C232     1.0000 0.76136  0.46266  0.24577  Biso   1.000  C
  C233     1.0000 0.53734  0.29871  0.24577  Biso   1.000  C
  C234     1.0000 0.70129  0.23864  0.24577  Biso   1.000  C
  H145     1.0000 0.56690  0.22780  0.38690  Biso   1.000  H
  H146     1.0000 0.77220  0.33910  0.38690  Biso   1.000  H
  H147     1.0000 0.66090  0.43310  0.38690  Biso   1.000  H
  H148     1.0000 0.23357  0.56113  0.72023  Biso   1.000  H
  H149     1.0000 0.43887  0.67243  0.72023  Biso   1.000  H
  H150     1.0000 0.32757  0.76643  0.72023  Biso   1.000  H
  H151     1.0000 0.90023  0.89447  0.05357  Biso   1.000  H
  H152     1.0000 0.10553  0.00577  0.05357  Biso   1.000  H
  H153     1.0000 0.99423  0.09977  0.05357  Biso   1.000  H
  H154     1.0000 0.43310  0.77220  0.61310  Biso   1.000  H
  H155     1.0000 0.22780  0.66090  0.61310  Biso   1.000  H
  H156     1.0000 0.33910  0.56690  0.61310  Biso   1.000  H
  H157     1.0000 0.09977  0.10553  0.94643  Biso   1.000  H
  H158     1.0000 0.89447  0.99423  0.94643  Biso   1.000  H
  H159     1.0000 0.00577  0.90023  0.94643  Biso   1.000  H
  H160     1.0000 0.76643  0.43887  0.27977  Biso   1.000  H
  H161     1.0000 0.56113  0.32757  0.27977  Biso   1.000  H
  H162     1.0000 0.67243  0.23357  0.27977  Biso   1.000  H
  C235     1.0000 0.55232  0.16489  0.30010  Biso   1.000  C
  C236     1.0000 0.83511  0.38743  0.30010  Biso   1.000  C
  C237     1.0000 0.61257  0.44768  0.30010  Biso   1.000  C
  C238     1.0000 0.21899  0.49822  0.63343  Biso   1.000  C
  C239     1.0000 0.50178  0.72076  0.63343  Biso   1.000  C
  C240     1.0000 0.27924  0.78101  0.63343  Biso   1.000  C
  C241     1.0000 0.88565  0.83156  0.96677  Biso   1.000  C
  C242     1.0000 0.16844  0.05410  0.96677  Biso   1.000  C
  C243     1.0000 0.94590  0.11435  0.96677  Biso   1.000  C
  C244     1.0000 0.44768  0.83511  0.69990  Biso   1.000  C
  C245     1.0000 0.16489  0.61257  0.69990  Biso   1.000  C
  C246     1.0000 0.38743  0.55232  0.69990  Biso   1.000  C
  C247     1.0000 0.11435  0.16844  0.03323  Biso   1.000  C
  C248     1.0000 0.83156  0.94590  0.03323  Biso   1.000  C
  C249     1.0000 0.05410  0.88565  0.03323  Biso   1.000  C
  C250     1.0000 0.78101  0.50178  0.36657  Biso   1.000  C
  C251     1.0000 0.49822  0.27924  0.36657  Biso   1.000  C
  C252     1.0000 0.72076  0.21899  0.36657  Biso   1.000  C
  H163     1.0000 0.53400  0.16260  0.18490  Biso   1.000  H
  H164     1.0000 0.83740  0.37140  0.18490  Biso   1.000  H
  H165     1.0000 0.62860  0.46600  0.18490  Biso   1.000  H
  H166     1.0000 0.20067  0.49593  0.51823  Biso   1.000  H
  H167     1.0000 0.50407  0.70473  0.51823  Biso   1.000  H
  H168     1.0000 0.29527  0.79933  0.51823  Biso   1.000  H
  H169     1.0000 0.86733  0.82927  0.85157  Biso   1.000  H
  H170     1.0000 0.17073  0.03807  0.85157  Biso   1.000  H
  H171     1.0000 0.96193  0.13267  0.85157  Biso   1.000  H
  H172     1.0000 0.46600  0.83740  0.81510  Biso   1.000  H
  H173     1.0000 0.16260  0.62860  0.81510  Biso   1.000  H
  H174     1.0000 0.37140  0.53400  0.81510  Biso   1.000  H
  H175     1.0000 0.13267  0.17073  0.14843  Biso   1.000  H
  H176     1.0000 0.82927  0.96193  0.14843  Biso   1.000  H
  H177     1.0000 0.03807  0.86733  0.14843  Biso   1.000  H
  H178     1.0000 0.79933  0.50407  0.48177  Biso   1.000  H
  H179     1.0000 0.49593  0.29527  0.48177  Biso   1.000  H
  H180     1.0000 0.70473  0.20067  0.48177  Biso   1.000  H
  C253     1.0000 0.64468  0.14672  0.87320  Biso   1.000  C
  C254     1.0000 0.85328  0.49796  0.87320  Biso   1.000  C
  C255     1.0000 0.50204  0.35532  0.87320  Biso   1.000  C
  C256     1.0000 0.31135  0.48005  0.20653  Biso   1.000  C
  C257     1.0000 0.51995  0.83129  0.20653  Biso   1.000  C
  C258     1.0000 0.16871  0.68865  0.20653  Biso   1.000  C
  C259     1.0000 0.97801  0.81339  0.53987  Biso   1.000  C
  C260     1.0000 0.18661  0.16463  0.53987  Biso   1.000  C
  C261     1.0000 0.83537  0.02199  0.53987  Biso   1.000  C
  C262     1.0000 0.35532  0.85328  0.12680  Biso   1.000  C
  C263     1.0000 0.14672  0.50204  0.12680  Biso   1.000  C
  C264     1.0000 0.49796  0.64468  0.12680  Biso   1.000  C
  C265     1.0000 0.02199  0.18661  0.46013  Biso   1.000  C
  C266     1.0000 0.81339  0.83537  0.46013  Biso   1.000  C
  C267     1.0000 0.16463  0.97801  0.46013  Biso   1.000  C
  C268     1.0000 0.68865  0.51995  0.79347  Biso   1.000  C
  C269     1.0000 0.48005  0.16871  0.79347  Biso   1.000  C
  C270     1.0000 0.83129  0.31135  0.79347  Biso   1.000  C
  H181     1.0000 0.66490  0.15710  0.99360  Biso   1.000  H
  H182     1.0000 0.84290  0.50780  0.99360  Biso   1.000  H
  H183     1.0000 0.49220  0.33510  0.99360  Biso   1.000  H
  H184     1.0000 0.33157  0.49043  0.32693  Biso   1.000  H
  H185     1.0000 0.50957  0.84113  0.32693  Biso   1.000  H
  H186     1.0000 0.15887  0.66843  0.32693  Biso   1.000  H
  H187     1.0000 0.99823  0.82377  0.66027  Biso   1.000  H
  H188     1.0000 0.17623  0.17447  0.66027  Biso   1.000  H
  H189     1.0000 0.82553  0.00177  0.66027  Biso   1.000  H
  H190     1.0000 0.33510  0.84290  0.00640  Biso   1.000  H
  H191     1.0000 0.15710  0.49220  0.00640  Biso   1.000  H
  H192     1.0000 0.50780  0.66490  0.00640  Biso   1.000  H
  H193     1.0000 0.00177  0.17623  0.33973  Biso   1.000  H
  H194     1.0000 0.82377  0.82553  0.33973  Biso   1.000  H
  H195     1.0000 0.17447  0.99823  0.33973  Biso   1.000  H
  H196     1.0000 0.66843  0.50957  0.67307  Biso   1.000  H
  H197     1.0000 0.49043  0.15887  0.67307  Biso   1.000  H
  H198     1.0000 0.84113  0.33157  0.67307  Biso   1.000  H
  H199     1.0000 0.65850  0.13930  0.75810  Biso   1.000  H
  H200     1.0000 0.86070  0.51920  0.75810  Biso   1.000  H
  H201     1.0000 0.48080  0.34150  0.75810  Biso   1.000  H
  H202     1.0000 0.32517  0.47263  0.09143  Biso   1.000  H
  H203     1.0000 0.52737  0.85253  0.09143  Biso   1.000  H
  H204     1.0000 0.14747  0.67483  0.09143  Biso   1.000  H
  H205     1.0000 0.99183  0.80597  0.42477  Biso   1.000  H
  H206     1.0000 0.19403  0.18587  0.42477  Biso   1.000  H
  H207     1.0000 0.81413  0.00817  0.42477  Biso   1.000  H
  H208     1.0000 0.34150  0.86070  0.24190  Biso   1.000  H
  H209     1.0000 0.13930  0.48080  0.24190  Biso   1.000  H
  H210     1.0000 0.51920  0.65850  0.24190  Biso   1.000  H
  H211     1.0000 0.00817  0.19403  0.57523  Biso   1.000  H
  H212     1.0000 0.80597  0.81413  0.57523  Biso   1.000  H
  H213     1.0000 0.18587  0.99183  0.57523  Biso   1.000  H
  H214     1.0000 0.67483  0.52737  0.90857  Biso   1.000  H
  H215     1.0000 0.47263  0.14747  0.90857  Biso   1.000  H
  H216     1.0000 0.85253  0.32517  0.90857  Biso   1.000  H
  H217     1.0000 0.61660  0.12020  0.91280  Biso   1.000  H
  H218     1.0000 0.87980  0.49640  0.91280  Biso   1.000  H
  H219     1.0000 0.50360  0.38340  0.91280  Biso   1.000  H
  H220     1.0000 0.28327  0.45353  0.24613  Biso   1.000  H
  H221     1.0000 0.54647  0.82973  0.24613  Biso   1.000  H
  H222     1.0000 0.17027  0.71673  0.24613  Biso   1.000  H
  H223     1.0000 0.94993  0.78687  0.57947  Biso   1.000  H
  H224     1.0000 0.21313  0.16307  0.57947  Biso   1.000  H
  H225     1.0000 0.83693  0.05007  0.57947  Biso   1.000  H
  H226     1.0000 0.38340  0.87980  0.08720  Biso   1.000  H
  H227     1.0000 0.12020  0.50360  0.08720  Biso   1.000  H
  H228     1.0000 0.49640  0.61660  0.08720  Biso   1.000  H
  H229     1.0000 0.05007  0.21313  0.42053  Biso   1.000  H
  H230     1.0000 0.78687  0.83693  0.42053  Biso   1.000  H
  H231     1.0000 0.16307  0.94993  0.42053  Biso   1.000  H
  H232     1.0000 0.71673  0.54647  0.75387  Biso   1.000  H
  H233     1.0000 0.45353  0.17027  0.75387  Biso   1.000  H
  H234     1.0000 0.82973  0.28327  0.75387  Biso   1.000  H
