data_image0
_cell_length_a       14.508
_cell_length_b       14.508
_cell_length_c       21.319
_cell_angle_alpha    90
_cell_angle_beta     90
_cell_angle_gamma    120

_symmetry_space_group_name_H-M    "P 1"
_symmetry_int_tables_number       1

loop_
  _symmetry_equiv_pos_as_xyz
  'x, y, z'

loop_
  _atom_site_label
  _atom_site_occupancy
  _atom_site_fract_x
  _atom_site_fract_y
  _atom_site_fract_z
  _atom_site_thermal_displace_type
  _atom_site_B_iso_or_equiv
  _atom_site_type_symbol
  Cu1      1.0000 0.83330  0.66670  0.66670  Biso   1.000  Cu
  Cu2      1.0000 0.33330  0.16660  0.66670  Biso   1.000  Cu
  Cu3      1.0000 0.83340  0.16670  0.66670  Biso   1.000  Cu
  Cu4      1.0000 0.49997  0.00003  0.00003  Biso   1.000  Cu
  Cu5      1.0000 0.99997  0.49993  0.00003  Biso   1.000  Cu
  Cu6      1.0000 0.50007  0.50003  0.00003  Biso   1.000  Cu
  Cu7      1.0000 0.16663  0.33337  0.33337  Biso   1.000  Cu
  Cu8      1.0000 0.66663  0.83327  0.33337  Biso   1.000  Cu
  Cu9      1.0000 0.16673  0.83337  0.33337  Biso   1.000  Cu
  Cl1      1.0000 0.90876  0.55526  0.64243  Biso   1.000  Cl
  Cl2      1.0000 0.44474  0.35350  0.64243  Biso   1.000  Cl
  Cl3      1.0000 0.64650  0.09124  0.64243  Biso   1.000  Cl
  Cl4      1.0000 0.57543  0.88859  0.97576  Biso   1.000  Cl
  Cl5      1.0000 0.11141  0.68683  0.97576  Biso   1.000  Cl
  Cl6      1.0000 0.31317  0.42457  0.97576  Biso   1.000  Cl
  Cl7      1.0000 0.24209  0.22193  0.30910  Biso   1.000  Cl
  Cl8      1.0000 0.77807  0.02017  0.30910  Biso   1.000  Cl
  Cl9      1.0000 0.97983  0.75791  0.30910  Biso   1.000  Cl
  Cl10     1.0000 0.09124  0.44474  0.35757  Biso   1.000  Cl
  Cl11     1.0000 0.55526  0.64650  0.35757  Biso   1.000  Cl
  Cl12     1.0000 0.35350  0.90876  0.35757  Biso   1.000  Cl
  Cl13     1.0000 0.75791  0.77807  0.69090  Biso   1.000  Cl
  Cl14     1.0000 0.22193  0.97983  0.69090  Biso   1.000  Cl
  Cl15     1.0000 0.02017  0.24209  0.69090  Biso   1.000  Cl
  Cl16     1.0000 0.42457  0.11141  0.02424  Biso   1.000  Cl
  Cl17     1.0000 0.88859  0.31317  0.02424  Biso   1.000  Cl
  Cl18     1.0000 0.68683  0.57543  0.02424  Biso   1.000  Cl
  O1       1.0000 0.67600  0.51250  0.69811  Biso   1.000  O
  O2       1.0000 0.48750  0.16350  0.69811  Biso   1.000  O
  O3       1.0000 0.83650  0.32400  0.69811  Biso   1.000  O
  O4       1.0000 0.34267  0.84583  0.03144  Biso   1.000  O
  O5       1.0000 0.15417  0.49683  0.03144  Biso   1.000  O
  O6       1.0000 0.50317  0.65733  0.03144  Biso   1.000  O
  O7       1.0000 0.00933  0.17917  0.36478  Biso   1.000  O
  O8       1.0000 0.82083  0.83017  0.36478  Biso   1.000  O
  O9       1.0000 0.16983  0.99067  0.36478  Biso   1.000  O
  O10      1.0000 0.32400  0.48750  0.30189  Biso   1.000  O
  O11      1.0000 0.51250  0.83650  0.30189  Biso   1.000  O
  O12      1.0000 0.16350  0.67600  0.30189  Biso   1.000  O
  O13      1.0000 0.99067  0.82083  0.63522  Biso   1.000  O
  O14      1.0000 0.17917  0.16983  0.63522  Biso   1.000  O
  O15      1.0000 0.83017  0.00933  0.63522  Biso   1.000  O
  O16      1.0000 0.65733  0.15417  0.96856  Biso   1.000  O
  O17      1.0000 0.84583  0.50317  0.96856  Biso   1.000  O
  O18      1.0000 0.49683  0.34267  0.96856  Biso   1.000  O
  O19      1.0000 0.66670  0.33330  0.59410  Biso   1.000  O
  O20      1.0000 0.33337  0.66663  0.92743  Biso   1.000  O
  O21      1.0000 0.00003  0.99997  0.26077  Biso   1.000  O
  O22      1.0000 0.33330  0.66670  0.40590  Biso   1.000  O
  O23      1.0000 0.99997  0.00003  0.73923  Biso   1.000  O
  O24      1.0000 0.66663  0.33337  0.07257  Biso   1.000  O
  O25      1.0000 0.66670  0.33330  0.76000  Biso   1.000  O
  O26      1.0000 0.33337  0.66663  0.09333  Biso   1.000  O
  O27      1.0000 0.00003  0.99997  0.42667  Biso   1.000  O
  O28      1.0000 0.33330  0.66670  0.24000  Biso   1.000  O
  O29      1.0000 0.99997  0.00003  0.57333  Biso   1.000  O
  O30      1.0000 0.66663  0.33337  0.90667  Biso   1.000  O
  N1       1.0000 0.75110  0.61110  0.48060  Biso   1.000  N
  N2       1.0000 0.38890  0.14000  0.48060  Biso   1.000  N
  N3       1.0000 0.86000  0.24890  0.48060  Biso   1.000  N
  N4       1.0000 0.41777  0.94443  0.81393  Biso   1.000  N
  N5       1.0000 0.05557  0.47333  0.81393  Biso   1.000  N
  N6       1.0000 0.52667  0.58223  0.81393  Biso   1.000  N
  N7       1.0000 0.08443  0.27777  0.14727  Biso   1.000  N
  N8       1.0000 0.72223  0.80667  0.14727  Biso   1.000  N
  N9       1.0000 0.19333  0.91557  0.14727  Biso   1.000  N
  N10      1.0000 0.24890  0.38890  0.51940  Biso   1.000  N
  N11      1.0000 0.61110  0.86000  0.51940  Biso   1.000  N
  N12      1.0000 0.14000  0.75110  0.51940  Biso   1.000  N
  N13      1.0000 0.91557  0.72223  0.85273  Biso   1.000  N
  N14      1.0000 0.27777  0.19333  0.85273  Biso   1.000  N
  N15      1.0000 0.80667  0.08443  0.85273  Biso   1.000  N
  N16      1.0000 0.58223  0.05557  0.18607  Biso   1.000  N
  N17      1.0000 0.94443  0.52667  0.18607  Biso   1.000  N
  N18      1.0000 0.47333  0.41777  0.18607  Biso   1.000  N
  N19      1.0000 0.77720  0.71610  0.48280  Biso   1.000  N
  N20      1.0000 0.28390  0.06110  0.48280  Biso   1.000  N
  N21      1.0000 0.93890  0.22280  0.48280  Biso   1.000  N
  N22      1.0000 0.44387  0.04943  0.81613  Biso   1.000  N
  N23      1.0000 0.95057  0.39443  0.81613  Biso   1.000  N
  N24      1.0000 0.60557  0.55613  0.81613  Biso   1.000  N
  N25      1.0000 0.11053  0.38277  0.14947  Biso   1.000  N
  N26      1.0000 0.61723  0.72777  0.14947  Biso   1.000  N
  N27      1.0000 0.27223  0.88947  0.14947  Biso   1.000  N
  N28      1.0000 0.22280  0.28390  0.51720  Biso   1.000  N
  N29      1.0000 0.71610  0.93890  0.51720  Biso   1.000  N
  N30      1.0000 0.06110  0.77720  0.51720  Biso   1.000  N
  N31      1.0000 0.88947  0.61723  0.85053  Biso   1.000  N
  N32      1.0000 0.38277  0.27223  0.85053  Biso   1.000  N
  N33      1.0000 0.72777  0.11053  0.85053  Biso   1.000  N
  N34      1.0000 0.55613  0.95057  0.18387  Biso   1.000  N
  N35      1.0000 0.04943  0.60557  0.18387  Biso   1.000  N
  N36      1.0000 0.39443  0.44387  0.18387  Biso   1.000  N
  N37      1.0000 0.78840  0.65850  0.57791  Biso   1.000  N
  N38      1.0000 0.34150  0.12990  0.57791  Biso   1.000  N
  N39      1.0000 0.87010  0.21160  0.57791  Biso   1.000  N
  N40      1.0000 0.45507  0.99183  0.91124  Biso   1.000  N
  N41      1.0000 0.00817  0.46323  0.91124  Biso   1.000  N
  N42      1.0000 0.53677  0.54493  0.91124  Biso   1.000  N
  N43      1.0000 0.12173  0.32517  0.24458  Biso   1.000  N
  N44      1.0000 0.67483  0.79657  0.24458  Biso   1.000  N
  N45      1.0000 0.20343  0.87827  0.24458  Biso   1.000  N
  N46      1.0000 0.21160  0.34150  0.42209  Biso   1.000  N
  N47      1.0000 0.65850  0.87010  0.42209  Biso   1.000  N
  N48      1.0000 0.12990  0.78840  0.42209  Biso   1.000  N
  N49      1.0000 0.87827  0.67483  0.75542  Biso   1.000  N
  N50      1.0000 0.32517  0.20343  0.75542  Biso   1.000  N
  N51      1.0000 0.79657  0.12173  0.75542  Biso   1.000  N
  N52      1.0000 0.54493  0.00817  0.08876  Biso   1.000  N
  N53      1.0000 0.99183  0.53677  0.08876  Biso   1.000  N
  N54      1.0000 0.46323  0.45507  0.08876  Biso   1.000  N
  C1       1.0000 0.79820  0.73910  0.54226  Biso   1.000  C
  C2       1.0000 0.26090  0.05910  0.54226  Biso   1.000  C
  C3       1.0000 0.94090  0.20180  0.54226  Biso   1.000  C
  C4       1.0000 0.46487  0.07243  0.87559  Biso   1.000  C
  C5       1.0000 0.92757  0.39243  0.87559  Biso   1.000  C
  C6       1.0000 0.60757  0.53513  0.87559  Biso   1.000  C
  C7       1.0000 0.13153  0.40577  0.20893  Biso   1.000  C
  C8       1.0000 0.59423  0.72577  0.20893  Biso   1.000  C
  C9       1.0000 0.27423  0.86847  0.20893  Biso   1.000  C
  C10      1.0000 0.20180  0.26090  0.45774  Biso   1.000  C
  C11      1.0000 0.73910  0.94090  0.45774  Biso   1.000  C
  C12      1.0000 0.05910  0.79820  0.45774  Biso   1.000  C
  C13      1.0000 0.86847  0.59423  0.79107  Biso   1.000  C
  C14      1.0000 0.40577  0.27423  0.79107  Biso   1.000  C
  C15      1.0000 0.72577  0.13153  0.79107  Biso   1.000  C
  C16      1.0000 0.53513  0.92757  0.12441  Biso   1.000  C
  C17      1.0000 0.07243  0.60757  0.12441  Biso   1.000  C
  C18      1.0000 0.39243  0.46487  0.12441  Biso   1.000  C
  H1       1.0000 0.81860  0.80670  0.55870  Biso   1.000  H
  H2       1.0000 0.19330  0.01190  0.55870  Biso   1.000  H
  H3       1.0000 0.98810  0.18140  0.55870  Biso   1.000  H
  H4       1.0000 0.48527  0.14003  0.89203  Biso   1.000  H
  H5       1.0000 0.85997  0.34523  0.89203  Biso   1.000  H
  H6       1.0000 0.65477  0.51473  0.89203  Biso   1.000  H
  H7       1.0000 0.15193  0.47337  0.22537  Biso   1.000  H
  H8       1.0000 0.52663  0.67857  0.22537  Biso   1.000  H
  H9       1.0000 0.32143  0.84807  0.22537  Biso   1.000  H
  H10      1.0000 0.18140  0.19330  0.44130  Biso   1.000  H
  H11      1.0000 0.80670  0.98810  0.44130  Biso   1.000  H
  H12      1.0000 0.01190  0.81860  0.44130  Biso   1.000  H
  H13      1.0000 0.84807  0.52663  0.77463  Biso   1.000  H
  H14      1.0000 0.47337  0.32143  0.77463  Biso   1.000  H
  H15      1.0000 0.67857  0.15193  0.77463  Biso   1.000  H
  H16      1.0000 0.51473  0.85997  0.10797  Biso   1.000  H
  H17      1.0000 0.14003  0.65477  0.10797  Biso   1.000  H
  H18      1.0000 0.34523  0.48527  0.10797  Biso   1.000  H
  C19      1.0000 0.75850  0.57850  0.53761  Biso   1.000  C
  C20      1.0000 0.42150  0.18000  0.53761  Biso   1.000  C
  C21      1.0000 0.82000  0.24150  0.53761  Biso   1.000  C
  C22      1.0000 0.42517  0.91183  0.87094  Biso   1.000  C
  C23      1.0000 0.08817  0.51333  0.87094  Biso   1.000  C
  C24      1.0000 0.48667  0.57483  0.87094  Biso   1.000  C
  C25      1.0000 0.09183  0.24517  0.20428  Biso   1.000  C
  C26      1.0000 0.75483  0.84667  0.20428  Biso   1.000  C
  C27      1.0000 0.15333  0.90817  0.20428  Biso   1.000  C
  C28      1.0000 0.24150  0.42150  0.46239  Biso   1.000  C
  C29      1.0000 0.57850  0.82000  0.46239  Biso   1.000  C
  C30      1.0000 0.18000  0.75850  0.46239  Biso   1.000  C
  C31      1.0000 0.90817  0.75483  0.79572  Biso   1.000  C
  C32      1.0000 0.24517  0.15333  0.79572  Biso   1.000  C
  C33      1.0000 0.84667  0.09183  0.79572  Biso   1.000  C
  C34      1.0000 0.57483  0.08817  0.12906  Biso   1.000  C
  C35      1.0000 0.91183  0.48667  0.12906  Biso   1.000  C
  C36      1.0000 0.51333  0.42517  0.12906  Biso   1.000  C
  H19      1.0000 0.74490  0.50980  0.54790  Biso   1.000  H
  H20      1.0000 0.49020  0.23510  0.54790  Biso   1.000  H
  H21      1.0000 0.76490  0.25510  0.54790  Biso   1.000  H
  H22      1.0000 0.41157  0.84313  0.88123  Biso   1.000  H
  H23      1.0000 0.15687  0.56843  0.88123  Biso   1.000  H
  H24      1.0000 0.43157  0.58843  0.88123  Biso   1.000  H
  H25      1.0000 0.07823  0.17647  0.21457  Biso   1.000  H
  H26      1.0000 0.82353  0.90177  0.21457  Biso   1.000  H
  H27      1.0000 0.09823  0.92177  0.21457  Biso   1.000  H
  H28      1.0000 0.25510  0.49020  0.45210  Biso   1.000  H
  H29      1.0000 0.50980  0.76490  0.45210  Biso   1.000  H
  H30      1.0000 0.23510  0.74490  0.45210  Biso   1.000  H
  H31      1.0000 0.92177  0.82353  0.78543  Biso   1.000  H
  H32      1.0000 0.17647  0.09823  0.78543  Biso   1.000  H
  H33      1.0000 0.90177  0.07823  0.78543  Biso   1.000  H
  H34      1.0000 0.58843  0.15687  0.11877  Biso   1.000  H
  H35      1.0000 0.84313  0.43157  0.11877  Biso   1.000  H
  H36      1.0000 0.56843  0.41157  0.11877  Biso   1.000  H
  C37      1.0000 0.72890  0.55620  0.41952  Biso   1.000  C
  C38      1.0000 0.44380  0.17270  0.41952  Biso   1.000  C
  C39      1.0000 0.82730  0.27110  0.41952  Biso   1.000  C
  C40      1.0000 0.39557  0.88953  0.75285  Biso   1.000  C
  C41      1.0000 0.11047  0.50603  0.75285  Biso   1.000  C
  C42      1.0000 0.49397  0.60443  0.75285  Biso   1.000  C
  C43      1.0000 0.06223  0.22287  0.08619  Biso   1.000  C
  C44      1.0000 0.77713  0.83937  0.08619  Biso   1.000  C
  C45      1.0000 0.16063  0.93777  0.08619  Biso   1.000  C
  C46      1.0000 0.27110  0.44380  0.58048  Biso   1.000  C
  C47      1.0000 0.55620  0.82730  0.58048  Biso   1.000  C
  C48      1.0000 0.17270  0.72890  0.58048  Biso   1.000  C
  C49      1.0000 0.93777  0.77713  0.91381  Biso   1.000  C
  C50      1.0000 0.22287  0.16063  0.91381  Biso   1.000  C
  C51      1.0000 0.83937  0.06223  0.91381  Biso   1.000  C
  C52      1.0000 0.60443  0.11047  0.24715  Biso   1.000  C
  C53      1.0000 0.88953  0.49397  0.24715  Biso   1.000  C
  C54      1.0000 0.50603  0.39557  0.24715  Biso   1.000  C
  H37      1.0000 0.79260  0.59230  0.39320  Biso   1.000  H
  H38      1.0000 0.40770  0.20030  0.39320  Biso   1.000  H
  H39      1.0000 0.79970  0.20740  0.39320  Biso   1.000  H
  H40      1.0000 0.45927  0.92563  0.72653  Biso   1.000  H
  H41      1.0000 0.07437  0.53363  0.72653  Biso   1.000  H
  H42      1.0000 0.46637  0.54073  0.72653  Biso   1.000  H
  H43      1.0000 0.12593  0.25897  0.05987  Biso   1.000  H
  H44      1.0000 0.74103  0.86697  0.05987  Biso   1.000  H
  H45      1.0000 0.13303  0.87407  0.05987  Biso   1.000  H
  H46      1.0000 0.20740  0.40770  0.60680  Biso   1.000  H
  H47      1.0000 0.59230  0.79970  0.60680  Biso   1.000  H
  H48      1.0000 0.20030  0.79260  0.60680  Biso   1.000  H
  H49      1.0000 0.87407  0.74103  0.94013  Biso   1.000  H
  H50      1.0000 0.25897  0.13303  0.94013  Biso   1.000  H
  H51      1.0000 0.86697  0.12593  0.94013  Biso   1.000  H
  H52      1.0000 0.54073  0.07437  0.27347  Biso   1.000  H
  H53      1.0000 0.92563  0.46637  0.27347  Biso   1.000  H
  H54      1.0000 0.53363  0.45927  0.27347  Biso   1.000  H
  H55      1.0000 0.67180  0.56190  0.39850  Biso   1.000  H
  H56      1.0000 0.43810  0.10990  0.39850  Biso   1.000  H
  H57      1.0000 0.89010  0.32820  0.39850  Biso   1.000  H
  H58      1.0000 0.33847  0.89523  0.73183  Biso   1.000  H
  H59      1.0000 0.10477  0.44323  0.73183  Biso   1.000  H
  H60      1.0000 0.55677  0.66153  0.73183  Biso   1.000  H
  H61      1.0000 0.00513  0.22857  0.06517  Biso   1.000  H
  H62      1.0000 0.77143  0.77657  0.06517  Biso   1.000  H
  H63      1.0000 0.22343  0.99487  0.06517  Biso   1.000  H
  H64      1.0000 0.32820  0.43810  0.60150  Biso   1.000  H
  H65      1.0000 0.56190  0.89010  0.60150  Biso   1.000  H
  H66      1.0000 0.10990  0.67180  0.60150  Biso   1.000  H
  H67      1.0000 0.99487  0.77143  0.93483  Biso   1.000  H
  H68      1.0000 0.22857  0.22343  0.93483  Biso   1.000  H
  H69      1.0000 0.77657  0.00513  0.93483  Biso   1.000  H
  H70      1.0000 0.66153  0.10477  0.26817  Biso   1.000  H
  H71      1.0000 0.89523  0.55677  0.26817  Biso   1.000  H
  H72      1.0000 0.44323  0.33847  0.26817  Biso   1.000  H
  C55      1.0000 0.69690  0.44140  0.42481  Biso   1.000  C
  C56      1.0000 0.55860  0.25550  0.42481  Biso   1.000  C
  C57      1.0000 0.74450  0.30310  0.42481  Biso   1.000  C
  C58      1.0000 0.36357  0.77473  0.75814  Biso   1.000  C
  C59      1.0000 0.22527  0.58883  0.75814  Biso   1.000  C
  C60      1.0000 0.41117  0.63643  0.75814  Biso   1.000  C
  C61      1.0000 0.03023  0.10807  0.09148  Biso   1.000  C
  C62      1.0000 0.89193  0.92217  0.09148  Biso   1.000  C
  C63      1.0000 0.07783  0.96977  0.09148  Biso   1.000  C
  C64      1.0000 0.30310  0.55860  0.57519  Biso   1.000  C
  C65      1.0000 0.44140  0.74450  0.57519  Biso   1.000  C
  C66      1.0000 0.25550  0.69690  0.57519  Biso   1.000  C
  C67      1.0000 0.96977  0.89193  0.90852  Biso   1.000  C
  C68      1.0000 0.10807  0.07783  0.90852  Biso   1.000  C
  C69      1.0000 0.92217  0.03023  0.90852  Biso   1.000  C
  C70      1.0000 0.63643  0.22527  0.24186  Biso   1.000  C
  C71      1.0000 0.77473  0.41117  0.24186  Biso   1.000  C
  C72      1.0000 0.58883  0.36357  0.24186  Biso   1.000  C
  C73      1.0000 0.77520  0.41160  0.42592  Biso   1.000  C
  C74      1.0000 0.58840  0.36360  0.42592  Biso   1.000  C
  C75      1.0000 0.63640  0.22480  0.42592  Biso   1.000  C
  C76      1.0000 0.44187  0.74493  0.75925  Biso   1.000  C
  C77      1.0000 0.25507  0.69693  0.75925  Biso   1.000  C
  C78      1.0000 0.30307  0.55813  0.75925  Biso   1.000  C
  C79      1.0000 0.10853  0.07827  0.09259  Biso   1.000  C
  C80      1.0000 0.92173  0.03027  0.09259  Biso   1.000  C
  C81      1.0000 0.96973  0.89147  0.09259  Biso   1.000  C
  C82      1.0000 0.22480  0.58840  0.57408  Biso   1.000  C
  C83      1.0000 0.41160  0.63640  0.57408  Biso   1.000  C
  C84      1.0000 0.36360  0.77520  0.57408  Biso   1.000  C
  C85      1.0000 0.89147  0.92173  0.90741  Biso   1.000  C
  C86      1.0000 0.07827  0.96973  0.90741  Biso   1.000  C
  C87      1.0000 0.03027  0.10853  0.90741  Biso   1.000  C
  C88      1.0000 0.55813  0.25507  0.24075  Biso   1.000  C
  C89      1.0000 0.74493  0.30307  0.24075  Biso   1.000  C
  C90      1.0000 0.69693  0.44187  0.24075  Biso   1.000  C
  C91      1.0000 0.89150  0.49620  0.43033  Biso   1.000  C
  C92      1.0000 0.50380  0.39530  0.43033  Biso   1.000  C
  C93      1.0000 0.60470  0.10850  0.43033  Biso   1.000  C
  C94      1.0000 0.55817  0.82953  0.76366  Biso   1.000  C
  C95      1.0000 0.17047  0.72863  0.76366  Biso   1.000  C
  C96      1.0000 0.27137  0.44183  0.76366  Biso   1.000  C
  C97      1.0000 0.22483  0.16287  0.09700  Biso   1.000  C
  C98      1.0000 0.83713  0.06197  0.09700  Biso   1.000  C
  C99      1.0000 0.93803  0.77517  0.09700  Biso   1.000  C
  C100     1.0000 0.10850  0.50380  0.56967  Biso   1.000  C
  C101     1.0000 0.49620  0.60470  0.56967  Biso   1.000  C
  C102     1.0000 0.39530  0.89150  0.56967  Biso   1.000  C
  C103     1.0000 0.77517  0.83713  0.90300  Biso   1.000  C
  C104     1.0000 0.16287  0.93803  0.90300  Biso   1.000  C
  C105     1.0000 0.06197  0.22483  0.90300  Biso   1.000  C
  C106     1.0000 0.44183  0.17047  0.23634  Biso   1.000  C
  C107     1.0000 0.82953  0.27137  0.23634  Biso   1.000  C
  C108     1.0000 0.72863  0.55817  0.23634  Biso   1.000  C
  H73      1.0000 0.93490  0.46260  0.43080  Biso   1.000  H
  H74      1.0000 0.53740  0.47230  0.43080  Biso   1.000  H
  H75      1.0000 0.52770  0.06510  0.43080  Biso   1.000  H
  H76      1.0000 0.60157  0.79593  0.76413  Biso   1.000  H
  H77      1.0000 0.20407  0.80563  0.76413  Biso   1.000  H
  H78      1.0000 0.19437  0.39843  0.76413  Biso   1.000  H
  H79      1.0000 0.26823  0.12927  0.09747  Biso   1.000  H
  H80      1.0000 0.87073  0.13897  0.09747  Biso   1.000  H
  H81      1.0000 0.86103  0.73177  0.09747  Biso   1.000  H
  H82      1.0000 0.06510  0.53740  0.56920  Biso   1.000  H
  H83      1.0000 0.46260  0.52770  0.56920  Biso   1.000  H
  H84      1.0000 0.47230  0.93490  0.56920  Biso   1.000  H
  H85      1.0000 0.73177  0.87073  0.90253  Biso   1.000  H
  H86      1.0000 0.12927  0.86103  0.90253  Biso   1.000  H
  H87      1.0000 0.13897  0.26823  0.90253  Biso   1.000  H
  H88      1.0000 0.39843  0.20407  0.23587  Biso   1.000  H
  H89      1.0000 0.79593  0.19437  0.23587  Biso   1.000  H
  H90      1.0000 0.80563  0.60157  0.23587  Biso   1.000  H
  H91      1.0000 0.90350  0.53690  0.46860  Biso   1.000  H
  H92      1.0000 0.46310  0.36660  0.46860  Biso   1.000  H
  H93      1.0000 0.63340  0.09650  0.46860  Biso   1.000  H
  H94      1.0000 0.57017  0.87023  0.80193  Biso   1.000  H
  H95      1.0000 0.12977  0.69993  0.80193  Biso   1.000  H
  H96      1.0000 0.30007  0.42983  0.80193  Biso   1.000  H
  H97      1.0000 0.23683  0.20357  0.13527  Biso   1.000  H
  H98      1.0000 0.79643  0.03327  0.13527  Biso   1.000  H
  H99      1.0000 0.96673  0.76317  0.13527  Biso   1.000  H
  H100     1.0000 0.09650  0.46310  0.53140  Biso   1.000  H
  H101     1.0000 0.53690  0.63340  0.53140  Biso   1.000  H
  H102     1.0000 0.36660  0.90350  0.53140  Biso   1.000  H
  H103     1.0000 0.76317  0.79643  0.86473  Biso   1.000  H
  H104     1.0000 0.20357  0.96673  0.86473  Biso   1.000  H
  H105     1.0000 0.03327  0.23683  0.86473  Biso   1.000  H
  H106     1.0000 0.42983  0.12977  0.19807  Biso   1.000  H
  H107     1.0000 0.87023  0.30007  0.19807  Biso   1.000  H
  H108     1.0000 0.69993  0.57017  0.19807  Biso   1.000  H
  H109     1.0000 0.91070  0.54340  0.39440  Biso   1.000  H
  H110     1.0000 0.45660  0.36730  0.39440  Biso   1.000  H
  H111     1.0000 0.63270  0.08930  0.39440  Biso   1.000  H
  H112     1.0000 0.57737  0.87673  0.72773  Biso   1.000  H
  H113     1.0000 0.12327  0.70063  0.72773  Biso   1.000  H
  H114     1.0000 0.29937  0.42263  0.72773  Biso   1.000  H
  H115     1.0000 0.24403  0.21007  0.06107  Biso   1.000  H
  H116     1.0000 0.78993  0.03397  0.06107  Biso   1.000  H
  H117     1.0000 0.96603  0.75597  0.06107  Biso   1.000  H
  H118     1.0000 0.08930  0.45660  0.60560  Biso   1.000  H
  H119     1.0000 0.54340  0.63270  0.60560  Biso   1.000  H
  H120     1.0000 0.36730  0.91070  0.60560  Biso   1.000  H
  H121     1.0000 0.75597  0.78993  0.93893  Biso   1.000  H
  H122     1.0000 0.21007  0.96603  0.93893  Biso   1.000  H
  H123     1.0000 0.03397  0.24403  0.93893  Biso   1.000  H
  H124     1.0000 0.42263  0.12327  0.27227  Biso   1.000  H
  H125     1.0000 0.87673  0.29937  0.27227  Biso   1.000  H
  H126     1.0000 0.70063  0.57737  0.27227  Biso   1.000  H
  H127     1.0000 0.63500  0.48100  0.66900  Biso   1.000  H
  H128     1.0000 0.51900  0.15400  0.66900  Biso   1.000  H
  H129     1.0000 0.84600  0.36500  0.66900  Biso   1.000  H
  H130     1.0000 0.30167  0.81433  0.00233  Biso   1.000  H
  H131     1.0000 0.18567  0.48733  0.00233  Biso   1.000  H
  H132     1.0000 0.51267  0.69833  0.00233  Biso   1.000  H
  H133     1.0000 0.96833  0.14767  0.33567  Biso   1.000  H
  H134     1.0000 0.85233  0.82067  0.33567  Biso   1.000  H
  H135     1.0000 0.17933  0.03167  0.33567  Biso   1.000  H
  H136     1.0000 0.36500  0.51900  0.33100  Biso   1.000  H
  H137     1.0000 0.48100  0.84600  0.33100  Biso   1.000  H
  H138     1.0000 0.15400  0.63500  0.33100  Biso   1.000  H
  H139     1.0000 0.03167  0.85233  0.66433  Biso   1.000  H
  H140     1.0000 0.14767  0.17933  0.66433  Biso   1.000  H
  H141     1.0000 0.82067  0.96833  0.66433  Biso   1.000  H
  H142     1.0000 0.69833  0.18567  0.99767  Biso   1.000  H
  H143     1.0000 0.81433  0.51267  0.99767  Biso   1.000  H
  H144     1.0000 0.48733  0.30167  0.99767  Biso   1.000  H
  H145     1.0000 0.64700  0.52600  0.72700  Biso   1.000  H
  H146     1.0000 0.47400  0.12100  0.72700  Biso   1.000  H
  H147     1.0000 0.87900  0.35300  0.72700  Biso   1.000  H
  H148     1.0000 0.31367  0.85933  0.06033  Biso   1.000  H
  H149     1.0000 0.14067  0.45433  0.06033  Biso   1.000  H
  H150     1.0000 0.54567  0.68633  0.06033  Biso   1.000  H
  H151     1.0000 0.98033  0.19267  0.39367  Biso   1.000  H
  H152     1.0000 0.80733  0.78767  0.39367  Biso   1.000  H
  H153     1.0000 0.21233  0.01967  0.39367  Biso   1.000  H
  H154     1.0000 0.35300  0.47400  0.27300  Biso   1.000  H
  H155     1.0000 0.52600  0.87900  0.27300  Biso   1.000  H
  H156     1.0000 0.12100  0.64700  0.27300  Biso   1.000  H
  H157     1.0000 0.01967  0.80733  0.60633  Biso   1.000  H
  H158     1.0000 0.19267  0.21233  0.60633  Biso   1.000  H
  H159     1.0000 0.78767  0.98033  0.60633  Biso   1.000  H
  H160     1.0000 0.68633  0.14067  0.93967  Biso   1.000  H
  H161     1.0000 0.85933  0.54567  0.93967  Biso   1.000  H
  H162     1.0000 0.45433  0.31367  0.93967  Biso   1.000  H
