data_image0
_cell_length_a       24.024
_cell_length_b       24.024
_cell_length_c       24.024
_cell_angle_alpha    90
_cell_angle_beta     90
_cell_angle_gamma    90

_symmetry_space_group_name_H-M    "P 1"
_symmetry_int_tables_number       1

loop_
  _symmetry_equiv_pos_as_xyz
  'x, y, z'

loop_
  _atom_site_label
  _atom_site_occupancy
  _atom_site_fract_x
  _atom_site_fract_y
  _atom_site_fract_z
  _atom_site_thermal_displace_type
  _atom_site_B_iso_or_equiv
  _atom_site_type_symbol
  Cu1      1.0000 0.74213  0.00991  0.05160  Biso   1.000  Cu
  Cu2      1.0000 0.75787  0.99009  0.55160  Biso   1.000  Cu
  Cu3      1.0000 0.25787  0.50991  0.44840  Biso   1.000  Cu
  Cu4      1.0000 0.24213  0.49009  0.94840  Biso   1.000  Cu
  Cu5      1.0000 0.05160  0.74213  0.00991  Biso   1.000  Cu
  Cu6      1.0000 0.55160  0.75787  0.99009  Biso   1.000  Cu
  Cu7      1.0000 0.44840  0.25787  0.50991  Biso   1.000  Cu
  Cu8      1.0000 0.94840  0.24213  0.49009  Biso   1.000  Cu
  Cu9      1.0000 0.00991  0.05160  0.74213  Biso   1.000  Cu
  Cu10     1.0000 0.99009  0.55160  0.75787  Biso   1.000  Cu
  Cu11     1.0000 0.50991  0.44840  0.25787  Biso   1.000  Cu
  Cu12     1.0000 0.49009  0.94840  0.24213  Biso   1.000  Cu
  Cu13     1.0000 0.25991  0.49213  0.69840  Biso   1.000  Cu
  Cu14     1.0000 0.24009  0.50787  0.19840  Biso   1.000  Cu
  Cu15     1.0000 0.75991  0.00787  0.30160  Biso   1.000  Cu
  Cu16     1.0000 0.74009  0.99213  0.80160  Biso   1.000  Cu
  Cu17     1.0000 0.99213  0.80160  0.74009  Biso   1.000  Cu
  Cu18     1.0000 0.00787  0.30160  0.75991  Biso   1.000  Cu
  Cu19     1.0000 0.50787  0.19840  0.24009  Biso   1.000  Cu
  Cu20     1.0000 0.49213  0.69840  0.25991  Biso   1.000  Cu
  Cu21     1.0000 0.30160  0.75991  0.00787  Biso   1.000  Cu
  Cu22     1.0000 0.80160  0.74009  0.99213  Biso   1.000  Cu
  Cu23     1.0000 0.69840  0.25991  0.49213  Biso   1.000  Cu
  Cu24     1.0000 0.19840  0.24009  0.50787  Biso   1.000  Cu
  O1       1.0000 0.69180  0.08490  0.04190  Biso   1.000  O
  O2       1.0000 0.80820  0.91510  0.54190  Biso   1.000  O
  O3       1.0000 0.30820  0.58490  0.45810  Biso   1.000  O
  O4       1.0000 0.19180  0.41510  0.95810  Biso   1.000  O
  O5       1.0000 0.04190  0.69180  0.08490  Biso   1.000  O
  O6       1.0000 0.54190  0.80820  0.91510  Biso   1.000  O
  O7       1.0000 0.45810  0.30820  0.58490  Biso   1.000  O
  O8       1.0000 0.95810  0.19180  0.41510  Biso   1.000  O
  O9       1.0000 0.08490  0.04190  0.69180  Biso   1.000  O
  O10      1.0000 0.91510  0.54190  0.80820  Biso   1.000  O
  O11      1.0000 0.58490  0.45810  0.30820  Biso   1.000  O
  O12      1.0000 0.41510  0.95810  0.19180  Biso   1.000  O
  O13      1.0000 0.33490  0.44180  0.70810  Biso   1.000  O
  O14      1.0000 0.16510  0.55820  0.20810  Biso   1.000  O
  O15      1.0000 0.83490  0.05820  0.29190  Biso   1.000  O
  O16      1.0000 0.66510  0.94180  0.79190  Biso   1.000  O
  O17      1.0000 0.94180  0.79190  0.66510  Biso   1.000  O
  O18      1.0000 0.05820  0.29190  0.83490  Biso   1.000  O
  O19      1.0000 0.55820  0.20810  0.16510  Biso   1.000  O
  O20      1.0000 0.44180  0.70810  0.33490  Biso   1.000  O
  O21      1.0000 0.29190  0.83490  0.05820  Biso   1.000  O
  O22      1.0000 0.79190  0.66510  0.94180  Biso   1.000  O
  O23      1.0000 0.70810  0.33490  0.44180  Biso   1.000  O
  O24      1.0000 0.20810  0.16510  0.55820  Biso   1.000  O
  O25      1.0000 0.67020  0.14590  0.97670  Biso   1.000  O
  O26      1.0000 0.82980  0.85410  0.47670  Biso   1.000  O
  O27      1.0000 0.32980  0.64590  0.52330  Biso   1.000  O
  O28      1.0000 0.17020  0.35410  0.02330  Biso   1.000  O
  O29      1.0000 0.97670  0.67020  0.14590  Biso   1.000  O
  O30      1.0000 0.47670  0.82980  0.85410  Biso   1.000  O
  O31      1.0000 0.52330  0.32980  0.64590  Biso   1.000  O
  O32      1.0000 0.02330  0.17020  0.35410  Biso   1.000  O
  O33      1.0000 0.14590  0.97670  0.67020  Biso   1.000  O
  O34      1.0000 0.85410  0.47670  0.82980  Biso   1.000  O
  O35      1.0000 0.64590  0.52330  0.32980  Biso   1.000  O
  O36      1.0000 0.35410  0.02330  0.17020  Biso   1.000  O
  O37      1.0000 0.39590  0.42020  0.77330  Biso   1.000  O
  O38      1.0000 0.10410  0.57980  0.27330  Biso   1.000  O
  O39      1.0000 0.89590  0.07980  0.22670  Biso   1.000  O
  O40      1.0000 0.60410  0.92020  0.72670  Biso   1.000  O
  O41      1.0000 0.92020  0.72670  0.60410  Biso   1.000  O
  O42      1.0000 0.07980  0.22670  0.89590  Biso   1.000  O
  O43      1.0000 0.57980  0.27330  0.10410  Biso   1.000  O
  O44      1.0000 0.42020  0.77330  0.39590  Biso   1.000  O
  O45      1.0000 0.22670  0.89590  0.07980  Biso   1.000  O
  O46      1.0000 0.72670  0.60410  0.92020  Biso   1.000  O
  O47      1.0000 0.77330  0.39590  0.42020  Biso   1.000  O
  O48      1.0000 0.27330  0.10410  0.57980  Biso   1.000  O
  O49      1.0000 0.70390  0.06850  0.79810  Biso   1.000  O
  O50      1.0000 0.79610  0.93150  0.29810  Biso   1.000  O
  O51      1.0000 0.29610  0.56850  0.70190  Biso   1.000  O
  O52      1.0000 0.20390  0.43150  0.20190  Biso   1.000  O
  O53      1.0000 0.79810  0.70390  0.06850  Biso   1.000  O
  O54      1.0000 0.29810  0.79610  0.93150  Biso   1.000  O
  O55      1.0000 0.70190  0.29610  0.56850  Biso   1.000  O
  O56      1.0000 0.20190  0.20390  0.43150  Biso   1.000  O
  O57      1.0000 0.06850  0.79810  0.70390  Biso   1.000  O
  O58      1.0000 0.93150  0.29810  0.79610  Biso   1.000  O
  O59      1.0000 0.56850  0.70190  0.29610  Biso   1.000  O
  O60      1.0000 0.43150  0.20190  0.20390  Biso   1.000  O
  O61      1.0000 0.31850  0.45390  0.95190  Biso   1.000  O
  O62      1.0000 0.18150  0.54610  0.45190  Biso   1.000  O
  O63      1.0000 0.81850  0.04610  0.04810  Biso   1.000  O
  O64      1.0000 0.68150  0.95390  0.54810  Biso   1.000  O
  O65      1.0000 0.95390  0.54810  0.68150  Biso   1.000  O
  O66      1.0000 0.04610  0.04810  0.81850  Biso   1.000  O
  O67      1.0000 0.54610  0.45190  0.18150  Biso   1.000  O
  O68      1.0000 0.45390  0.95190  0.31850  Biso   1.000  O
  O69      1.0000 0.04810  0.81850  0.04610  Biso   1.000  O
  O70      1.0000 0.54810  0.68150  0.95390  Biso   1.000  O
  O71      1.0000 0.95190  0.31850  0.45390  Biso   1.000  O
  O72      1.0000 0.45190  0.18150  0.54610  Biso   1.000  O
  O73      1.0000 0.67220  0.13670  0.85310  Biso   1.000  O
  O74      1.0000 0.82780  0.86330  0.35310  Biso   1.000  O
  O75      1.0000 0.32780  0.63670  0.64690  Biso   1.000  O
  O76      1.0000 0.17220  0.36330  0.14690  Biso   1.000  O
  O77      1.0000 0.85310  0.67220  0.13670  Biso   1.000  O
  O78      1.0000 0.35310  0.82780  0.86330  Biso   1.000  O
  O79      1.0000 0.64690  0.32780  0.63670  Biso   1.000  O
  O80      1.0000 0.14690  0.17220  0.36330  Biso   1.000  O
  O81      1.0000 0.13670  0.85310  0.67220  Biso   1.000  O
  O82      1.0000 0.86330  0.35310  0.82780  Biso   1.000  O
  O83      1.0000 0.63670  0.64690  0.32780  Biso   1.000  O
  O84      1.0000 0.36330  0.14690  0.17220  Biso   1.000  O
  O85      1.0000 0.38670  0.42220  0.89690  Biso   1.000  O
  O86      1.0000 0.11330  0.57780  0.39690  Biso   1.000  O
  O87      1.0000 0.88670  0.07780  0.10310  Biso   1.000  O
  O88      1.0000 0.61330  0.92220  0.60310  Biso   1.000  O
  O89      1.0000 0.92220  0.60310  0.61330  Biso   1.000  O
  O90      1.0000 0.07780  0.10310  0.88670  Biso   1.000  O
  O91      1.0000 0.57780  0.39690  0.11330  Biso   1.000  O
  O92      1.0000 0.42220  0.89690  0.38670  Biso   1.000  O
  O93      1.0000 0.10310  0.88670  0.07780  Biso   1.000  O
  O94      1.0000 0.60310  0.61330  0.92220  Biso   1.000  O
  O95      1.0000 0.89690  0.38670  0.42220  Biso   1.000  O
  O96      1.0000 0.39690  0.11330  0.57780  Biso   1.000  O
  H1       1.0000 0.66610  0.14260  0.88610  Biso   1.000  H
  H2       1.0000 0.83390  0.85740  0.38610  Biso   1.000  H
  H3       1.0000 0.33390  0.64260  0.61390  Biso   1.000  H
  H4       1.0000 0.16610  0.35740  0.11390  Biso   1.000  H
  H5       1.0000 0.88610  0.66610  0.14260  Biso   1.000  H
  H6       1.0000 0.38610  0.83390  0.85740  Biso   1.000  H
  H7       1.0000 0.61390  0.33390  0.64260  Biso   1.000  H
  H8       1.0000 0.11390  0.16610  0.35740  Biso   1.000  H
  H9       1.0000 0.14260  0.88610  0.66610  Biso   1.000  H
  H10      1.0000 0.85740  0.38610  0.83390  Biso   1.000  H
  H11      1.0000 0.64260  0.61390  0.33390  Biso   1.000  H
  H12      1.0000 0.35740  0.11390  0.16610  Biso   1.000  H
  H13      1.0000 0.39260  0.41610  0.86390  Biso   1.000  H
  H14      1.0000 0.10740  0.58390  0.36390  Biso   1.000  H
  H15      1.0000 0.89260  0.08390  0.13610  Biso   1.000  H
  H16      1.0000 0.60740  0.91610  0.63610  Biso   1.000  H
  H17      1.0000 0.91610  0.63610  0.60740  Biso   1.000  H
  H18      1.0000 0.08390  0.13610  0.89260  Biso   1.000  H
  H19      1.0000 0.58390  0.36390  0.10740  Biso   1.000  H
  H20      1.0000 0.41610  0.86390  0.39260  Biso   1.000  H
  H21      1.0000 0.13610  0.89260  0.08390  Biso   1.000  H
  H22      1.0000 0.63610  0.60740  0.91610  Biso   1.000  H
  H23      1.0000 0.86390  0.39260  0.41610  Biso   1.000  H
  H24      1.0000 0.36390  0.10740  0.58390  Biso   1.000  H
  N1       1.0000 0.73620  0.01470  0.97170  Biso   1.000  N
  N2       1.0000 0.76380  0.98530  0.47170  Biso   1.000  N
  N3       1.0000 0.26380  0.51470  0.52830  Biso   1.000  N
  N4       1.0000 0.23620  0.48530  0.02830  Biso   1.000  N
  N5       1.0000 0.97170  0.73620  0.01470  Biso   1.000  N
  N6       1.0000 0.47170  0.76380  0.98530  Biso   1.000  N
  N7       1.0000 0.52830  0.26380  0.51470  Biso   1.000  N
  N8       1.0000 0.02830  0.23620  0.48530  Biso   1.000  N
  N9       1.0000 0.01470  0.97170  0.73620  Biso   1.000  N
  N10      1.0000 0.98530  0.47170  0.76380  Biso   1.000  N
  N11      1.0000 0.51470  0.52830  0.26380  Biso   1.000  N
  N12      1.0000 0.48530  0.02830  0.23620  Biso   1.000  N
  N13      1.0000 0.26470  0.48620  0.77830  Biso   1.000  N
  N14      1.0000 0.23530  0.51380  0.27830  Biso   1.000  N
  N15      1.0000 0.76470  0.01380  0.22170  Biso   1.000  N
  N16      1.0000 0.73530  0.98620  0.72170  Biso   1.000  N
  N17      1.0000 0.98620  0.72170  0.73530  Biso   1.000  N
  N18      1.0000 0.01380  0.22170  0.76470  Biso   1.000  N
  N19      1.0000 0.51380  0.27830  0.23530  Biso   1.000  N
  N20      1.0000 0.48620  0.77830  0.26470  Biso   1.000  N
  N21      1.0000 0.22170  0.76470  0.01380  Biso   1.000  N
  N22      1.0000 0.72170  0.73530  0.98620  Biso   1.000  N
  N23      1.0000 0.77830  0.26470  0.48620  Biso   1.000  N
  N24      1.0000 0.27830  0.23530  0.51380  Biso   1.000  N
  N25      1.0000 0.73490  0.00710  0.88090  Biso   1.000  N
  N26      1.0000 0.76510  0.99290  0.38090  Biso   1.000  N
  N27      1.0000 0.26510  0.50710  0.61910  Biso   1.000  N
  N28      1.0000 0.23490  0.49290  0.11910  Biso   1.000  N
  N29      1.0000 0.88090  0.73490  0.00710  Biso   1.000  N
  N30      1.0000 0.38090  0.76510  0.99290  Biso   1.000  N
  N31      1.0000 0.61910  0.26510  0.50710  Biso   1.000  N
  N32      1.0000 0.11910  0.23490  0.49290  Biso   1.000  N
  N33      1.0000 0.00710  0.88090  0.73490  Biso   1.000  N
  N34      1.0000 0.99290  0.38090  0.76510  Biso   1.000  N
  N35      1.0000 0.50710  0.61910  0.26510  Biso   1.000  N
  N36      1.0000 0.49290  0.11910  0.23490  Biso   1.000  N
  N37      1.0000 0.25710  0.48490  0.86910  Biso   1.000  N
  N38      1.0000 0.24290  0.51510  0.36910  Biso   1.000  N
  N39      1.0000 0.75710  0.01510  0.13090  Biso   1.000  N
  N40      1.0000 0.74290  0.98490  0.63090  Biso   1.000  N
  N41      1.0000 0.98490  0.63090  0.74290  Biso   1.000  N
  N42      1.0000 0.01510  0.13090  0.75710  Biso   1.000  N
  N43      1.0000 0.51510  0.36910  0.24290  Biso   1.000  N
  N44      1.0000 0.48490  0.86910  0.25710  Biso   1.000  N
  N45      1.0000 0.13090  0.75710  0.01510  Biso   1.000  N
  N46      1.0000 0.63090  0.74290  0.98490  Biso   1.000  N
  N47      1.0000 0.86910  0.25710  0.48490  Biso   1.000  N
  N48      1.0000 0.36910  0.24290  0.51510  Biso   1.000  N
  N49      1.0000 0.80520  0.81550  0.95370  Biso   1.000  N
  N50      1.0000 0.69480  0.18450  0.45370  Biso   1.000  N
  N51      1.0000 0.19480  0.31550  0.54630  Biso   1.000  N
  N52      1.0000 0.30520  0.68450  0.04630  Biso   1.000  N
  N53      1.0000 0.95370  0.80520  0.81550  Biso   1.000  N
  N54      1.0000 0.45370  0.69480  0.18450  Biso   1.000  N
  N55      1.0000 0.54630  0.19480  0.31550  Biso   1.000  N
  N56      1.0000 0.04630  0.30520  0.68450  Biso   1.000  N
  N57      1.0000 0.81550  0.95370  0.80520  Biso   1.000  N
  N58      1.0000 0.18450  0.45370  0.69480  Biso   1.000  N
  N59      1.0000 0.31550  0.54630  0.19480  Biso   1.000  N
  N60      1.0000 0.68450  0.04630  0.30520  Biso   1.000  N
  N61      1.0000 0.06550  0.55520  0.79630  Biso   1.000  N
  N62      1.0000 0.43450  0.44480  0.29630  Biso   1.000  N
  N63      1.0000 0.56550  0.94480  0.20370  Biso   1.000  N
  N64      1.0000 0.93450  0.05520  0.70370  Biso   1.000  N
  N65      1.0000 0.05520  0.70370  0.93450  Biso   1.000  N
  N66      1.0000 0.94480  0.20370  0.56550  Biso   1.000  N
  N67      1.0000 0.44480  0.29630  0.43450  Biso   1.000  N
  N68      1.0000 0.55520  0.79630  0.06550  Biso   1.000  N
  N69      1.0000 0.20370  0.56550  0.94480  Biso   1.000  N
  N70      1.0000 0.70370  0.93450  0.05520  Biso   1.000  N
  N71      1.0000 0.79630  0.06550  0.55520  Biso   1.000  N
  N72      1.0000 0.29630  0.43450  0.44480  Biso   1.000  N
  C1       1.0000 0.74860  0.98200  0.92750  Biso   1.000  C
  C2       1.0000 0.75140  0.01800  0.42750  Biso   1.000  C
  C3       1.0000 0.25140  0.48200  0.57250  Biso   1.000  C
  C4       1.0000 0.24860  0.51800  0.07250  Biso   1.000  C
  C5       1.0000 0.92750  0.74860  0.98200  Biso   1.000  C
  C6       1.0000 0.42750  0.75140  0.01800  Biso   1.000  C
  C7       1.0000 0.57250  0.25140  0.48200  Biso   1.000  C
  C8       1.0000 0.07250  0.24860  0.51800  Biso   1.000  C
  C9       1.0000 0.98200  0.92750  0.74860  Biso   1.000  C
  C10      1.0000 0.01800  0.42750  0.75140  Biso   1.000  C
  C11      1.0000 0.48200  0.57250  0.25140  Biso   1.000  C
  C12      1.0000 0.51800  0.07250  0.24860  Biso   1.000  C
  C13      1.0000 0.23200  0.49860  0.82250  Biso   1.000  C
  C14      1.0000 0.26800  0.50140  0.32250  Biso   1.000  C
  C15      1.0000 0.73200  0.00140  0.17750  Biso   1.000  C
  C16      1.0000 0.76800  0.99860  0.67750  Biso   1.000  C
  C17      1.0000 0.99860  0.67750  0.76800  Biso   1.000  C
  C18      1.0000 0.00140  0.17750  0.73200  Biso   1.000  C
  C19      1.0000 0.50140  0.32250  0.26800  Biso   1.000  C
  C20      1.0000 0.49860  0.82250  0.23200  Biso   1.000  C
  C21      1.0000 0.17750  0.73200  0.00140  Biso   1.000  C
  C22      1.0000 0.67750  0.76800  0.99860  Biso   1.000  C
  C23      1.0000 0.82250  0.23200  0.49860  Biso   1.000  C
  C24      1.0000 0.32250  0.26800  0.50140  Biso   1.000  C
  C25      1.0000 0.71250  0.05960  0.95090  Biso   1.000  C
  C26      1.0000 0.78750  0.94040  0.45090  Biso   1.000  C
  C27      1.0000 0.28750  0.55960  0.54910  Biso   1.000  C
  C28      1.0000 0.21250  0.44040  0.04910  Biso   1.000  C
  C29      1.0000 0.95090  0.71250  0.05960  Biso   1.000  C
  C30      1.0000 0.45090  0.78750  0.94040  Biso   1.000  C
  C31      1.0000 0.54910  0.28750  0.55960  Biso   1.000  C
  C32      1.0000 0.04910  0.21250  0.44040  Biso   1.000  C
  C33      1.0000 0.05960  0.95090  0.71250  Biso   1.000  C
  C34      1.0000 0.94040  0.45090  0.78750  Biso   1.000  C
  C35      1.0000 0.55960  0.54910  0.28750  Biso   1.000  C
  C36      1.0000 0.44040  0.04910  0.21250  Biso   1.000  C
  C37      1.0000 0.30960  0.46250  0.79910  Biso   1.000  C
  C38      1.0000 0.19040  0.53750  0.29910  Biso   1.000  C
  C39      1.0000 0.80960  0.03750  0.20090  Biso   1.000  C
  C40      1.0000 0.69040  0.96250  0.70090  Biso   1.000  C
  C41      1.0000 0.96250  0.70090  0.69040  Biso   1.000  C
  C42      1.0000 0.03750  0.20090  0.80960  Biso   1.000  C
  C43      1.0000 0.53750  0.29910  0.19040  Biso   1.000  C
  C44      1.0000 0.46250  0.79910  0.30960  Biso   1.000  C
  C45      1.0000 0.20090  0.80960  0.03750  Biso   1.000  C
  C46      1.0000 0.70090  0.69040  0.96250  Biso   1.000  C
  C47      1.0000 0.79910  0.30960  0.46250  Biso   1.000  C
  C48      1.0000 0.29910  0.19040  0.53750  Biso   1.000  C
  C49      1.0000 0.71170  0.05490  0.89270  Biso   1.000  C
  C50      1.0000 0.78830  0.94510  0.39270  Biso   1.000  C
  C51      1.0000 0.28830  0.55490  0.60730  Biso   1.000  C
  C52      1.0000 0.21170  0.44510  0.10730  Biso   1.000  C
  C53      1.0000 0.89270  0.71170  0.05490  Biso   1.000  C
  C54      1.0000 0.39270  0.78830  0.94510  Biso   1.000  C
  C55      1.0000 0.60730  0.28830  0.55490  Biso   1.000  C
  C56      1.0000 0.10730  0.21170  0.44510  Biso   1.000  C
  C57      1.0000 0.05490  0.89270  0.71170  Biso   1.000  C
  C58      1.0000 0.94510  0.39270  0.78830  Biso   1.000  C
  C59      1.0000 0.55490  0.60730  0.28830  Biso   1.000  C
  C60      1.0000 0.44510  0.10730  0.21170  Biso   1.000  C
  C61      1.0000 0.30490  0.46170  0.85730  Biso   1.000  C
  C62      1.0000 0.19510  0.53830  0.35730  Biso   1.000  C
  C63      1.0000 0.80490  0.03830  0.14270  Biso   1.000  C
  C64      1.0000 0.69510  0.96170  0.64270  Biso   1.000  C
  C65      1.0000 0.96170  0.64270  0.69510  Biso   1.000  C
  C66      1.0000 0.03830  0.14270  0.80490  Biso   1.000  C
  C67      1.0000 0.53830  0.35730  0.19510  Biso   1.000  C
  C68      1.0000 0.46170  0.85730  0.30490  Biso   1.000  C
  C69      1.0000 0.14270  0.80490  0.03830  Biso   1.000  C
  C70      1.0000 0.64270  0.69510  0.96170  Biso   1.000  C
  C71      1.0000 0.85730  0.30490  0.46170  Biso   1.000  C
  C72      1.0000 0.35730  0.19510  0.53830  Biso   1.000  C
  C73      1.0000 0.82760  0.85670  0.97980  Biso   1.000  C
  C74      1.0000 0.67240  0.14330  0.47980  Biso   1.000  C
  C75      1.0000 0.17240  0.35670  0.52020  Biso   1.000  C
  C76      1.0000 0.32760  0.64330  0.02020  Biso   1.000  C
  C77      1.0000 0.97980  0.82760  0.85670  Biso   1.000  C
  C78      1.0000 0.47980  0.67240  0.14330  Biso   1.000  C
  C79      1.0000 0.52020  0.17240  0.35670  Biso   1.000  C
  C80      1.0000 0.02020  0.32760  0.64330  Biso   1.000  C
  C81      1.0000 0.85670  0.97980  0.82760  Biso   1.000  C
  C82      1.0000 0.14330  0.47980  0.67240  Biso   1.000  C
  C83      1.0000 0.35670  0.52020  0.17240  Biso   1.000  C
  C84      1.0000 0.64330  0.02020  0.32760  Biso   1.000  C
  C85      1.0000 0.10670  0.57760  0.77020  Biso   1.000  C
  C86      1.0000 0.39330  0.42240  0.27020  Biso   1.000  C
  C87      1.0000 0.60670  0.92240  0.22980  Biso   1.000  C
  C88      1.0000 0.89330  0.07760  0.72980  Biso   1.000  C
  C89      1.0000 0.07760  0.72980  0.89330  Biso   1.000  C
  C90      1.0000 0.92240  0.22980  0.60670  Biso   1.000  C
  C91      1.0000 0.42240  0.27020  0.39330  Biso   1.000  C
  C92      1.0000 0.57760  0.77020  0.10670  Biso   1.000  C
  C93      1.0000 0.22980  0.60670  0.92240  Biso   1.000  C
  C94      1.0000 0.72980  0.89330  0.07760  Biso   1.000  C
  C95      1.0000 0.77020  0.10670  0.57760  Biso   1.000  C
  C96      1.0000 0.27020  0.39330  0.42240  Biso   1.000  C
  H25      1.0000 0.85560  0.84880  0.00530  Biso   1.000  H
  H26      1.0000 0.64440  0.15120  0.50530  Biso   1.000  H
  H27      1.0000 0.14440  0.34880  0.49470  Biso   1.000  H
  H28      1.0000 0.35560  0.65120  0.99470  Biso   1.000  H
  H29      1.0000 0.00530  0.85560  0.84880  Biso   1.000  H
  H30      1.0000 0.50530  0.64440  0.15120  Biso   1.000  H
  H31      1.0000 0.49470  0.14440  0.34880  Biso   1.000  H
  H32      1.0000 0.99470  0.35560  0.65120  Biso   1.000  H
  H33      1.0000 0.84880  0.00530  0.85560  Biso   1.000  H
  H34      1.0000 0.15120  0.50530  0.64440  Biso   1.000  H
  H35      1.0000 0.34880  0.49470  0.14440  Biso   1.000  H
  H36      1.0000 0.65120  0.99470  0.35560  Biso   1.000  H
  H37      1.0000 0.09880  0.60560  0.74470  Biso   1.000  H
  H38      1.0000 0.40120  0.39440  0.24470  Biso   1.000  H
  H39      1.0000 0.59880  0.89440  0.25530  Biso   1.000  H
  H40      1.0000 0.90120  0.10560  0.75530  Biso   1.000  H
  H41      1.0000 0.10560  0.75530  0.90120  Biso   1.000  H
  H42      1.0000 0.89440  0.25530  0.59880  Biso   1.000  H
  H43      1.0000 0.39440  0.24470  0.40120  Biso   1.000  H
  H44      1.0000 0.60560  0.74470  0.09880  Biso   1.000  H
  H45      1.0000 0.25530  0.59880  0.89440  Biso   1.000  H
  H46      1.0000 0.75530  0.90120  0.10560  Biso   1.000  H
  H47      1.0000 0.74470  0.09880  0.60560  Biso   1.000  H
  H48      1.0000 0.24470  0.40120  0.39440  Biso   1.000  H
  C97      1.0000 0.81230  0.91340  0.97200  Biso   1.000  C
  C98      1.0000 0.68770  0.08660  0.47200  Biso   1.000  C
  C99      1.0000 0.18770  0.41340  0.52800  Biso   1.000  C
  C100     1.0000 0.31230  0.58660  0.02800  Biso   1.000  C
  C101     1.0000 0.97200  0.81230  0.91340  Biso   1.000  C
  C102     1.0000 0.47200  0.68770  0.08660  Biso   1.000  C
  C103     1.0000 0.52800  0.18770  0.41340  Biso   1.000  C
  C104     1.0000 0.02800  0.31230  0.58660  Biso   1.000  C
  C105     1.0000 0.91340  0.97200  0.81230  Biso   1.000  C
  C106     1.0000 0.08660  0.47200  0.68770  Biso   1.000  C
  C107     1.0000 0.41340  0.52800  0.18770  Biso   1.000  C
  C108     1.0000 0.58660  0.02800  0.31230  Biso   1.000  C
  C109     1.0000 0.16340  0.56230  0.77800  Biso   1.000  C
  C110     1.0000 0.33660  0.43770  0.27800  Biso   1.000  C
  C111     1.0000 0.66340  0.93770  0.22200  Biso   1.000  C
  C112     1.0000 0.83660  0.06230  0.72200  Biso   1.000  C
  C113     1.0000 0.06230  0.72200  0.83660  Biso   1.000  C
  C114     1.0000 0.93770  0.22200  0.66340  Biso   1.000  C
  C115     1.0000 0.43770  0.27800  0.33660  Biso   1.000  C
  C116     1.0000 0.56230  0.77800  0.16340  Biso   1.000  C
  C117     1.0000 0.22200  0.66340  0.93770  Biso   1.000  C
  C118     1.0000 0.72200  0.83660  0.06230  Biso   1.000  C
  C119     1.0000 0.77800  0.16340  0.56230  Biso   1.000  C
  C120     1.0000 0.27800  0.33660  0.43770  Biso   1.000  C
  H49      1.0000 0.82840  0.94160  0.99310  Biso   1.000  H
  H50      1.0000 0.67160  0.05840  0.49310  Biso   1.000  H
  H51      1.0000 0.17160  0.44160  0.50690  Biso   1.000  H
  H52      1.0000 0.32840  0.55840  0.00690  Biso   1.000  H
  H53      1.0000 0.99310  0.82840  0.94160  Biso   1.000  H
  H54      1.0000 0.49310  0.67160  0.05840  Biso   1.000  H
  H55      1.0000 0.50690  0.17160  0.44160  Biso   1.000  H
  H56      1.0000 0.00690  0.32840  0.55840  Biso   1.000  H
  H57      1.0000 0.94160  0.99310  0.82840  Biso   1.000  H
  H58      1.0000 0.05840  0.49310  0.67160  Biso   1.000  H
  H59      1.0000 0.44160  0.50690  0.17160  Biso   1.000  H
  H60      1.0000 0.55840  0.00690  0.32840  Biso   1.000  H
  H61      1.0000 0.19160  0.57840  0.75690  Biso   1.000  H
  H62      1.0000 0.30840  0.42160  0.25690  Biso   1.000  H
  H63      1.0000 0.69160  0.92160  0.24310  Biso   1.000  H
  H64      1.0000 0.80840  0.07840  0.74310  Biso   1.000  H
  H65      1.0000 0.07840  0.74310  0.80840  Biso   1.000  H
  H66      1.0000 0.92160  0.24310  0.69160  Biso   1.000  H
  H67      1.0000 0.42160  0.25690  0.30840  Biso   1.000  H
  H68      1.0000 0.57840  0.75690  0.19160  Biso   1.000  H
  H69      1.0000 0.24310  0.69160  0.92160  Biso   1.000  H
  H70      1.0000 0.74310  0.80840  0.07840  Biso   1.000  H
  H71      1.0000 0.75690  0.19160  0.57840  Biso   1.000  H
  H72      1.0000 0.25690  0.30840  0.42160  Biso   1.000  H
  C121     1.0000 0.77290  0.92490  0.93220  Biso   1.000  C
  C122     1.0000 0.72710  0.07510  0.43220  Biso   1.000  C
  C123     1.0000 0.22710  0.42490  0.56780  Biso   1.000  C
  C124     1.0000 0.27290  0.57510  0.06780  Biso   1.000  C
  C125     1.0000 0.93220  0.77290  0.92490  Biso   1.000  C
  C126     1.0000 0.43220  0.72710  0.07510  Biso   1.000  C
  C127     1.0000 0.56780  0.22710  0.42490  Biso   1.000  C
  C128     1.0000 0.06780  0.27290  0.57510  Biso   1.000  C
  C129     1.0000 0.92490  0.93220  0.77290  Biso   1.000  C
  C130     1.0000 0.07510  0.43220  0.72710  Biso   1.000  C
  C131     1.0000 0.42490  0.56780  0.22710  Biso   1.000  C
  C132     1.0000 0.57510  0.06780  0.27290  Biso   1.000  C
  C133     1.0000 0.17490  0.52290  0.81780  Biso   1.000  C
  C134     1.0000 0.32510  0.47710  0.31780  Biso   1.000  C
  C135     1.0000 0.67490  0.97710  0.18220  Biso   1.000  C
  C136     1.0000 0.82510  0.02290  0.68220  Biso   1.000  C
  C137     1.0000 0.02290  0.68220  0.82510  Biso   1.000  C
  C138     1.0000 0.97710  0.18220  0.67490  Biso   1.000  C
  C139     1.0000 0.47710  0.31780  0.32510  Biso   1.000  C
  C140     1.0000 0.52290  0.81780  0.17490  Biso   1.000  C
  C141     1.0000 0.18220  0.67490  0.97710  Biso   1.000  C
  C142     1.0000 0.68220  0.82510  0.02290  Biso   1.000  C
  C143     1.0000 0.81780  0.17490  0.52290  Biso   1.000  C
  C144     1.0000 0.31780  0.32510  0.47710  Biso   1.000  C
  C145     1.0000 0.75390  0.88400  0.89930  Biso   1.000  C
  C146     1.0000 0.74610  0.11600  0.39930  Biso   1.000  C
  C147     1.0000 0.24610  0.38400  0.60070  Biso   1.000  C
  C148     1.0000 0.25390  0.61600  0.10070  Biso   1.000  C
  C149     1.0000 0.89930  0.75390  0.88400  Biso   1.000  C
  C150     1.0000 0.39930  0.74610  0.11600  Biso   1.000  C
  C151     1.0000 0.60070  0.24610  0.38400  Biso   1.000  C
  C152     1.0000 0.10070  0.25390  0.61600  Biso   1.000  C
  C153     1.0000 0.88400  0.89930  0.75390  Biso   1.000  C
  C154     1.0000 0.11600  0.39930  0.74610  Biso   1.000  C
  C155     1.0000 0.38400  0.60070  0.24610  Biso   1.000  C
  C156     1.0000 0.61600  0.10070  0.25390  Biso   1.000  C
  C157     1.0000 0.13400  0.50390  0.85070  Biso   1.000  C
  C158     1.0000 0.36600  0.49610  0.35070  Biso   1.000  C
  C159     1.0000 0.63400  0.99610  0.14930  Biso   1.000  C
  C160     1.0000 0.86600  0.00390  0.64930  Biso   1.000  C
  C161     1.0000 0.00390  0.64930  0.86600  Biso   1.000  C
  C162     1.0000 0.99610  0.14930  0.63400  Biso   1.000  C
  C163     1.0000 0.49610  0.35070  0.36600  Biso   1.000  C
  C164     1.0000 0.50390  0.85070  0.13400  Biso   1.000  C
  C165     1.0000 0.14930  0.63400  0.99610  Biso   1.000  C
  C166     1.0000 0.64930  0.86600  0.00390  Biso   1.000  C
  C167     1.0000 0.85070  0.13400  0.50390  Biso   1.000  C
  C168     1.0000 0.35070  0.36600  0.49610  Biso   1.000  C
  H73      1.0000 0.73080  0.89200  0.86940  Biso   1.000  H
  H74      1.0000 0.76920  0.10800  0.36940  Biso   1.000  H
  H75      1.0000 0.26920  0.39200  0.63060  Biso   1.000  H
  H76      1.0000 0.23080  0.60800  0.13060  Biso   1.000  H
  H77      1.0000 0.86940  0.73080  0.89200  Biso   1.000  H
  H78      1.0000 0.36940  0.76920  0.10800  Biso   1.000  H
  H79      1.0000 0.63060  0.26920  0.39200  Biso   1.000  H
  H80      1.0000 0.13060  0.23080  0.60800  Biso   1.000  H
  H81      1.0000 0.89200  0.86940  0.73080  Biso   1.000  H
  H82      1.0000 0.10800  0.36940  0.76920  Biso   1.000  H
  H83      1.0000 0.39200  0.63060  0.26920  Biso   1.000  H
  H84      1.0000 0.60800  0.13060  0.23080  Biso   1.000  H
  H85      1.0000 0.14200  0.48080  0.88060  Biso   1.000  H
  H86      1.0000 0.35800  0.51920  0.38060  Biso   1.000  H
  H87      1.0000 0.64200  0.01920  0.11940  Biso   1.000  H
  H88      1.0000 0.85800  0.98080  0.61940  Biso   1.000  H
  H89      1.0000 0.98080  0.61940  0.85800  Biso   1.000  H
  H90      1.0000 0.01920  0.11940  0.64200  Biso   1.000  H
  H91      1.0000 0.51920  0.38060  0.35800  Biso   1.000  H
  H92      1.0000 0.48080  0.88060  0.14200  Biso   1.000  H
  H93      1.0000 0.11940  0.64200  0.01920  Biso   1.000  H
  H94      1.0000 0.61940  0.85800  0.98080  Biso   1.000  H
  H95      1.0000 0.88060  0.14200  0.48080  Biso   1.000  H
  H96      1.0000 0.38060  0.35800  0.51920  Biso   1.000  H
  C169     1.0000 0.76950  0.82940  0.91090  Biso   1.000  C
  C170     1.0000 0.73050  0.17060  0.41090  Biso   1.000  C
  C171     1.0000 0.23050  0.32940  0.58910  Biso   1.000  C
  C172     1.0000 0.26950  0.67060  0.08910  Biso   1.000  C
  C173     1.0000 0.91090  0.76950  0.82940  Biso   1.000  C
  C174     1.0000 0.41090  0.73050  0.17060  Biso   1.000  C
  C175     1.0000 0.58910  0.23050  0.32940  Biso   1.000  C
  C176     1.0000 0.08910  0.26950  0.67060  Biso   1.000  C
  C177     1.0000 0.82940  0.91090  0.76950  Biso   1.000  C
  C178     1.0000 0.17060  0.41090  0.73050  Biso   1.000  C
  C179     1.0000 0.32940  0.58910  0.23050  Biso   1.000  C
  C180     1.0000 0.67060  0.08910  0.26950  Biso   1.000  C
  C181     1.0000 0.07940  0.51950  0.83910  Biso   1.000  C
  C182     1.0000 0.42060  0.48050  0.33910  Biso   1.000  C
  C183     1.0000 0.57940  0.98050  0.16090  Biso   1.000  C
  C184     1.0000 0.92060  0.01950  0.66090  Biso   1.000  C
  C185     1.0000 0.01950  0.66090  0.92060  Biso   1.000  C
  C186     1.0000 0.98050  0.16090  0.57940  Biso   1.000  C
  C187     1.0000 0.48050  0.33910  0.42060  Biso   1.000  C
  C188     1.0000 0.51950  0.83910  0.07940  Biso   1.000  C
  C189     1.0000 0.16090  0.57940  0.98050  Biso   1.000  C
  C190     1.0000 0.66090  0.92060  0.01950  Biso   1.000  C
  C191     1.0000 0.83910  0.07940  0.51950  Biso   1.000  C
  C192     1.0000 0.33910  0.42060  0.48050  Biso   1.000  C
  H97      1.0000 0.75530  0.80110  0.88870  Biso   1.000  H
  H98      1.0000 0.74470  0.19890  0.38870  Biso   1.000  H
  H99      1.0000 0.24470  0.30110  0.61130  Biso   1.000  H
  H100     1.0000 0.25530  0.69890  0.11130  Biso   1.000  H
  H101     1.0000 0.88870  0.75530  0.80110  Biso   1.000  H
  H102     1.0000 0.38870  0.74470  0.19890  Biso   1.000  H
  H103     1.0000 0.61130  0.24470  0.30110  Biso   1.000  H
  H104     1.0000 0.11130  0.25530  0.69890  Biso   1.000  H
  H105     1.0000 0.80110  0.88870  0.75530  Biso   1.000  H
  H106     1.0000 0.19890  0.38870  0.74470  Biso   1.000  H
  H107     1.0000 0.30110  0.61130  0.24470  Biso   1.000  H
  H108     1.0000 0.69890  0.11130  0.25530  Biso   1.000  H
  H109     1.0000 0.05110  0.50530  0.86130  Biso   1.000  H
  H110     1.0000 0.44890  0.49470  0.36130  Biso   1.000  H
  H111     1.0000 0.55110  0.99470  0.13870  Biso   1.000  H
  H112     1.0000 0.94890  0.00530  0.63870  Biso   1.000  H
  H113     1.0000 0.00530  0.63870  0.94890  Biso   1.000  H
  H114     1.0000 0.99470  0.13870  0.55110  Biso   1.000  H
  H115     1.0000 0.49470  0.36130  0.44890  Biso   1.000  H
  H116     1.0000 0.50530  0.86130  0.05110  Biso   1.000  H
  H117     1.0000 0.13870  0.55110  0.99470  Biso   1.000  H
  H118     1.0000 0.63870  0.94890  0.00530  Biso   1.000  H
  H119     1.0000 0.86130  0.05110  0.50530  Biso   1.000  H
  H120     1.0000 0.36130  0.44890  0.49470  Biso   1.000  H
  C193     1.0000 0.68980  0.10140  0.99330  Biso   1.000  C
  C194     1.0000 0.81020  0.89860  0.49330  Biso   1.000  C
  C195     1.0000 0.31020  0.60140  0.50670  Biso   1.000  C
  C196     1.0000 0.18980  0.39860  0.00670  Biso   1.000  C
  C197     1.0000 0.99330  0.68980  0.10140  Biso   1.000  C
  C198     1.0000 0.49330  0.81020  0.89860  Biso   1.000  C
  C199     1.0000 0.50670  0.31020  0.60140  Biso   1.000  C
  C200     1.0000 0.00670  0.18980  0.39860  Biso   1.000  C
  C201     1.0000 0.10140  0.99330  0.68980  Biso   1.000  C
  C202     1.0000 0.89860  0.49330  0.81020  Biso   1.000  C
  C203     1.0000 0.60140  0.50670  0.31020  Biso   1.000  C
  C204     1.0000 0.39860  0.00670  0.18980  Biso   1.000  C
  C205     1.0000 0.35140  0.43980  0.75670  Biso   1.000  C
  C206     1.0000 0.14860  0.56020  0.25670  Biso   1.000  C
  C207     1.0000 0.85140  0.06020  0.24330  Biso   1.000  C
  C208     1.0000 0.64860  0.93980  0.74330  Biso   1.000  C
  C209     1.0000 0.93980  0.74330  0.64860  Biso   1.000  C
  C210     1.0000 0.06020  0.24330  0.85140  Biso   1.000  C
  C211     1.0000 0.56020  0.25670  0.14860  Biso   1.000  C
  C212     1.0000 0.43980  0.75670  0.35140  Biso   1.000  C
  C213     1.0000 0.24330  0.85140  0.06020  Biso   1.000  C
  C214     1.0000 0.74330  0.64860  0.93980  Biso   1.000  C
  C215     1.0000 0.75670  0.35140  0.43980  Biso   1.000  C
  C216     1.0000 0.25670  0.14860  0.56020  Biso   1.000  C
  C217     1.0000 0.69230  0.08900  0.84730  Biso   1.000  C
  C218     1.0000 0.80770  0.91100  0.34730  Biso   1.000  C
  C219     1.0000 0.30770  0.58900  0.65270  Biso   1.000  C
  C220     1.0000 0.19230  0.41100  0.15270  Biso   1.000  C
  C221     1.0000 0.84730  0.69230  0.08900  Biso   1.000  C
  C222     1.0000 0.34730  0.80770  0.91100  Biso   1.000  C
  C223     1.0000 0.65270  0.30770  0.58900  Biso   1.000  C
  C224     1.0000 0.15270  0.19230  0.41100  Biso   1.000  C
  C225     1.0000 0.08900  0.84730  0.69230  Biso   1.000  C
  C226     1.0000 0.91100  0.34730  0.80770  Biso   1.000  C
  C227     1.0000 0.58900  0.65270  0.30770  Biso   1.000  C
  C228     1.0000 0.41100  0.15270  0.19230  Biso   1.000  C
  C229     1.0000 0.33900  0.44230  0.90270  Biso   1.000  C
  C230     1.0000 0.16100  0.55770  0.40270  Biso   1.000  C
  C231     1.0000 0.83900  0.05770  0.09730  Biso   1.000  C
  C232     1.0000 0.66100  0.94230  0.59730  Biso   1.000  C
  C233     1.0000 0.94230  0.59730  0.66100  Biso   1.000  C
  C234     1.0000 0.05770  0.09730  0.83900  Biso   1.000  C
  C235     1.0000 0.55770  0.40270  0.16100  Biso   1.000  C
  C236     1.0000 0.44230  0.90270  0.33900  Biso   1.000  C
  C237     1.0000 0.09730  0.83900  0.05770  Biso   1.000  C
  C238     1.0000 0.59730  0.66100  0.94230  Biso   1.000  C
  C239     1.0000 0.90270  0.33900  0.44230  Biso   1.000  C
  C240     1.0000 0.40270  0.16100  0.55770  Biso   1.000  C
