data_image0
_cell_length_a       10.7521
_cell_length_b       17.7597
_cell_length_c       22.4268
_cell_angle_alpha    90
_cell_angle_beta     93.462
_cell_angle_gamma    90

_symmetry_space_group_name_H-M    "P 1"
_symmetry_int_tables_number       1

loop_
  _symmetry_equiv_pos_as_xyz
  'x, y, z'

loop_
  _atom_site_label
  _atom_site_occupancy
  _atom_site_fract_x
  _atom_site_fract_y
  _atom_site_fract_z
  _atom_site_thermal_displace_type
  _atom_site_B_iso_or_equiv
  _atom_site_type_symbol
  Cu1      1.0000 0.60660  0.50679  0.47534  Biso   1.000  Cu
  Cu2      1.0000 0.39340  0.50679  0.02466  Biso   1.000  Cu
  Cu3      1.0000 0.10660  0.00679  0.47534  Biso   1.000  Cu
  Cu4      1.0000 0.89340  0.00679  0.02466  Biso   1.000  Cu
  Cu5      1.0000 0.39340  0.49321  0.52466  Biso   1.000  Cu
  Cu6      1.0000 0.60660  0.49321  0.97534  Biso   1.000  Cu
  Cu7      1.0000 0.89340  0.99321  0.52466  Biso   1.000  Cu
  Cu8      1.0000 0.10660  0.99321  0.97534  Biso   1.000  Cu
  O1       1.0000 0.52117  0.58895  0.43269  Biso   1.000  O
  O2       1.0000 0.47883  0.58895  0.06731  Biso   1.000  O
  O3       1.0000 0.02117  0.08895  0.43269  Biso   1.000  O
  O4       1.0000 0.97883  0.08895  0.06731  Biso   1.000  O
  O5       1.0000 0.47883  0.41105  0.56731  Biso   1.000  O
  O6       1.0000 0.52117  0.41105  0.93269  Biso   1.000  O
  O7       1.0000 0.97883  0.91105  0.56731  Biso   1.000  O
  O8       1.0000 0.02117  0.91105  0.93269  Biso   1.000  O
  O9       1.0000 0.33758  0.57798  0.47395  Biso   1.000  O
  O10      1.0000 0.66242  0.57798  0.02605  Biso   1.000  O
  O11      1.0000 0.83758  0.07798  0.47395  Biso   1.000  O
  O12      1.0000 0.16242  0.07798  0.02605  Biso   1.000  O
  O13      1.0000 0.66242  0.42202  0.52605  Biso   1.000  O
  O14      1.0000 0.33758  0.42202  0.97395  Biso   1.000  O
  O15      1.0000 0.16242  0.92202  0.52605  Biso   1.000  O
  O16      1.0000 0.83758  0.92202  0.97395  Biso   1.000  O
  O17      1.0000 0.96942  0.93765  0.08551  Biso   1.000  O
  O18      1.0000 0.03058  0.93765  0.41449  Biso   1.000  O
  O19      1.0000 0.46942  0.43765  0.08551  Biso   1.000  O
  O20      1.0000 0.53058  0.43765  0.41449  Biso   1.000  O
  O21      1.0000 0.03058  0.06235  0.91449  Biso   1.000  O
  O22      1.0000 0.96942  0.06235  0.58551  Biso   1.000  O
  O23      1.0000 0.53058  0.56235  0.91449  Biso   1.000  O
  O24      1.0000 0.46942  0.56235  0.58551  Biso   1.000  O
  O25      1.0000 0.15299  0.92650  0.04326  Biso   1.000  O
  O26      1.0000 0.84701  0.92650  0.45674  Biso   1.000  O
  O27      1.0000 0.65299  0.42650  0.04326  Biso   1.000  O
  O28      1.0000 0.34701  0.42650  0.45674  Biso   1.000  O
  O29      1.0000 0.84701  0.07350  0.95674  Biso   1.000  O
  O30      1.0000 0.15299  0.07350  0.54326  Biso   1.000  O
  O31      1.0000 0.34701  0.57350  0.95674  Biso   1.000  O
  O32      1.0000 0.65299  0.57350  0.54326  Biso   1.000  O
  O33      1.0000 0.19390  0.69955  0.44804  Biso   1.000  O
  O34      1.0000 0.80610  0.69955  0.05196  Biso   1.000  O
  O35      1.0000 0.69390  0.19955  0.44804  Biso   1.000  O
  O36      1.0000 0.30610  0.19955  0.05196  Biso   1.000  O
  O37      1.0000 0.80610  0.30045  0.55196  Biso   1.000  O
  O38      1.0000 0.19390  0.30045  0.94804  Biso   1.000  O
  O39      1.0000 0.30610  0.80045  0.55196  Biso   1.000  O
  O40      1.0000 0.69390  0.80045  0.94804  Biso   1.000  O
  O41      1.0000 0.20300  0.77426  0.07640  Biso   1.000  O
  O42      1.0000 0.79700  0.77426  0.42360  Biso   1.000  O
  O43      1.0000 0.70300  0.27426  0.07640  Biso   1.000  O
  O44      1.0000 0.29700  0.27426  0.42360  Biso   1.000  O
  O45      1.0000 0.79700  0.22574  0.92360  Biso   1.000  O
  O46      1.0000 0.20300  0.22574  0.57640  Biso   1.000  O
  O47      1.0000 0.29700  0.72574  0.92360  Biso   1.000  O
  O48      1.0000 0.70300  0.72574  0.57640  Biso   1.000  O
  O49      1.0000 0.78528  0.51310  0.43566  Biso   1.000  O
  O50      1.0000 0.21472  0.51310  0.06434  Biso   1.000  O
  O51      1.0000 0.28528  0.01310  0.43566  Biso   1.000  O
  O52      1.0000 0.71472  0.01310  0.06434  Biso   1.000  O
  O53      1.0000 0.21472  0.48690  0.56434  Biso   1.000  O
  O54      1.0000 0.78528  0.48690  0.93566  Biso   1.000  O
  O55      1.0000 0.71472  0.98690  0.56434  Biso   1.000  O
  O56      1.0000 0.28528  0.98690  0.93566  Biso   1.000  O
  C1       1.0000 0.35440  0.65795  0.38970  Biso   1.000  C
  C2       1.0000 0.64560  0.65795  0.11030  Biso   1.000  C
  C3       1.0000 0.85440  0.15795  0.38970  Biso   1.000  C
  C4       1.0000 0.14560  0.15795  0.11030  Biso   1.000  C
  C5       1.0000 0.64560  0.34205  0.61030  Biso   1.000  C
  C6       1.0000 0.35440  0.34205  0.88970  Biso   1.000  C
  C7       1.0000 0.14560  0.84205  0.61030  Biso   1.000  C
  C8       1.0000 0.85440  0.84205  0.88970  Biso   1.000  C
  C9       1.0000 0.41070  0.65940  0.33628  Biso   1.000  C
  C10      1.0000 0.58930  0.65940  0.16372  Biso   1.000  C
  C11      1.0000 0.91070  0.15940  0.33628  Biso   1.000  C
  C12      1.0000 0.08930  0.15940  0.16372  Biso   1.000  C
  C13      1.0000 0.58930  0.34060  0.66372  Biso   1.000  C
  C14      1.0000 0.41070  0.34060  0.83628  Biso   1.000  C
  C15      1.0000 0.08930  0.84060  0.66372  Biso   1.000  C
  C16      1.0000 0.91070  0.84060  0.83628  Biso   1.000  C
  H1       1.0000 0.48210  0.63080  0.33230  Biso   1.000  H
  H2       1.0000 0.51790  0.63080  0.16770  Biso   1.000  H
  H3       1.0000 0.98210  0.13080  0.33230  Biso   1.000  H
  H4       1.0000 0.01790  0.13080  0.16770  Biso   1.000  H
  H5       1.0000 0.51790  0.36920  0.66770  Biso   1.000  H
  H6       1.0000 0.48210  0.36920  0.83230  Biso   1.000  H
  H7       1.0000 0.01790  0.86920  0.66770  Biso   1.000  H
  H8       1.0000 0.98210  0.86920  0.83230  Biso   1.000  H
  C17      1.0000 0.36530  0.70150  0.28884  Biso   1.000  C
  C18      1.0000 0.63470  0.70150  0.21116  Biso   1.000  C
  C19      1.0000 0.86530  0.20150  0.28884  Biso   1.000  C
  C20      1.0000 0.13470  0.20150  0.21116  Biso   1.000  C
  C21      1.0000 0.63470  0.29850  0.71116  Biso   1.000  C
  C22      1.0000 0.36530  0.29850  0.78884  Biso   1.000  C
  C23      1.0000 0.13470  0.79850  0.71116  Biso   1.000  C
  C24      1.0000 0.86530  0.79850  0.78884  Biso   1.000  C
  H9       1.0000 0.40400  0.69910  0.25290  Biso   1.000  H
  H10      1.0000 0.59600  0.69910  0.24710  Biso   1.000  H
  H11      1.0000 0.90400  0.19910  0.25290  Biso   1.000  H
  H12      1.0000 0.09600  0.19910  0.24710  Biso   1.000  H
  H13      1.0000 0.59600  0.30090  0.74710  Biso   1.000  H
  H14      1.0000 0.40400  0.30090  0.75290  Biso   1.000  H
  H15      1.0000 0.09600  0.80090  0.74710  Biso   1.000  H
  H16      1.0000 0.90400  0.80090  0.75290  Biso   1.000  H
  C25      1.0000 0.26200  0.74780  0.29356  Biso   1.000  C
  C26      1.0000 0.73800  0.74780  0.20644  Biso   1.000  C
  C27      1.0000 0.76200  0.24780  0.29356  Biso   1.000  C
  C28      1.0000 0.23800  0.24780  0.20644  Biso   1.000  C
  C29      1.0000 0.73800  0.25220  0.70644  Biso   1.000  C
  C30      1.0000 0.26200  0.25220  0.79356  Biso   1.000  C
  C31      1.0000 0.23800  0.75220  0.70644  Biso   1.000  C
  C32      1.0000 0.76200  0.75220  0.79356  Biso   1.000  C
  C33      1.0000 0.20420  0.74790  0.34733  Biso   1.000  C
  C34      1.0000 0.79580  0.74790  0.15267  Biso   1.000  C
  C35      1.0000 0.70420  0.24790  0.34733  Biso   1.000  C
  C36      1.0000 0.29580  0.24790  0.15267  Biso   1.000  C
  C37      1.0000 0.79580  0.25210  0.65267  Biso   1.000  C
  C38      1.0000 0.20420  0.25210  0.84733  Biso   1.000  C
  C39      1.0000 0.29580  0.75210  0.65267  Biso   1.000  C
  C40      1.0000 0.70420  0.75210  0.84733  Biso   1.000  C
  H17      1.0000 0.13490  0.77840  0.35150  Biso   1.000  H
  H18      1.0000 0.86510  0.77840  0.14850  Biso   1.000  H
  H19      1.0000 0.63490  0.27840  0.35150  Biso   1.000  H
  H20      1.0000 0.36510  0.27840  0.14850  Biso   1.000  H
  H21      1.0000 0.86510  0.22160  0.64850  Biso   1.000  H
  H22      1.0000 0.13490  0.22160  0.85150  Biso   1.000  H
  H23      1.0000 0.36510  0.72160  0.64850  Biso   1.000  H
  H24      1.0000 0.63490  0.72160  0.85150  Biso   1.000  H
  C41      1.0000 0.24810  0.70302  0.39525  Biso   1.000  C
  C42      1.0000 0.75190  0.70302  0.10475  Biso   1.000  C
  C43      1.0000 0.74810  0.20302  0.39525  Biso   1.000  C
  C44      1.0000 0.25190  0.20302  0.10475  Biso   1.000  C
  C45      1.0000 0.75190  0.29698  0.60475  Biso   1.000  C
  C46      1.0000 0.24810  0.29698  0.89525  Biso   1.000  C
  C47      1.0000 0.25190  0.79698  0.60475  Biso   1.000  C
  C48      1.0000 0.74810  0.79698  0.89525  Biso   1.000  C
  C49      1.0000 0.40770  0.60486  0.43645  Biso   1.000  C
  C50      1.0000 0.59230  0.60486  0.06355  Biso   1.000  C
  C51      1.0000 0.90770  0.10486  0.43645  Biso   1.000  C
  C52      1.0000 0.09230  0.10486  0.06355  Biso   1.000  C
  C53      1.0000 0.59230  0.39514  0.56355  Biso   1.000  C
  C54      1.0000 0.40770  0.39514  0.93645  Biso   1.000  C
  C55      1.0000 0.09230  0.89514  0.56355  Biso   1.000  C
  C56      1.0000 0.90770  0.89514  0.93645  Biso   1.000  C
  C57      1.0000 0.08490  0.74360  0.45445  Biso   1.000  C
  C58      1.0000 0.91510  0.74360  0.04555  Biso   1.000  C
  C59      1.0000 0.58490  0.24360  0.45445  Biso   1.000  C
  C60      1.0000 0.41510  0.24360  0.04555  Biso   1.000  C
  C61      1.0000 0.91510  0.25640  0.54555  Biso   1.000  C
  C62      1.0000 0.08490  0.25640  0.95445  Biso   1.000  C
  C63      1.0000 0.41510  0.75640  0.54555  Biso   1.000  C
  C64      1.0000 0.58490  0.75640  0.95445  Biso   1.000  C
  H25      1.0000 0.05520  0.73570  0.49350  Biso   1.000  H
  H26      1.0000 0.94480  0.73570  0.00650  Biso   1.000  H
  H27      1.0000 0.55520  0.23570  0.49350  Biso   1.000  H
  H28      1.0000 0.44480  0.23570  0.00650  Biso   1.000  H
  H29      1.0000 0.94480  0.26430  0.50650  Biso   1.000  H
  H30      1.0000 0.05520  0.26430  0.99350  Biso   1.000  H
  H31      1.0000 0.44480  0.76430  0.50650  Biso   1.000  H
  H32      1.0000 0.55520  0.76430  0.99350  Biso   1.000  H
  H33      1.0000 0.10450  0.79590  0.44960  Biso   1.000  H
  H34      1.0000 0.89550  0.79590  0.05040  Biso   1.000  H
  H35      1.0000 0.60450  0.29590  0.44960  Biso   1.000  H
  H36      1.0000 0.39550  0.29590  0.05040  Biso   1.000  H
  H37      1.0000 0.89550  0.20410  0.55040  Biso   1.000  H
  H38      1.0000 0.10450  0.20410  0.94960  Biso   1.000  H
  H39      1.0000 0.39550  0.70410  0.55040  Biso   1.000  H
  H40      1.0000 0.60450  0.70410  0.94960  Biso   1.000  H
  H41      1.0000 0.02170  0.72900  0.42470  Biso   1.000  H
  H42      1.0000 0.97830  0.72900  0.07530  Biso   1.000  H
  H43      1.0000 0.52170  0.22900  0.42470  Biso   1.000  H
  H44      1.0000 0.47830  0.22900  0.07530  Biso   1.000  H
  H45      1.0000 0.97830  0.27100  0.57530  Biso   1.000  H
  H46      1.0000 0.02170  0.27100  0.92470  Biso   1.000  H
  H47      1.0000 0.47830  0.77100  0.57530  Biso   1.000  H
  H48      1.0000 0.52170  0.77100  0.92470  Biso   1.000  H
  C65      1.0000 0.22890  0.76180  0.18378  Biso   1.000  C
  C66      1.0000 0.77110  0.76180  0.31622  Biso   1.000  C
  C67      1.0000 0.72890  0.26180  0.18378  Biso   1.000  C
  C68      1.0000 0.27110  0.26180  0.31622  Biso   1.000  C
  C69      1.0000 0.77110  0.23820  0.81622  Biso   1.000  C
  C70      1.0000 0.22890  0.23820  0.68378  Biso   1.000  C
  C71      1.0000 0.27110  0.73820  0.81622  Biso   1.000  C
  C72      1.0000 0.72890  0.73820  0.68378  Biso   1.000  C
  H49      1.0000 0.26550  0.71470  0.18020  Biso   1.000  H
  H50      1.0000 0.73450  0.71470  0.31980  Biso   1.000  H
  H51      1.0000 0.76550  0.21470  0.18020  Biso   1.000  H
  H52      1.0000 0.23450  0.21470  0.31980  Biso   1.000  H
  H53      1.0000 0.73450  0.28530  0.81980  Biso   1.000  H
  H54      1.0000 0.26550  0.28530  0.68020  Biso   1.000  H
  H55      1.0000 0.23450  0.78530  0.81980  Biso   1.000  H
  H56      1.0000 0.76550  0.78530  0.68020  Biso   1.000  H
  C73      1.0000 0.12940  0.87023  0.13747  Biso   1.000  C
  C74      1.0000 0.87060  0.87023  0.36253  Biso   1.000  C
  C75      1.0000 0.62940  0.37023  0.13747  Biso   1.000  C
  C76      1.0000 0.37060  0.37023  0.36253  Biso   1.000  C
  C77      1.0000 0.87060  0.12977  0.86253  Biso   1.000  C
  C78      1.0000 0.12940  0.12977  0.63747  Biso   1.000  C
  C79      1.0000 0.37060  0.62977  0.86253  Biso   1.000  C
  C80      1.0000 0.62940  0.62977  0.63747  Biso   1.000  C
  C81      1.0000 0.11470  0.89900  0.19415  Biso   1.000  C
  C82      1.0000 0.88530  0.89900  0.30585  Biso   1.000  C
  C83      1.0000 0.61470  0.39900  0.19415  Biso   1.000  C
  C84      1.0000 0.38530  0.39900  0.30585  Biso   1.000  C
  C85      1.0000 0.88530  0.10100  0.80585  Biso   1.000  C
  C86      1.0000 0.11470  0.10100  0.69415  Biso   1.000  C
  C87      1.0000 0.38530  0.60100  0.80585  Biso   1.000  C
  C88      1.0000 0.61470  0.60100  0.69415  Biso   1.000  C
  H57      1.0000 0.07480  0.94500  0.19790  Biso   1.000  H
  H58      1.0000 0.92520  0.94500  0.30210  Biso   1.000  H
  H59      1.0000 0.57480  0.44500  0.19790  Biso   1.000  H
  H60      1.0000 0.42520  0.44500  0.30210  Biso   1.000  H
  H61      1.0000 0.92520  0.05500  0.80210  Biso   1.000  H
  H62      1.0000 0.07480  0.05500  0.69790  Biso   1.000  H
  H63      1.0000 0.42520  0.55500  0.80210  Biso   1.000  H
  H64      1.0000 0.57480  0.55500  0.69790  Biso   1.000  H
  C89      1.0000 0.15790  0.86100  0.24525  Biso   1.000  C
  C90      1.0000 0.84210  0.86100  0.25475  Biso   1.000  C
  C91      1.0000 0.65790  0.36100  0.24525  Biso   1.000  C
  C92      1.0000 0.34210  0.36100  0.25475  Biso   1.000  C
  C93      1.0000 0.84210  0.13900  0.75475  Biso   1.000  C
  C94      1.0000 0.15790  0.13900  0.74525  Biso   1.000  C
  C95      1.0000 0.34210  0.63900  0.75475  Biso   1.000  C
  C96      1.0000 0.65790  0.63900  0.74525  Biso   1.000  C
  H65      1.0000 0.14880  0.88220  0.28270  Biso   1.000  H
  H66      1.0000 0.85120  0.88220  0.21730  Biso   1.000  H
  H67      1.0000 0.64880  0.38220  0.28270  Biso   1.000  H
  H68      1.0000 0.35120  0.38220  0.21730  Biso   1.000  H
  H69      1.0000 0.85120  0.11780  0.71730  Biso   1.000  H
  H70      1.0000 0.14880  0.11780  0.78270  Biso   1.000  H
  H71      1.0000 0.35120  0.61780  0.71730  Biso   1.000  H
  H72      1.0000 0.64880  0.61780  0.78270  Biso   1.000  H
  C97      1.0000 0.21490  0.79140  0.24056  Biso   1.000  C
  C98      1.0000 0.78510  0.79140  0.25944  Biso   1.000  C
  C99      1.0000 0.71490  0.29140  0.24056  Biso   1.000  C
  C100     1.0000 0.28510  0.29140  0.25944  Biso   1.000  C
  C101     1.0000 0.78510  0.20860  0.75944  Biso   1.000  C
  C102     1.0000 0.21490  0.20860  0.74056  Biso   1.000  C
  C103     1.0000 0.28510  0.70860  0.75944  Biso   1.000  C
  C104     1.0000 0.71490  0.70860  0.74056  Biso   1.000  C
  C105     1.0000 0.18990  0.80093  0.13259  Biso   1.000  C
  C106     1.0000 0.81010  0.80093  0.36741  Biso   1.000  C
  C107     1.0000 0.68990  0.30093  0.13259  Biso   1.000  C
  C108     1.0000 0.31010  0.30093  0.36741  Biso   1.000  C
  C109     1.0000 0.81010  0.19907  0.86741  Biso   1.000  C
  C110     1.0000 0.18990  0.19907  0.63259  Biso   1.000  C
  C111     1.0000 0.31010  0.69907  0.86741  Biso   1.000  C
  C112     1.0000 0.68990  0.69907  0.63259  Biso   1.000  C
  C113     1.0000 0.08060  0.91433  0.08428  Biso   1.000  C
  C114     1.0000 0.91940  0.91433  0.41572  Biso   1.000  C
  C115     1.0000 0.58060  0.41433  0.08428  Biso   1.000  C
  C116     1.0000 0.41940  0.41433  0.41572  Biso   1.000  C
  C117     1.0000 0.91940  0.08567  0.91572  Biso   1.000  C
  C118     1.0000 0.08060  0.08567  0.58428  Biso   1.000  C
  C119     1.0000 0.41940  0.58567  0.91572  Biso   1.000  C
  C120     1.0000 0.58060  0.58567  0.58428  Biso   1.000  C
  C121     1.0000 0.26430  0.70320  0.07108  Biso   1.000  C
  C122     1.0000 0.73570  0.70320  0.42892  Biso   1.000  C
  C123     1.0000 0.76430  0.20320  0.07108  Biso   1.000  C
  C124     1.0000 0.23570  0.20320  0.42892  Biso   1.000  C
  C125     1.0000 0.73570  0.29680  0.92892  Biso   1.000  C
  C126     1.0000 0.26430  0.29680  0.57108  Biso   1.000  C
  C127     1.0000 0.23570  0.79680  0.92892  Biso   1.000  C
  C128     1.0000 0.76430  0.79680  0.57108  Biso   1.000  C
  H73      1.0000 0.26780  0.69050  0.02960  Biso   1.000  H
  H74      1.0000 0.73220  0.69050  0.47040  Biso   1.000  H
  H75      1.0000 0.76780  0.19050  0.02960  Biso   1.000  H
  H76      1.0000 0.23220  0.19050  0.47040  Biso   1.000  H
  H77      1.0000 0.73220  0.30950  0.97040  Biso   1.000  H
  H78      1.0000 0.26780  0.30950  0.52960  Biso   1.000  H
  H79      1.0000 0.23220  0.80950  0.97040  Biso   1.000  H
  H80      1.0000 0.76780  0.80950  0.52960  Biso   1.000  H
  H81      1.0000 0.34740  0.70640  0.08920  Biso   1.000  H
  H82      1.0000 0.65260  0.70640  0.41080  Biso   1.000  H
  H83      1.0000 0.84740  0.20640  0.08920  Biso   1.000  H
  H84      1.0000 0.15260  0.20640  0.41080  Biso   1.000  H
  H85      1.0000 0.65260  0.29360  0.91080  Biso   1.000  H
  H86      1.0000 0.34740  0.29360  0.58920  Biso   1.000  H
  H87      1.0000 0.15260  0.79360  0.91080  Biso   1.000  H
  H88      1.0000 0.84740  0.79360  0.58920  Biso   1.000  H
  H89      1.0000 0.21880  0.66510  0.09090  Biso   1.000  H
  H90      1.0000 0.78120  0.66510  0.40910  Biso   1.000  H
  H91      1.0000 0.71880  0.16510  0.09090  Biso   1.000  H
  H92      1.0000 0.28120  0.16510  0.40910  Biso   1.000  H
  H93      1.0000 0.78120  0.33490  0.90910  Biso   1.000  H
  H94      1.0000 0.21880  0.33490  0.59090  Biso   1.000  H
  H95      1.0000 0.28120  0.83490  0.90910  Biso   1.000  H
  H96      1.0000 0.71880  0.83490  0.59090  Biso   1.000  H
  C129     1.0000 0.84210  0.45450  0.42563  Biso   1.000  C
  C130     1.0000 0.15790  0.45450  0.07437  Biso   1.000  C
  C131     1.0000 0.34210  0.95450  0.42563  Biso   1.000  C
  C132     1.0000 0.65790  0.95450  0.07437  Biso   1.000  C
  C133     1.0000 0.15790  0.54550  0.57437  Biso   1.000  C
  C134     1.0000 0.84210  0.54550  0.92563  Biso   1.000  C
  C135     1.0000 0.65790  0.04550  0.57437  Biso   1.000  C
  C136     1.0000 0.34210  0.04550  0.92563  Biso   1.000  C
  H97      1.0000 0.79740  0.40960  0.42480  Biso   1.000  H
  H98      1.0000 0.20260  0.40960  0.07520  Biso   1.000  H
  H99      1.0000 0.29740  0.90960  0.42480  Biso   1.000  H
  H100     1.0000 0.70260  0.90960  0.07520  Biso   1.000  H
  H101     1.0000 0.20260  0.59040  0.57520  Biso   1.000  H
  H102     1.0000 0.79740  0.59040  0.92480  Biso   1.000  H
  H103     1.0000 0.70260  0.09040  0.57520  Biso   1.000  H
  H104     1.0000 0.29740  0.09040  0.92480  Biso   1.000  H
  C137     1.0000 0.03860  0.51800  0.41750  Biso   1.000  C
  C138     1.0000 0.96140  0.51800  0.08250  Biso   1.000  C
  C139     1.0000 0.53860  0.01800  0.41750  Biso   1.000  C
  C140     1.0000 0.46140  0.01800  0.08250  Biso   1.000  C
  C141     1.0000 0.96140  0.48200  0.58250  Biso   1.000  C
  C142     1.0000 0.03860  0.48200  0.91750  Biso   1.000  C
  C143     1.0000 0.46140  0.98200  0.58250  Biso   1.000  C
  C144     1.0000 0.53860  0.98200  0.91750  Biso   1.000  C
  H105     1.0000 0.12230  0.50490  0.40910  Biso   1.000  H
  H106     1.0000 0.87770  0.50490  0.09090  Biso   1.000  H
  H107     1.0000 0.62230  0.00490  0.40910  Biso   1.000  H
  H108     1.0000 0.37770  0.00490  0.09090  Biso   1.000  H
  H109     1.0000 0.87770  0.49510  0.59090  Biso   1.000  H
  H110     1.0000 0.12230  0.49510  0.90910  Biso   1.000  H
  H111     1.0000 0.37770  0.99510  0.59090  Biso   1.000  H
  H112     1.0000 0.62230  0.99510  0.90910  Biso   1.000  H
  H113     1.0000 0.03840  0.54060  0.45640  Biso   1.000  H
  H114     1.0000 0.96160  0.54060  0.04360  Biso   1.000  H
  H115     1.0000 0.53840  0.04060  0.45640  Biso   1.000  H
  H116     1.0000 0.46160  0.04060  0.04360  Biso   1.000  H
  H117     1.0000 0.96160  0.45940  0.54360  Biso   1.000  H
  H118     1.0000 0.03840  0.45940  0.95640  Biso   1.000  H
  H119     1.0000 0.46160  0.95940  0.54360  Biso   1.000  H
  H120     1.0000 0.53840  0.95940  0.95640  Biso   1.000  H
  H121     1.0000 0.00560  0.55300  0.38800  Biso   1.000  H
  H122     1.0000 0.99440  0.55300  0.11200  Biso   1.000  H
  H123     1.0000 0.50560  0.05300  0.38800  Biso   1.000  H
  H124     1.0000 0.49440  0.05300  0.11200  Biso   1.000  H
  H125     1.0000 0.99440  0.44700  0.61200  Biso   1.000  H
  H126     1.0000 0.00560  0.44700  0.88800  Biso   1.000  H
  H127     1.0000 0.49440  0.94700  0.61200  Biso   1.000  H
  H128     1.0000 0.50560  0.94700  0.88800  Biso   1.000  H
  C145     1.0000 0.02270  0.37950  0.40320  Biso   1.000  C
  C146     1.0000 0.97730  0.37950  0.09680  Biso   1.000  C
  C147     1.0000 0.52270  0.87950  0.40320  Biso   1.000  C
  C148     1.0000 0.47730  0.87950  0.09680  Biso   1.000  C
  C149     1.0000 0.97730  0.62050  0.59680  Biso   1.000  C
  C150     1.0000 0.02270  0.62050  0.90320  Biso   1.000  C
  C151     1.0000 0.47730  0.12050  0.59680  Biso   1.000  C
  C152     1.0000 0.52270  0.12050  0.90320  Biso   1.000  C
  H129     1.0000 0.96200  0.33980  0.40250  Biso   1.000  H
  H130     1.0000 0.03800  0.33980  0.09750  Biso   1.000  H
  H131     1.0000 0.46200  0.83980  0.40250  Biso   1.000  H
  H132     1.0000 0.53800  0.83980  0.09750  Biso   1.000  H
  H133     1.0000 0.03800  0.66020  0.59750  Biso   1.000  H
  H134     1.0000 0.96200  0.66020  0.90250  Biso   1.000  H
  H135     1.0000 0.53800  0.16020  0.59750  Biso   1.000  H
  H136     1.0000 0.46200  0.16020  0.90250  Biso   1.000  H
  H137     1.0000 0.08720  0.36930  0.43360  Biso   1.000  H
  H138     1.0000 0.91280  0.36930  0.06640  Biso   1.000  H
  H139     1.0000 0.58720  0.86930  0.43360  Biso   1.000  H
  H140     1.0000 0.41280  0.86930  0.06640  Biso   1.000  H
  H141     1.0000 0.91280  0.63070  0.56640  Biso   1.000  H
  H142     1.0000 0.08720  0.63070  0.93360  Biso   1.000  H
  H143     1.0000 0.41280  0.13070  0.56640  Biso   1.000  H
  H144     1.0000 0.58720  0.13070  0.93360  Biso   1.000  H
  H145     1.0000 0.05820  0.38250  0.36500  Biso   1.000  H
  H146     1.0000 0.94180  0.38250  0.13500  Biso   1.000  H
  H147     1.0000 0.55820  0.88250  0.36500  Biso   1.000  H
  H148     1.0000 0.44180  0.88250  0.13500  Biso   1.000  H
  H149     1.0000 0.94180  0.61750  0.63500  Biso   1.000  H
  H150     1.0000 0.05820  0.61750  0.86500  Biso   1.000  H
  H151     1.0000 0.44180  0.11750  0.63500  Biso   1.000  H
  H152     1.0000 0.55820  0.11750  0.86500  Biso   1.000  H
  N1       1.0000 0.96250  0.45106  0.41603  Biso   1.000  N
  N2       1.0000 0.03750  0.45106  0.08397  Biso   1.000  N
  N3       1.0000 0.46250  0.95106  0.41603  Biso   1.000  N
  N4       1.0000 0.53750  0.95106  0.08397  Biso   1.000  N
  N5       1.0000 0.03750  0.54894  0.58397  Biso   1.000  N
  N6       1.0000 0.96250  0.54894  0.91603  Biso   1.000  N
  N7       1.0000 0.53750  0.04894  0.58397  Biso   1.000  N
  N8       1.0000 0.46250  0.04894  0.91603  Biso   1.000  N
  O57      1.0000 0.83500  0.56930  0.27710  Biso   1.000  O
  O58      1.0000 0.16500  0.56930  0.22290  Biso   1.000  O
  O59      1.0000 0.33500  0.06930  0.27710  Biso   1.000  O
  O60      1.0000 0.66500  0.06930  0.22290  Biso   1.000  O
  O61      1.0000 0.16500  0.43070  0.72290  Biso   1.000  O
  O62      1.0000 0.83500  0.43070  0.77710  Biso   1.000  O
  O63      1.0000 0.66500  0.93070  0.72290  Biso   1.000  O
  O64      1.0000 0.33500  0.93070  0.77710  Biso   1.000  O
  O65      1.0000 0.64840  0.54240  0.30760  Biso   1.000  O
  O66      1.0000 0.35160  0.54240  0.19240  Biso   1.000  O
  O67      1.0000 0.14840  0.04240  0.30760  Biso   1.000  O
  O68      1.0000 0.85160  0.04240  0.19240  Biso   1.000  O
  O69      1.0000 0.35160  0.45760  0.69240  Biso   1.000  O
  O70      1.0000 0.64840  0.45760  0.80760  Biso   1.000  O
  O71      1.0000 0.85160  0.95760  0.69240  Biso   1.000  O
  O72      1.0000 0.14840  0.95760  0.80760  Biso   1.000  O
  O73      1.0000 0.00000  0.43140  0.25000  Biso   1.000  O
  O74      1.0000 0.50000  0.93140  0.25000  Biso   1.000  O
  O75      1.0000 0.00000  0.56860  0.75000  Biso   1.000  O
  O76      1.0000 0.50000  0.06860  0.75000  Biso   1.000  O
  O77      1.0000 0.99300  0.62060  0.26270  Biso   1.000  O
  O78      1.0000 0.00700  0.62060  0.23730  Biso   1.000  O
  O79      1.0000 0.49300  0.12060  0.26270  Biso   1.000  O
  O80      1.0000 0.50700  0.12060  0.23730  Biso   1.000  O
  O81      1.0000 0.00700  0.37940  0.73730  Biso   1.000  O
  O82      1.0000 0.99300  0.37940  0.76270  Biso   1.000  O
  O83      1.0000 0.50700  0.87940  0.73730  Biso   1.000  O
  O84      1.0000 0.49300  0.87940  0.76270  Biso   1.000  O
  O85      1.0000 0.94780  0.54760  0.25560  Biso   1.000  O
  O86      1.0000 0.05220  0.54760  0.24440  Biso   1.000  O
  O87      1.0000 0.44780  0.04760  0.25560  Biso   1.000  O
  O88      1.0000 0.55220  0.04760  0.24440  Biso   1.000  O
  O89      1.0000 0.05220  0.45240  0.74440  Biso   1.000  O
  O90      1.0000 0.94780  0.45240  0.75560  Biso   1.000  O
  O91      1.0000 0.55220  0.95240  0.74440  Biso   1.000  O
  O92      1.0000 0.44780  0.95240  0.75560  Biso   1.000  O
  O93      1.0000 0.00000  0.48660  0.25000  Biso   1.000  O
  O94      1.0000 0.50000  0.98660  0.25000  Biso   1.000  O
  O95      1.0000 0.00000  0.51340  0.75000  Biso   1.000  O
  O96      1.0000 0.50000  0.01340  0.75000  Biso   1.000  O
  O97      1.0000 0.82700  0.52720  0.26650  Biso   1.000  O
  O98      1.0000 0.17300  0.52720  0.23350  Biso   1.000  O
  O99      1.0000 0.32700  0.02720  0.26650  Biso   1.000  O
  O100     1.0000 0.67300  0.02720  0.23350  Biso   1.000  O
  O101     1.0000 0.17300  0.47280  0.73350  Biso   1.000  O
  O102     1.0000 0.82700  0.47280  0.76650  Biso   1.000  O
  O103     1.0000 0.67300  0.97280  0.73350  Biso   1.000  O
  O104     1.0000 0.32700  0.97280  0.76650  Biso   1.000  O
  O105     1.0000 0.89740  0.47460  0.26980  Biso   1.000  O
  O106     1.0000 0.10260  0.47460  0.23020  Biso   1.000  O
  O107     1.0000 0.39740  0.97460  0.26980  Biso   1.000  O
  O108     1.0000 0.60260  0.97460  0.23020  Biso   1.000  O
  O109     1.0000 0.10260  0.52540  0.73020  Biso   1.000  O
  O110     1.0000 0.89740  0.52540  0.76980  Biso   1.000  O
  O111     1.0000 0.60260  0.02540  0.73020  Biso   1.000  O
  O112     1.0000 0.39740  0.02540  0.76980  Biso   1.000  O
