data_image0
_cell_length_a       9.5513
_cell_length_b       14.0864
_cell_length_c       7.5528
_cell_angle_alpha    90
_cell_angle_beta     90
_cell_angle_gamma    90

_symmetry_space_group_name_H-M    "P 1"
_symmetry_int_tables_number       1

loop_
  _symmetry_equiv_pos_as_xyz
  'x, y, z'

loop_
  _atom_site_label
  _atom_site_occupancy
  _atom_site_fract_x
  _atom_site_fract_y
  _atom_site_fract_z
  _atom_site_thermal_displace_type
  _atom_site_B_iso_or_equiv
  _atom_site_type_symbol
  Cu1      1.0000 0.39551  0.12963  0.49412  Biso   1.000  Cu
  Cu2      1.0000 0.10449  0.87037  0.99412  Biso   1.000  Cu
  Cu3      1.0000 0.89551  0.37037  0.00588  Biso   1.000  Cu
  Cu4      1.0000 0.60449  0.62963  0.50588  Biso   1.000  Cu
  Cu5      1.0000 0.60449  0.87037  0.50588  Biso   1.000  Cu
  Cu6      1.0000 0.89551  0.12963  0.00588  Biso   1.000  Cu
  Cu7      1.0000 0.10449  0.62963  0.99412  Biso   1.000  Cu
  Cu8      1.0000 0.39551  0.37037  0.49412  Biso   1.000  Cu
  N1       1.0000 0.34850  0.01250  0.63110  Biso   1.000  N
  N2       1.0000 0.15150  0.98750  0.13110  Biso   1.000  N
  N3       1.0000 0.84850  0.48750  0.86890  Biso   1.000  N
  N4       1.0000 0.65150  0.51250  0.36890  Biso   1.000  N
  N5       1.0000 0.65150  0.98750  0.36890  Biso   1.000  N
  N6       1.0000 0.84850  0.01250  0.86890  Biso   1.000  N
  N7       1.0000 0.15150  0.51250  0.13110  Biso   1.000  N
  N8       1.0000 0.34850  0.48750  0.63110  Biso   1.000  N
  N9       1.0000 0.59730  0.07530  0.38450  Biso   1.000  N
  N10      1.0000 0.90270  0.92470  0.88450  Biso   1.000  N
  N11      1.0000 0.09730  0.42470  0.11550  Biso   1.000  N
  N12      1.0000 0.40270  0.57530  0.61550  Biso   1.000  N
  N13      1.0000 0.40270  0.92470  0.61550  Biso   1.000  N
  N14      1.0000 0.09730  0.07530  0.11550  Biso   1.000  N
  N15      1.0000 0.90270  0.57530  0.88450  Biso   1.000  N
  N16      1.0000 0.59730  0.42470  0.38450  Biso   1.000  N
  N17      1.0000 0.67270  0.13160  0.28310  Biso   1.000  N
  N18      1.0000 0.82730  0.86840  0.78310  Biso   1.000  N
  N19      1.0000 0.17270  0.36840  0.21690  Biso   1.000  N
  N20      1.0000 0.32730  0.63160  0.71690  Biso   1.000  N
  N21      1.0000 0.32730  0.86840  0.71690  Biso   1.000  N
  N22      1.0000 0.17270  0.13160  0.21690  Biso   1.000  N
  N23      1.0000 0.82730  0.63160  0.78310  Biso   1.000  N
  N24      1.0000 0.67270  0.36840  0.28310  Biso   1.000  N
  N25      1.0000 0.27380  0.08110  0.29630  Biso   1.000  N
  N26      1.0000 0.22620  0.91890  0.79630  Biso   1.000  N
  N27      1.0000 0.77380  0.41890  0.20370  Biso   1.000  N
  N28      1.0000 0.72620  0.58110  0.70370  Biso   1.000  N
  N29      1.0000 0.72620  0.91890  0.70370  Biso   1.000  N
  N30      1.0000 0.77380  0.08110  0.20370  Biso   1.000  N
  N31      1.0000 0.22620  0.58110  0.79630  Biso   1.000  N
  N32      1.0000 0.27380  0.41890  0.29630  Biso   1.000  N
  N33      1.0000 0.43260  0.20210  0.72140  Biso   1.000  N
  N34      1.0000 0.06740  0.79790  0.22140  Biso   1.000  N
  N35      1.0000 0.93260  0.29790  0.77860  Biso   1.000  N
  N36      1.0000 0.56740  0.70210  0.27860  Biso   1.000  N
  N37      1.0000 0.56740  0.79790  0.27860  Biso   1.000  N
  N38      1.0000 0.93260  0.20210  0.77860  Biso   1.000  N
  N39      1.0000 0.06740  0.70210  0.22140  Biso   1.000  N
  N40      1.0000 0.43260  0.29790  0.72140  Biso   1.000  N
  C1       1.0000 0.44950  0.17400  0.88670  Biso   1.000  C
  C2       1.0000 0.05050  0.82600  0.38670  Biso   1.000  C
  C3       1.0000 0.94950  0.32600  0.61330  Biso   1.000  C
  C4       1.0000 0.55050  0.67400  0.11330  Biso   1.000  C
  C5       1.0000 0.55050  0.82600  0.11330  Biso   1.000  C
  C6       1.0000 0.94950  0.17400  0.61330  Biso   1.000  C
  C7       1.0000 0.05050  0.67400  0.38670  Biso   1.000  C
  C8       1.0000 0.44950  0.32600  0.88670  Biso   1.000  C
  H1       1.0000 0.45430  0.11100  0.92340  Biso   1.000  H
  H2       1.0000 0.04570  0.88900  0.42340  Biso   1.000  H
  H3       1.0000 0.95430  0.38900  0.57660  Biso   1.000  H
  H4       1.0000 0.54570  0.61100  0.07660  Biso   1.000  H
  H5       1.0000 0.54570  0.88900  0.07660  Biso   1.000  H
  H6       1.0000 0.95430  0.11100  0.57660  Biso   1.000  H
  H7       1.0000 0.04570  0.61100  0.42340  Biso   1.000  H
  H8       1.0000 0.45430  0.38900  0.92340  Biso   1.000  H
  N41      1.0000 0.45870  0.25000  0.99400  Biso   1.000  N
  N42      1.0000 0.04130  0.75000  0.49400  Biso   1.000  N
  N43      1.0000 0.95870  0.25000  0.50600  Biso   1.000  N
  N44      1.0000 0.54130  0.75000  0.00600  Biso   1.000  N
  O1       1.0000 0.41120  0.25000  0.38370  Biso   1.000  O
  O2       1.0000 0.08880  0.75000  0.88370  Biso   1.000  O
  O3       1.0000 0.91120  0.25000  0.11630  Biso   1.000  O
  O4       1.0000 0.58880  0.75000  0.61630  Biso   1.000  O
  H9       1.0000 0.41640  0.25000  0.27020  Biso   1.000  H
  H10      1.0000 0.08360  0.75000  0.77020  Biso   1.000  H
  H11      1.0000 0.91640  0.25000  0.22980  Biso   1.000  H
  H12      1.0000 0.58360  0.75000  0.72980  Biso   1.000  H
  C9       1.0000 0.24260  0.00760  0.74180  Biso   1.000  C
  C10      1.0000 0.25740  0.99240  0.24180  Biso   1.000  C
  C11      1.0000 0.74260  0.49240  0.75820  Biso   1.000  C
  C12      1.0000 0.75740  0.50760  0.25820  Biso   1.000  C
  C13      1.0000 0.75740  0.99240  0.25820  Biso   1.000  C
  C14      1.0000 0.74260  0.00760  0.75820  Biso   1.000  C
  C15      1.0000 0.25740  0.50760  0.24180  Biso   1.000  C
  C16      1.0000 0.24260  0.49240  0.74180  Biso   1.000  C
  H13      1.0000 0.18740  0.05870  0.77670  Biso   1.000  H
  H14      1.0000 0.31260  0.94130  0.27670  Biso   1.000  H
  H15      1.0000 0.68740  0.44130  0.72330  Biso   1.000  H
  H16      1.0000 0.81260  0.55870  0.22330  Biso   1.000  H
  H17      1.0000 0.81260  0.94130  0.22330  Biso   1.000  H
  H18      1.0000 0.68740  0.05870  0.72330  Biso   1.000  H
  H19      1.0000 0.31260  0.55870  0.27670  Biso   1.000  H
  H20      1.0000 0.18740  0.44130  0.77670  Biso   1.000  H
