data_image0
_cell_length_a       12.3634
_cell_length_b       12.3634
_cell_length_c       12.539
_cell_angle_alpha    90
_cell_angle_beta     90
_cell_angle_gamma    120

_symmetry_space_group_name_H-M    "P 1"
_symmetry_int_tables_number       1

loop_
  _symmetry_equiv_pos_as_xyz
  'x, y, z'

loop_
  _atom_site_label
  _atom_site_occupancy
  _atom_site_fract_x
  _atom_site_fract_y
  _atom_site_fract_z
  _atom_site_thermal_displace_type
  _atom_site_B_iso_or_equiv
  _atom_site_type_symbol
  N1       1.0000 0.66670  0.33330  0.25000  Biso   1.000  N
  N2       1.0000 0.33330  0.66670  0.75000  Biso   1.000  N
  O1       1.0000 0.72640  0.45270  0.25000  Biso   1.000  O
  O2       1.0000 0.54730  0.27370  0.25000  Biso   1.000  O
  O3       1.0000 0.72630  0.27360  0.25000  Biso   1.000  O
  O4       1.0000 0.27360  0.54730  0.75000  Biso   1.000  O
  O5       1.0000 0.45270  0.72630  0.75000  Biso   1.000  O
  O6       1.0000 0.27370  0.72640  0.75000  Biso   1.000  O
  O7       1.0000 0.00000  0.00000  0.00000  Biso   1.000  O
  O8       1.0000 0.00000  0.00000  0.50000  Biso   1.000  O
  O9       1.0000 0.00000  0.00000  0.15700  Biso   1.000  O
  O10      1.0000 0.00000  0.00000  0.65700  Biso   1.000  O
  O11      1.0000 0.00000  0.00000  0.84300  Biso   1.000  O
  O12      1.0000 0.00000  0.00000  0.34300  Biso   1.000  O
  O13      1.0000 0.12500  0.87500  0.16100  Biso   1.000  O
  O14      1.0000 0.12500  0.25000  0.16100  Biso   1.000  O
  O15      1.0000 0.75000  0.87500  0.16100  Biso   1.000  O
  O16      1.0000 0.87500  0.12500  0.66100  Biso   1.000  O
  O17      1.0000 0.87500  0.75000  0.66100  Biso   1.000  O
  O18      1.0000 0.25000  0.12500  0.66100  Biso   1.000  O
  O19      1.0000 0.87500  0.12500  0.83900  Biso   1.000  O
  O20      1.0000 0.25000  0.12500  0.83900  Biso   1.000  O
  O21      1.0000 0.87500  0.75000  0.83900  Biso   1.000  O
  O22      1.0000 0.12500  0.87500  0.33900  Biso   1.000  O
  O23      1.0000 0.75000  0.87500  0.33900  Biso   1.000  O
  O24      1.0000 0.12500  0.25000  0.33900  Biso   1.000  O
  Cu1      1.0000 0.33330  0.66670  0.10000  Biso   1.000  Cu
  Cu2      1.0000 0.66670  0.33330  0.60000  Biso   1.000  Cu
  Cu3      1.0000 0.66670  0.33330  0.90000  Biso   1.000  Cu
  Cu4      1.0000 0.33330  0.66670  0.40000  Biso   1.000  Cu
  Cu5      1.0000 0.00000  0.50000  0.00000  Biso   1.000  Cu
  Cu6      1.0000 0.50000  0.50000  0.00000  Biso   1.000  Cu
  Cu7      1.0000 0.50000  0.00000  0.00000  Biso   1.000  Cu
  Cu8      1.0000 0.00000  0.50000  0.50000  Biso   1.000  Cu
  Cu9      1.0000 0.50000  0.50000  0.50000  Biso   1.000  Cu
  Cu10     1.0000 0.50000  0.00000  0.50000  Biso   1.000  Cu
  N3       1.0000 0.25180  0.50350  0.00210  Biso   1.000  N
  N4       1.0000 0.49650  0.74830  0.00210  Biso   1.000  N
  N5       1.0000 0.25170  0.74820  0.00210  Biso   1.000  N
  N6       1.0000 0.74820  0.49650  0.50210  Biso   1.000  N
  N7       1.0000 0.50350  0.25170  0.50210  Biso   1.000  N
  N8       1.0000 0.74830  0.25180  0.50210  Biso   1.000  N
  N9       1.0000 0.50350  0.25180  0.99790  Biso   1.000  N
  N10      1.0000 0.74830  0.49650  0.99790  Biso   1.000  N
  N11      1.0000 0.74820  0.25170  0.99790  Biso   1.000  N
  N12      1.0000 0.49650  0.74820  0.49790  Biso   1.000  N
  N13      1.0000 0.25170  0.50350  0.49790  Biso   1.000  N
  N14      1.0000 0.25180  0.74830  0.49790  Biso   1.000  N
  N15      1.0000 0.13360  0.44560  0.96610  Biso   1.000  N
  N16      1.0000 0.55440  0.68800  0.96610  Biso   1.000  N
  N17      1.0000 0.31200  0.86640  0.96610  Biso   1.000  N
  N18      1.0000 0.86640  0.55440  0.46610  Biso   1.000  N
  N19      1.0000 0.44560  0.31200  0.46610  Biso   1.000  N
  N20      1.0000 0.68800  0.13360  0.46610  Biso   1.000  N
  N21      1.0000 0.44560  0.13360  0.03390  Biso   1.000  N
  N22      1.0000 0.68800  0.55440  0.03390  Biso   1.000  N
  N23      1.0000 0.86640  0.31200  0.03390  Biso   1.000  N
  N24      1.0000 0.55440  0.86640  0.53390  Biso   1.000  N
  N25      1.0000 0.31200  0.44560  0.53390  Biso   1.000  N
  N26      1.0000 0.13360  0.68800  0.53390  Biso   1.000  N
  N27      1.0000 0.86640  0.55440  0.03390  Biso   1.000  N
  N28      1.0000 0.44560  0.31200  0.03390  Biso   1.000  N
  N29      1.0000 0.68800  0.13360  0.03390  Biso   1.000  N
  N30      1.0000 0.13360  0.44560  0.53390  Biso   1.000  N
  N31      1.0000 0.55440  0.68800  0.53390  Biso   1.000  N
  N32      1.0000 0.31200  0.86640  0.53390  Biso   1.000  N
  N33      1.0000 0.55440  0.86640  0.96610  Biso   1.000  N
  N34      1.0000 0.31200  0.44560  0.96610  Biso   1.000  N
  N35      1.0000 0.13360  0.68800  0.96610  Biso   1.000  N
  N36      1.0000 0.44560  0.13360  0.46610  Biso   1.000  N
  N37      1.0000 0.68800  0.55440  0.46610  Biso   1.000  N
  N38      1.0000 0.86640  0.31200  0.46610  Biso   1.000  N
  C1       1.0000 0.12310  0.34880  0.90560  Biso   1.000  C
  C2       1.0000 0.65120  0.77430  0.90560  Biso   1.000  C
  C3       1.0000 0.22570  0.87690  0.90560  Biso   1.000  C
  C4       1.0000 0.87690  0.65120  0.40560  Biso   1.000  C
  C5       1.0000 0.34880  0.22570  0.40560  Biso   1.000  C
  C6       1.0000 0.77430  0.12310  0.40560  Biso   1.000  C
  C7       1.0000 0.34880  0.12310  0.09440  Biso   1.000  C
  C8       1.0000 0.77430  0.65120  0.09440  Biso   1.000  C
  C9       1.0000 0.87690  0.22570  0.09440  Biso   1.000  C
  C10      1.0000 0.65120  0.87690  0.59440  Biso   1.000  C
  C11      1.0000 0.22570  0.34880  0.59440  Biso   1.000  C
  C12      1.0000 0.12310  0.77430  0.59440  Biso   1.000  C
  C13      1.0000 0.87690  0.65120  0.09440  Biso   1.000  C
  C14      1.0000 0.34880  0.22570  0.09440  Biso   1.000  C
  C15      1.0000 0.77430  0.12310  0.09440  Biso   1.000  C
  C16      1.0000 0.12310  0.34880  0.59440  Biso   1.000  C
  C17      1.0000 0.65120  0.77430  0.59440  Biso   1.000  C
  C18      1.0000 0.22570  0.87690  0.59440  Biso   1.000  C
  C19      1.0000 0.65120  0.87690  0.90560  Biso   1.000  C
  C20      1.0000 0.22570  0.34880  0.90560  Biso   1.000  C
  C21      1.0000 0.12310  0.77430  0.90560  Biso   1.000  C
  C22      1.0000 0.34880  0.12310  0.40560  Biso   1.000  C
  C23      1.0000 0.77430  0.65120  0.40560  Biso   1.000  C
  C24      1.0000 0.87690  0.22570  0.40560  Biso   1.000  C
  H1       1.0000 0.04980  0.29020  0.86900  Biso   1.000  H
  H2       1.0000 0.70980  0.75960  0.86900  Biso   1.000  H
  H3       1.0000 0.24040  0.95020  0.86900  Biso   1.000  H
  H4       1.0000 0.95020  0.70980  0.36900  Biso   1.000  H
  H5       1.0000 0.29020  0.24040  0.36900  Biso   1.000  H
  H6       1.0000 0.75960  0.04980  0.36900  Biso   1.000  H
  H7       1.0000 0.29020  0.04980  0.13100  Biso   1.000  H
  H8       1.0000 0.75960  0.70980  0.13100  Biso   1.000  H
  H9       1.0000 0.95020  0.24040  0.13100  Biso   1.000  H
  H10      1.0000 0.70980  0.95020  0.63100  Biso   1.000  H
  H11      1.0000 0.24040  0.29020  0.63100  Biso   1.000  H
  H12      1.0000 0.04980  0.75960  0.63100  Biso   1.000  H
  H13      1.0000 0.95020  0.70980  0.13100  Biso   1.000  H
  H14      1.0000 0.29020  0.24040  0.13100  Biso   1.000  H
  H15      1.0000 0.75960  0.04980  0.13100  Biso   1.000  H
  H16      1.0000 0.04980  0.29020  0.63100  Biso   1.000  H
  H17      1.0000 0.70980  0.75960  0.63100  Biso   1.000  H
  H18      1.0000 0.24040  0.95020  0.63100  Biso   1.000  H
  H19      1.0000 0.70980  0.95020  0.86900  Biso   1.000  H
  H20      1.0000 0.24040  0.29020  0.86900  Biso   1.000  H
  H21      1.0000 0.04980  0.75960  0.86900  Biso   1.000  H
  H22      1.0000 0.29020  0.04980  0.36900  Biso   1.000  H
  H23      1.0000 0.75960  0.70980  0.36900  Biso   1.000  H
  H24      1.0000 0.95020  0.24040  0.36900  Biso   1.000  H
  N39      1.0000 0.17370  0.58680  0.19610  Biso   1.000  N
  N40      1.0000 0.41320  0.58690  0.19610  Biso   1.000  N
  N41      1.0000 0.41310  0.82630  0.19610  Biso   1.000  N
  N42      1.0000 0.82630  0.41320  0.69610  Biso   1.000  N
  N43      1.0000 0.58680  0.41310  0.69610  Biso   1.000  N
  N44      1.0000 0.58690  0.17370  0.69610  Biso   1.000  N
  N45      1.0000 0.58680  0.17370  0.80390  Biso   1.000  N
  N46      1.0000 0.58690  0.41320  0.80390  Biso   1.000  N
  N47      1.0000 0.82630  0.41310  0.80390  Biso   1.000  N
  N48      1.0000 0.41320  0.82630  0.30390  Biso   1.000  N
  N49      1.0000 0.41310  0.58680  0.30390  Biso   1.000  N
  N50      1.0000 0.17370  0.58690  0.30390  Biso   1.000  N
  N51      1.0000 0.05460  0.52730  0.16500  Biso   1.000  N
  N52      1.0000 0.47270  0.52730  0.16500  Biso   1.000  N
  N53      1.0000 0.47270  0.94540  0.16500  Biso   1.000  N
  N54      1.0000 0.94540  0.47270  0.66500  Biso   1.000  N
  N55      1.0000 0.52730  0.47270  0.66500  Biso   1.000  N
  N56      1.0000 0.52730  0.05460  0.66500  Biso   1.000  N
  N57      1.0000 0.52730  0.05460  0.83500  Biso   1.000  N
  N58      1.0000 0.52730  0.47270  0.83500  Biso   1.000  N
  N59      1.0000 0.94540  0.47270  0.83500  Biso   1.000  N
  N60      1.0000 0.47270  0.94540  0.33500  Biso   1.000  N
  N61      1.0000 0.47270  0.52730  0.33500  Biso   1.000  N
  N62      1.0000 0.05460  0.52730  0.33500  Biso   1.000  N
  C25      1.0000 0.98200  0.49100  0.25000  Biso   1.000  C
  C26      1.0000 0.50900  0.49100  0.25000  Biso   1.000  C
  C27      1.0000 0.50900  0.01800  0.25000  Biso   1.000  C
  C28      1.0000 0.01800  0.50900  0.75000  Biso   1.000  C
  C29      1.0000 0.49100  0.50900  0.75000  Biso   1.000  C
  C30      1.0000 0.49100  0.98200  0.75000  Biso   1.000  C
  H25      1.0000 0.89330  0.44660  0.25000  Biso   1.000  H
  H26      1.0000 0.55340  0.44670  0.25000  Biso   1.000  H
  H27      1.0000 0.55330  0.10670  0.25000  Biso   1.000  H
  H28      1.0000 0.10670  0.55340  0.75000  Biso   1.000  H
  H29      1.0000 0.44660  0.55330  0.75000  Biso   1.000  H
  H30      1.0000 0.44670  0.89330  0.75000  Biso   1.000  H
