data_image0
_cell_length_a       19.188
_cell_length_b       9.987
_cell_length_c       15.964
_cell_angle_alpha    90
_cell_angle_beta     123.12
_cell_angle_gamma    90

_symmetry_space_group_name_H-M    "P 1"
_symmetry_int_tables_number       1

loop_
  _symmetry_equiv_pos_as_xyz
  'x, y, z'

loop_
  _atom_site_label
  _atom_site_occupancy
  _atom_site_fract_x
  _atom_site_fract_y
  _atom_site_fract_z
  _atom_site_thermal_displace_type
  _atom_site_B_iso_or_equiv
  _atom_site_type_symbol
  Cu1      1.0000 0.32910  0.16990  0.04880  Biso   1.000  Cu
  Cu2      1.0000 0.67090  0.16990  0.45120  Biso   1.000  Cu
  Cu3      1.0000 0.82910  0.66990  0.04880  Biso   1.000  Cu
  Cu4      1.0000 0.17090  0.66990  0.45120  Biso   1.000  Cu
  Cu5      1.0000 0.67090  0.83010  0.95120  Biso   1.000  Cu
  Cu6      1.0000 0.32910  0.83010  0.54880  Biso   1.000  Cu
  Cu7      1.0000 0.17090  0.33010  0.95120  Biso   1.000  Cu
  Cu8      1.0000 0.82910  0.33010  0.54880  Biso   1.000  Cu
  Cl1      1.0000 0.31680  0.94630  0.06670  Biso   1.000  Cl
  Cl2      1.0000 0.68320  0.94630  0.43330  Biso   1.000  Cl
  Cl3      1.0000 0.81680  0.44630  0.06670  Biso   1.000  Cl
  Cl4      1.0000 0.18320  0.44630  0.43330  Biso   1.000  Cl
  Cl5      1.0000 0.68320  0.05370  0.93330  Biso   1.000  Cl
  Cl6      1.0000 0.31680  0.05370  0.56670  Biso   1.000  Cl
  Cl7      1.0000 0.18320  0.55370  0.93330  Biso   1.000  Cl
  Cl8      1.0000 0.81680  0.55370  0.56670  Biso   1.000  Cl
  S1       1.0000 0.44600  0.27140  0.07060  Biso   1.000  S
  S2       1.0000 0.55400  0.27140  0.42940  Biso   1.000  S
  S3       1.0000 0.94600  0.77140  0.07060  Biso   1.000  S
  S4       1.0000 0.05400  0.77140  0.42940  Biso   1.000  S
  S5       1.0000 0.55400  0.72860  0.92940  Biso   1.000  S
  S6       1.0000 0.44600  0.72860  0.57060  Biso   1.000  S
  S7       1.0000 0.05400  0.22860  0.92940  Biso   1.000  S
  S8       1.0000 0.94600  0.22860  0.57060  Biso   1.000  S
  C1       1.0000 0.52310  0.15820  0.10810  Biso   1.000  C
  C2       1.0000 0.47690  0.15820  0.39190  Biso   1.000  C
  C3       1.0000 0.02310  0.65820  0.10810  Biso   1.000  C
  C4       1.0000 0.97690  0.65820  0.39190  Biso   1.000  C
  C5       1.0000 0.47690  0.84180  0.89190  Biso   1.000  C
  C6       1.0000 0.52310  0.84180  0.60810  Biso   1.000  C
  C7       1.0000 0.97690  0.34180  0.89190  Biso   1.000  C
  C8       1.0000 0.02310  0.34180  0.60810  Biso   1.000  C
  C9       1.0000 0.53020  0.02730  0.15710  Biso   1.000  C
  C10      1.0000 0.46980  0.02730  0.34290  Biso   1.000  C
  C11      1.0000 0.03020  0.52730  0.15710  Biso   1.000  C
  C12      1.0000 0.96980  0.52730  0.34290  Biso   1.000  C
  C13      1.0000 0.46980  0.97270  0.84290  Biso   1.000  C
  C14      1.0000 0.53020  0.97270  0.65710  Biso   1.000  C
  C15      1.0000 0.96980  0.47270  0.84290  Biso   1.000  C
  C16      1.0000 0.03020  0.47270  0.65710  Biso   1.000  C
  C17      1.0000 0.59850  0.95310  0.15710  Biso   1.000  C
  C18      1.0000 0.40150  0.95310  0.34290  Biso   1.000  C
  C19      1.0000 0.09850  0.45310  0.15710  Biso   1.000  C
  C20      1.0000 0.90150  0.45310  0.34290  Biso   1.000  C
  C21      1.0000 0.40150  0.04690  0.84290  Biso   1.000  C
  C22      1.0000 0.59850  0.04690  0.65710  Biso   1.000  C
  C23      1.0000 0.90150  0.54690  0.84290  Biso   1.000  C
  C24      1.0000 0.09850  0.54690  0.65710  Biso   1.000  C
  C25      1.0000 0.64590  0.05840  0.14050  Biso   1.000  C
  C26      1.0000 0.35410  0.05840  0.35950  Biso   1.000  C
  C27      1.0000 0.14590  0.55840  0.14050  Biso   1.000  C
  C28      1.0000 0.85410  0.55840  0.35950  Biso   1.000  C
  C29      1.0000 0.35410  0.94160  0.85950  Biso   1.000  C
  C30      1.0000 0.64590  0.94160  0.64050  Biso   1.000  C
  C31      1.0000 0.85410  0.44160  0.85950  Biso   1.000  C
  C32      1.0000 0.14590  0.44160  0.64050  Biso   1.000  C
  N1       1.0000 0.58790  0.17270  0.10130  Biso   1.000  N
  N2       1.0000 0.41210  0.17270  0.39870  Biso   1.000  N
  N3       1.0000 0.08790  0.67270  0.10130  Biso   1.000  N
  N4       1.0000 0.91210  0.67270  0.39870  Biso   1.000  N
  N5       1.0000 0.41210  0.82730  0.89870  Biso   1.000  N
  N6       1.0000 0.58790  0.82730  0.60130  Biso   1.000  N
  N7       1.0000 0.91210  0.32730  0.89870  Biso   1.000  N
  N8       1.0000 0.08790  0.32730  0.60130  Biso   1.000  N
  C33      1.0000 0.60930  0.29040  0.06590  Biso   1.000  C
  C34      1.0000 0.39070  0.29040  0.43410  Biso   1.000  C
  C35      1.0000 0.10930  0.79040  0.06590  Biso   1.000  C
  C36      1.0000 0.89070  0.79040  0.43410  Biso   1.000  C
  C37      1.0000 0.39070  0.70960  0.93410  Biso   1.000  C
  C38      1.0000 0.60930  0.70960  0.56590  Biso   1.000  C
  C39      1.0000 0.89070  0.20960  0.93410  Biso   1.000  C
  C40      1.0000 0.10930  0.20960  0.56590  Biso   1.000  C
  C41      1.0000 0.67940  0.37190  0.15140  Biso   1.000  C
  C42      1.0000 0.32060  0.37190  0.34860  Biso   1.000  C
  C43      1.0000 0.17940  0.87190  0.15140  Biso   1.000  C
  C44      1.0000 0.82060  0.87190  0.34860  Biso   1.000  C
  C45      1.0000 0.32060  0.62810  0.84860  Biso   1.000  C
  C46      1.0000 0.67940  0.62810  0.65140  Biso   1.000  C
  C47      1.0000 0.82060  0.12810  0.84860  Biso   1.000  C
  C48      1.0000 0.17940  0.12810  0.65140  Biso   1.000  C
  N9       1.0000 0.65480  0.43970  0.21150  Biso   1.000  N
  N10      1.0000 0.34520  0.43970  0.28850  Biso   1.000  N
  N11      1.0000 0.15480  0.93970  0.21150  Biso   1.000  N
  N12      1.0000 0.84520  0.93970  0.28850  Biso   1.000  N
  N13      1.0000 0.34520  0.56030  0.78850  Biso   1.000  N
  N14      1.0000 0.65480  0.56030  0.71150  Biso   1.000  N
  N15      1.0000 0.84520  0.06030  0.78850  Biso   1.000  N
  N16      1.0000 0.15480  0.06030  0.71150  Biso   1.000  N
  C49      1.0000 0.60520  0.56400  0.17510  Biso   1.000  C
  C50      1.0000 0.39480  0.56400  0.32490  Biso   1.000  C
  C51      1.0000 0.10520  0.06400  0.17510  Biso   1.000  C
  C52      1.0000 0.89480  0.06400  0.32490  Biso   1.000  C
  C53      1.0000 0.39480  0.43600  0.82490  Biso   1.000  C
  C54      1.0000 0.60520  0.43600  0.67510  Biso   1.000  C
  C55      1.0000 0.89480  0.93600  0.82490  Biso   1.000  C
  C56      1.0000 0.10520  0.93600  0.67510  Biso   1.000  C
  C57      1.0000 0.61050  0.61890  0.26600  Biso   1.000  C
  C58      1.0000 0.38950  0.61890  0.23400  Biso   1.000  C
  C59      1.0000 0.11050  0.11890  0.26600  Biso   1.000  C
  C60      1.0000 0.88950  0.11890  0.23400  Biso   1.000  C
  C61      1.0000 0.38950  0.38110  0.73400  Biso   1.000  C
  C62      1.0000 0.61050  0.38110  0.76600  Biso   1.000  C
  C63      1.0000 0.88950  0.88110  0.73400  Biso   1.000  C
  C64      1.0000 0.11050  0.88110  0.76600  Biso   1.000  C
  C65      1.0000 0.62890  0.49670  0.33150  Biso   1.000  C
  C66      1.0000 0.37110  0.49670  0.16850  Biso   1.000  C
  C67      1.0000 0.12890  0.99670  0.33150  Biso   1.000  C
  C68      1.0000 0.87110  0.99670  0.16850  Biso   1.000  C
  C69      1.0000 0.37110  0.50330  0.66850  Biso   1.000  C
  C70      1.0000 0.62890  0.50330  0.83150  Biso   1.000  C
  C71      1.0000 0.87110  0.00330  0.66850  Biso   1.000  C
  C72      1.0000 0.12890  0.00330  0.83150  Biso   1.000  C
  C73      1.0000 0.66990  0.40180  0.29930  Biso   1.000  C
  C74      1.0000 0.33010  0.40180  0.20070  Biso   1.000  C
  C75      1.0000 0.16990  0.90180  0.29930  Biso   1.000  C
  C76      1.0000 0.83010  0.90180  0.20070  Biso   1.000  C
  C77      1.0000 0.33010  0.59820  0.70070  Biso   1.000  C
  C78      1.0000 0.66990  0.59820  0.79930  Biso   1.000  C
  C79      1.0000 0.83010  0.09820  0.70070  Biso   1.000  C
  C80      1.0000 0.16990  0.09820  0.79930  Biso   1.000  C
  S9       1.0000 0.27390  0.26520  0.13710  Biso   1.000  S
  S10      1.0000 0.72610  0.26520  0.36290  Biso   1.000  S
  S11      1.0000 0.77390  0.76520  0.13710  Biso   1.000  S
  S12      1.0000 0.22610  0.76520  0.36290  Biso   1.000  S
  S13      1.0000 0.72610  0.73480  0.86290  Biso   1.000  S
  S14      1.0000 0.27390  0.73480  0.63710  Biso   1.000  S
  S15      1.0000 0.22610  0.23480  0.86290  Biso   1.000  S
  S16      1.0000 0.77390  0.23480  0.63710  Biso   1.000  S
  H1       1.0000 0.47820  0.97800  0.11980  Biso   1.000  H
  H2       1.0000 0.52180  0.97800  0.38020  Biso   1.000  H
  H3       1.0000 0.97820  0.47800  0.11980  Biso   1.000  H
  H4       1.0000 0.02180  0.47800  0.38020  Biso   1.000  H
  H5       1.0000 0.52180  0.02200  0.88020  Biso   1.000  H
  H6       1.0000 0.47820  0.02200  0.61980  Biso   1.000  H
  H7       1.0000 0.02180  0.52200  0.88020  Biso   1.000  H
  H8       1.0000 0.97820  0.52200  0.61980  Biso   1.000  H
  H9       1.0000 0.54430  0.04060  0.22490  Biso   1.000  H
  H10      1.0000 0.45570  0.04060  0.27510  Biso   1.000  H
  H11      1.0000 0.04430  0.54060  0.22490  Biso   1.000  H
  H12      1.0000 0.95570  0.54060  0.27510  Biso   1.000  H
  H13      1.0000 0.45570  0.95940  0.77510  Biso   1.000  H
  H14      1.0000 0.54430  0.95940  0.72490  Biso   1.000  H
  H15      1.0000 0.95570  0.45940  0.77510  Biso   1.000  H
  H16      1.0000 0.04430  0.45940  0.72490  Biso   1.000  H
  H17      1.0000 0.63460  0.90810  0.22060  Biso   1.000  H
  H18      1.0000 0.36540  0.90810  0.27940  Biso   1.000  H
  H19      1.0000 0.13460  0.40810  0.22060  Biso   1.000  H
  H20      1.0000 0.86540  0.40810  0.27940  Biso   1.000  H
  H21      1.0000 0.36540  0.09190  0.77940  Biso   1.000  H
  H22      1.0000 0.63460  0.09190  0.72060  Biso   1.000  H
  H23      1.0000 0.86540  0.59190  0.77940  Biso   1.000  H
  H24      1.0000 0.13460  0.59190  0.72060  Biso   1.000  H
  H25      1.0000 0.57540  0.88700  0.10400  Biso   1.000  H
  H26      1.0000 0.42460  0.88700  0.39600  Biso   1.000  H
  H27      1.0000 0.07540  0.38700  0.10400  Biso   1.000  H
  H28      1.0000 0.92460  0.38700  0.39600  Biso   1.000  H
  H29      1.0000 0.42460  0.11300  0.89600  Biso   1.000  H
  H30      1.0000 0.57540  0.11300  0.60400  Biso   1.000  H
  H31      1.0000 0.92460  0.61300  0.89600  Biso   1.000  H
  H32      1.0000 0.07540  0.61300  0.60400  Biso   1.000  H
  H33      1.0000 0.69730  0.08140  0.20270  Biso   1.000  H
  H34      1.0000 0.30270  0.08140  0.29730  Biso   1.000  H
  H35      1.0000 0.19730  0.58140  0.20270  Biso   1.000  H
  H36      1.0000 0.80270  0.58140  0.29730  Biso   1.000  H
  H37      1.0000 0.30270  0.91860  0.79730  Biso   1.000  H
  H38      1.0000 0.69730  0.91860  0.70270  Biso   1.000  H
  H39      1.0000 0.80270  0.41860  0.79730  Biso   1.000  H
  H40      1.0000 0.19730  0.41860  0.70270  Biso   1.000  H
  H41      1.0000 0.65860  0.02840  0.09250  Biso   1.000  H
  H42      1.0000 0.34140  0.02840  0.40750  Biso   1.000  H
  H43      1.0000 0.15860  0.52840  0.09250  Biso   1.000  H
  H44      1.0000 0.84140  0.52840  0.40750  Biso   1.000  H
  H45      1.0000 0.34140  0.97160  0.90750  Biso   1.000  H
  H46      1.0000 0.65860  0.97160  0.59250  Biso   1.000  H
  H47      1.0000 0.84140  0.47160  0.90750  Biso   1.000  H
  H48      1.0000 0.15860  0.47160  0.59250  Biso   1.000  H
  H49      1.0000 0.56040  0.34670  0.02820  Biso   1.000  H
  H50      1.0000 0.43960  0.34670  0.47180  Biso   1.000  H
  H51      1.0000 0.06040  0.84670  0.02820  Biso   1.000  H
  H52      1.0000 0.93960  0.84670  0.47180  Biso   1.000  H
  H53      1.0000 0.43960  0.65330  0.97180  Biso   1.000  H
  H54      1.0000 0.56040  0.65330  0.52820  Biso   1.000  H
  H55      1.0000 0.93960  0.15330  0.97180  Biso   1.000  H
  H56      1.0000 0.06040  0.15330  0.52820  Biso   1.000  H
  H57      1.0000 0.62600  0.26240  0.02120  Biso   1.000  H
  H58      1.0000 0.37400  0.26240  0.47880  Biso   1.000  H
  H59      1.0000 0.12600  0.76240  0.02120  Biso   1.000  H
  H60      1.0000 0.87400  0.76240  0.47880  Biso   1.000  H
  H61      1.0000 0.37400  0.73760  0.97880  Biso   1.000  H
  H62      1.0000 0.62600  0.73760  0.52120  Biso   1.000  H
  H63      1.0000 0.87400  0.23760  0.97880  Biso   1.000  H
  H64      1.0000 0.12600  0.23760  0.52120  Biso   1.000  H
  H65      1.0000 0.72570  0.31270  0.19410  Biso   1.000  H
  H66      1.0000 0.27430  0.31270  0.30590  Biso   1.000  H
  H67      1.0000 0.22570  0.81270  0.19410  Biso   1.000  H
  H68      1.0000 0.77430  0.81270  0.30590  Biso   1.000  H
  H69      1.0000 0.27430  0.68730  0.80590  Biso   1.000  H
  H70      1.0000 0.72570  0.68730  0.69410  Biso   1.000  H
  H71      1.0000 0.77430  0.18730  0.80590  Biso   1.000  H
  H72      1.0000 0.22570  0.18730  0.69410  Biso   1.000  H
  H73      1.0000 0.69860  0.43790  0.12380  Biso   1.000  H
  H74      1.0000 0.30140  0.43790  0.37620  Biso   1.000  H
  H75      1.0000 0.19860  0.93790  0.12380  Biso   1.000  H
  H76      1.0000 0.80140  0.93790  0.37620  Biso   1.000  H
  H77      1.0000 0.30140  0.56210  0.87620  Biso   1.000  H
  H78      1.0000 0.69860  0.56210  0.62380  Biso   1.000  H
  H79      1.0000 0.80140  0.06210  0.87620  Biso   1.000  H
  H80      1.0000 0.19860  0.06210  0.62380  Biso   1.000  H
  H81      1.0000 0.54800  0.54510  0.12220  Biso   1.000  H
  H82      1.0000 0.45200  0.54510  0.37780  Biso   1.000  H
  H83      1.0000 0.04800  0.04510  0.12220  Biso   1.000  H
  H84      1.0000 0.95200  0.04510  0.37780  Biso   1.000  H
  H85      1.0000 0.45200  0.45490  0.87780  Biso   1.000  H
  H86      1.0000 0.54800  0.45490  0.62220  Biso   1.000  H
  H87      1.0000 0.95200  0.95490  0.87780  Biso   1.000  H
  H88      1.0000 0.04800  0.95490  0.62220  Biso   1.000  H
  H89      1.0000 0.62860  0.62640  0.15020  Biso   1.000  H
  H90      1.0000 0.37140  0.62640  0.34980  Biso   1.000  H
  H91      1.0000 0.12860  0.12640  0.15020  Biso   1.000  H
  H92      1.0000 0.87140  0.12640  0.34980  Biso   1.000  H
  H93      1.0000 0.37140  0.37360  0.84980  Biso   1.000  H
  H94      1.0000 0.62860  0.37360  0.65020  Biso   1.000  H
  H95      1.0000 0.87140  0.87360  0.84980  Biso   1.000  H
  H96      1.0000 0.12860  0.87360  0.65020  Biso   1.000  H
  H97      1.0000 0.55840  0.66020  0.24820  Biso   1.000  H
  H98      1.0000 0.44160  0.66020  0.25180  Biso   1.000  H
  H99      1.0000 0.05840  0.16020  0.24820  Biso   1.000  H
  H100     1.0000 0.94160  0.16020  0.25180  Biso   1.000  H
  H101     1.0000 0.44160  0.33980  0.75180  Biso   1.000  H
  H102     1.0000 0.55840  0.33980  0.74820  Biso   1.000  H
  H103     1.0000 0.94160  0.83980  0.75180  Biso   1.000  H
  H104     1.0000 0.05840  0.83980  0.74820  Biso   1.000  H
  H105     1.0000 0.65480  0.68450  0.29960  Biso   1.000  H
  H106     1.0000 0.34520  0.68450  0.20040  Biso   1.000  H
  H107     1.0000 0.15480  0.18450  0.29960  Biso   1.000  H
  H108     1.0000 0.84520  0.18450  0.20040  Biso   1.000  H
  H109     1.0000 0.34520  0.31550  0.70040  Biso   1.000  H
  H110     1.0000 0.65480  0.31550  0.79960  Biso   1.000  H
  H111     1.0000 0.84520  0.81550  0.70040  Biso   1.000  H
  H112     1.0000 0.15480  0.81550  0.79960  Biso   1.000  H
  H113     1.0000 0.66580  0.51930  0.40170  Biso   1.000  H
  H114     1.0000 0.33420  0.51930  0.09830  Biso   1.000  H
  H115     1.0000 0.16580  0.01930  0.40170  Biso   1.000  H
  H116     1.0000 0.83420  0.01930  0.09830  Biso   1.000  H
  H117     1.0000 0.33420  0.48070  0.59830  Biso   1.000  H
  H118     1.0000 0.66580  0.48070  0.90170  Biso   1.000  H
  H119     1.0000 0.83420  0.98070  0.59830  Biso   1.000  H
  H120     1.0000 0.16580  0.98070  0.90170  Biso   1.000  H
  H121     1.0000 0.57810  0.45880  0.32050  Biso   1.000  H
  H122     1.0000 0.42190  0.45880  0.17950  Biso   1.000  H
  H123     1.0000 0.07810  0.95880  0.32050  Biso   1.000  H
  H124     1.0000 0.92190  0.95880  0.17950  Biso   1.000  H
  H125     1.0000 0.42190  0.54120  0.67950  Biso   1.000  H
  H126     1.0000 0.57810  0.54120  0.82050  Biso   1.000  H
  H127     1.0000 0.92190  0.04120  0.67950  Biso   1.000  H
  H128     1.0000 0.07810  0.04120  0.82050  Biso   1.000  H
