data_image0
_cell_length_a       11.4143
_cell_length_b       14.2687
_cell_length_c       7.78
_cell_angle_alpha    90
_cell_angle_beta     108.119
_cell_angle_gamma    90

_symmetry_space_group_name_H-M    "P 1"
_symmetry_int_tables_number       1

loop_
  _symmetry_equiv_pos_as_xyz
  'x, y, z'

loop_
  _atom_site_label
  _atom_site_occupancy
  _atom_site_fract_x
  _atom_site_fract_y
  _atom_site_fract_z
  _atom_site_thermal_displace_type
  _atom_site_B_iso_or_equiv
  _atom_site_type_symbol
  C1       1.0000 0.88720  0.12110  0.27510  Biso   1.000  C
  C2       1.0000 0.11280  0.12110  0.72490  Biso   1.000  C
  C3       1.0000 0.38720  0.62110  0.27510  Biso   1.000  C
  C4       1.0000 0.61280  0.62110  0.72490  Biso   1.000  C
  C5       1.0000 0.11280  0.87890  0.72490  Biso   1.000  C
  C6       1.0000 0.88720  0.87890  0.27510  Biso   1.000  C
  C7       1.0000 0.61280  0.37890  0.72490  Biso   1.000  C
  C8       1.0000 0.38720  0.37890  0.27510  Biso   1.000  C
  C9       1.0000 0.81590  0.18820  0.13300  Biso   1.000  C
  C10      1.0000 0.18410  0.18820  0.86700  Biso   1.000  C
  C11      1.0000 0.31590  0.68820  0.13300  Biso   1.000  C
  C12      1.0000 0.68410  0.68820  0.86700  Biso   1.000  C
  C13      1.0000 0.18410  0.81180  0.86700  Biso   1.000  C
  C14      1.0000 0.81590  0.81180  0.13300  Biso   1.000  C
  C15      1.0000 0.68410  0.31180  0.86700  Biso   1.000  C
  C16      1.0000 0.31590  0.31180  0.13300  Biso   1.000  C
  C17      1.0000 0.83510  0.18970  0.96450  Biso   1.000  C
  C18      1.0000 0.16490  0.18970  0.03550  Biso   1.000  C
  C19      1.0000 0.33510  0.68970  0.96450  Biso   1.000  C
  C20      1.0000 0.66490  0.68970  0.03550  Biso   1.000  C
  C21      1.0000 0.16490  0.81030  0.03550  Biso   1.000  C
  C22      1.0000 0.83510  0.81030  0.96450  Biso   1.000  C
  C23      1.0000 0.66490  0.31030  0.03550  Biso   1.000  C
  C24      1.0000 0.33510  0.31030  0.96450  Biso   1.000  C
  C25      1.0000 0.73030  0.24900  0.16670  Biso   1.000  C
  C26      1.0000 0.26970  0.24900  0.83330  Biso   1.000  C
  C27      1.0000 0.23030  0.74900  0.16670  Biso   1.000  C
  C28      1.0000 0.76970  0.74900  0.83330  Biso   1.000  C
  C29      1.0000 0.26970  0.75100  0.83330  Biso   1.000  C
  C30      1.0000 0.73030  0.75100  0.16670  Biso   1.000  C
  C31      1.0000 0.76970  0.25100  0.83330  Biso   1.000  C
  C32      1.0000 0.23030  0.25100  0.16670  Biso   1.000  C
  C33      1.0000 0.32860  0.06780  0.39860  Biso   1.000  C
  C34      1.0000 0.67140  0.06780  0.60140  Biso   1.000  C
  C35      1.0000 0.82860  0.56780  0.39860  Biso   1.000  C
  C36      1.0000 0.17140  0.56780  0.60140  Biso   1.000  C
  C37      1.0000 0.67140  0.93220  0.60140  Biso   1.000  C
  C38      1.0000 0.32860  0.93220  0.39860  Biso   1.000  C
  C39      1.0000 0.17140  0.43220  0.60140  Biso   1.000  C
  C40      1.0000 0.82860  0.43220  0.39860  Biso   1.000  C
  Cu1      1.0000 0.08877  0.00000  0.42533  Biso   1.000  Cu
  Cu2      1.0000 0.91123  0.00000  0.57467  Biso   1.000  Cu
  Cu3      1.0000 0.58877  0.50000  0.42533  Biso   1.000  Cu
  Cu4      1.0000 0.41123  0.50000  0.57467  Biso   1.000  Cu
  H1       1.0000 0.88630  0.14820  0.92760  Biso   1.000  H
  H2       1.0000 0.11370  0.14820  0.07240  Biso   1.000  H
  H3       1.0000 0.38630  0.64820  0.92760  Biso   1.000  H
  H4       1.0000 0.61370  0.64820  0.07240  Biso   1.000  H
  H5       1.0000 0.11370  0.85180  0.07240  Biso   1.000  H
  H6       1.0000 0.88630  0.85180  0.92760  Biso   1.000  H
  H7       1.0000 0.61370  0.35180  0.07240  Biso   1.000  H
  H8       1.0000 0.38630  0.35180  0.92760  Biso   1.000  H
  H9       1.0000 0.71440  0.24310  0.28080  Biso   1.000  H
  H10      1.0000 0.28560  0.24310  0.71920  Biso   1.000  H
  H11      1.0000 0.21440  0.74310  0.28080  Biso   1.000  H
  H12      1.0000 0.78560  0.74310  0.71920  Biso   1.000  H
  H13      1.0000 0.28560  0.75690  0.71920  Biso   1.000  H
  H14      1.0000 0.71440  0.75690  0.28080  Biso   1.000  H
  H15      1.0000 0.78560  0.25690  0.71920  Biso   1.000  H
  H16      1.0000 0.21440  0.25690  0.28080  Biso   1.000  H
  N1       1.0000 0.42440  0.08630  0.34160  Biso   1.000  N
  N2       1.0000 0.57560  0.08630  0.65840  Biso   1.000  N
  N3       1.0000 0.92440  0.58630  0.34160  Biso   1.000  N
  N4       1.0000 0.07560  0.58630  0.65840  Biso   1.000  N
  N5       1.0000 0.57560  0.91370  0.65840  Biso   1.000  N
  N6       1.0000 0.42440  0.91370  0.34160  Biso   1.000  N
  N7       1.0000 0.07560  0.41370  0.65840  Biso   1.000  N
  N8       1.0000 0.92440  0.41370  0.34160  Biso   1.000  N
  O1       1.0000 0.98922  0.09434  0.26570  Biso   1.000  O
  O2       1.0000 0.01078  0.09434  0.73430  Biso   1.000  O
  O3       1.0000 0.48922  0.59434  0.26570  Biso   1.000  O
  O4       1.0000 0.51078  0.59434  0.73430  Biso   1.000  O
  O5       1.0000 0.01078  0.90566  0.73430  Biso   1.000  O
  O6       1.0000 0.98922  0.90566  0.26570  Biso   1.000  O
  O7       1.0000 0.51078  0.40566  0.73430  Biso   1.000  O
  O8       1.0000 0.48922  0.40566  0.26570  Biso   1.000  O
  O9       1.0000 0.83870  0.09633  0.39280  Biso   1.000  O
  O10      1.0000 0.16130  0.09633  0.60720  Biso   1.000  O
  O11      1.0000 0.33870  0.59633  0.39280  Biso   1.000  O
  O12      1.0000 0.66130  0.59633  0.60720  Biso   1.000  O
  O13      1.0000 0.16130  0.90367  0.60720  Biso   1.000  O
  O14      1.0000 0.83870  0.90367  0.39280  Biso   1.000  O
  O15      1.0000 0.66130  0.40367  0.60720  Biso   1.000  O
  O16      1.0000 0.33870  0.40367  0.39280  Biso   1.000  O
  O17      1.0000 0.24260  0.00000  0.32080  Biso   1.000  O
  O18      1.0000 0.75740  0.00000  0.67920  Biso   1.000  O
  O19      1.0000 0.74260  0.50000  0.32080  Biso   1.000  O
  O20      1.0000 0.25740  0.50000  0.67920  Biso   1.000  O
  H17      1.0000 0.35740  0.10400  0.51830  Biso   1.000  H
  H18      1.0000 0.64260  0.10400  0.48170  Biso   1.000  H
  H19      1.0000 0.85740  0.60400  0.51830  Biso   1.000  H
  H20      1.0000 0.14260  0.60400  0.48170  Biso   1.000  H
  H21      1.0000 0.64260  0.89600  0.48170  Biso   1.000  H
  H22      1.0000 0.35740  0.89600  0.51830  Biso   1.000  H
  H23      1.0000 0.14260  0.39600  0.48170  Biso   1.000  H
  H24      1.0000 0.85740  0.39600  0.51830  Biso   1.000  H
  C41      1.0000 0.51760  0.15320  0.44010  Biso   1.000  C
  C42      1.0000 0.48240  0.15320  0.55990  Biso   1.000  C
  C43      1.0000 0.01760  0.65320  0.44010  Biso   1.000  C
  C44      1.0000 0.98240  0.65320  0.55990  Biso   1.000  C
  C45      1.0000 0.48240  0.84680  0.55990  Biso   1.000  C
  C46      1.0000 0.51760  0.84680  0.44010  Biso   1.000  C
  C47      1.0000 0.98240  0.34680  0.55990  Biso   1.000  C
  C48      1.0000 0.01760  0.34680  0.44010  Biso   1.000  C
  C49      1.0000 0.43140  0.04950  0.17210  Biso   1.000  C
  C50      1.0000 0.56860  0.04950  0.82790  Biso   1.000  C
  C51      1.0000 0.93140  0.54950  0.17210  Biso   1.000  C
  C52      1.0000 0.06860  0.54950  0.82790  Biso   1.000  C
  C53      1.0000 0.56860  0.95050  0.82790  Biso   1.000  C
  C54      1.0000 0.43140  0.95050  0.17210  Biso   1.000  C
  C55      1.0000 0.06860  0.45050  0.82790  Biso   1.000  C
  C56      1.0000 0.93140  0.45050  0.17210  Biso   1.000  C
  H25      1.0000 0.49820  0.00000  0.18840  Biso   1.000  H
  H26      1.0000 0.50180  0.00000  0.81160  Biso   1.000  H
  H27      1.0000 0.99820  0.50000  0.18840  Biso   1.000  H
  H28      1.0000 0.00180  0.50000  0.81160  Biso   1.000  H
  H29      1.0000 0.36430  0.00000  0.11680  Biso   1.000  H
  H30      1.0000 0.63570  0.00000  0.88320  Biso   1.000  H
  H31      1.0000 0.86430  0.50000  0.11680  Biso   1.000  H
  H32      1.0000 0.13570  0.50000  0.88320  Biso   1.000  H
  H33      1.0000 0.51510  0.20730  0.37900  Biso   1.000  H
  H34      1.0000 0.48490  0.20730  0.62100  Biso   1.000  H
  H35      1.0000 0.01510  0.70730  0.37900  Biso   1.000  H
  H36      1.0000 0.98490  0.70730  0.62100  Biso   1.000  H
  H37      1.0000 0.48490  0.79270  0.62100  Biso   1.000  H
  H38      1.0000 0.51510  0.79270  0.37900  Biso   1.000  H
  H39      1.0000 0.98490  0.29270  0.62100  Biso   1.000  H
  H40      1.0000 0.01510  0.29270  0.37900  Biso   1.000  H
  H41      1.0000 0.41170  0.10930  0.08010  Biso   1.000  H
  H42      1.0000 0.58830  0.10930  0.91990  Biso   1.000  H
  H43      1.0000 0.91170  0.60930  0.08010  Biso   1.000  H
  H44      1.0000 0.08830  0.60930  0.91990  Biso   1.000  H
  H45      1.0000 0.58830  0.89070  0.91990  Biso   1.000  H
  H46      1.0000 0.41170  0.89070  0.08010  Biso   1.000  H
  H47      1.0000 0.08830  0.39070  0.91990  Biso   1.000  H
  H48      1.0000 0.91170  0.39070  0.08010  Biso   1.000  H
