data_image0
_cell_length_a       7.7606
_cell_length_b       14.5012
_cell_length_c       11.4777
_cell_angle_alpha    90
_cell_angle_beta     109.014
_cell_angle_gamma    90

_symmetry_space_group_name_H-M    "P 1"
_symmetry_int_tables_number       1

loop_
  _symmetry_equiv_pos_as_xyz
  'x, y, z'

loop_
  _atom_site_label
  _atom_site_occupancy
  _atom_site_fract_x
  _atom_site_fract_y
  _atom_site_fract_z
  _atom_site_thermal_displace_type
  _atom_site_B_iso_or_equiv
  _atom_site_type_symbol
  Cu1      1.0000 0.57449  0.00238  0.91184  Biso   1.000  Cu
  Cu2      1.0000 0.42551  0.50238  0.58816  Biso   1.000  Cu
  Cu3      1.0000 0.42551  0.99762  0.08816  Biso   1.000  Cu
  Cu4      1.0000 0.57449  0.49762  0.41184  Biso   1.000  Cu
  O1       1.0000 0.39870  0.10418  0.84960  Biso   1.000  O
  O2       1.0000 0.60130  0.60418  0.65040  Biso   1.000  O
  O3       1.0000 0.60130  0.89582  0.15040  Biso   1.000  O
  O4       1.0000 0.39870  0.39582  0.34960  Biso   1.000  O
  O5       1.0000 0.27210  0.09808  0.99830  Biso   1.000  O
  O6       1.0000 0.72790  0.59808  0.50170  Biso   1.000  O
  O7       1.0000 0.72790  0.90192  0.00170  Biso   1.000  O
  O8       1.0000 0.27210  0.40192  0.49830  Biso   1.000  O
  C1       1.0000 0.14450  0.19800  0.83140  Biso   1.000  C
  C2       1.0000 0.85550  0.69800  0.66860  Biso   1.000  C
  C3       1.0000 0.85550  0.80200  0.16860  Biso   1.000  C
  C4       1.0000 0.14450  0.30200  0.33140  Biso   1.000  C
  C5       1.0000 0.97680  0.20290  0.85090  Biso   1.000  C
  C6       1.0000 0.02320  0.70290  0.64910  Biso   1.000  C
  C7       1.0000 0.02320  0.79710  0.14910  Biso   1.000  C
  C8       1.0000 0.97680  0.29710  0.35090  Biso   1.000  C
  H1       1.0000 0.95300  0.16430  0.90850  Biso   1.000  H
  H2       1.0000 0.04700  0.66430  0.59150  Biso   1.000  H
  H3       1.0000 0.04700  0.83570  0.09150  Biso   1.000  H
  H4       1.0000 0.95300  0.33570  0.40850  Biso   1.000  H
  C9       1.0000 0.84600  0.26460  0.78550  Biso   1.000  C
  C10      1.0000 0.15400  0.76460  0.71450  Biso   1.000  C
  C11      1.0000 0.15400  0.73540  0.21450  Biso   1.000  C
  C12      1.0000 0.84600  0.23540  0.28550  Biso   1.000  C
  H5       1.0000 0.73370  0.26670  0.79830  Biso   1.000  H
  H6       1.0000 0.26630  0.76670  0.70170  Biso   1.000  H
  H7       1.0000 0.26630  0.73330  0.20170  Biso   1.000  H
  H8       1.0000 0.73370  0.23330  0.29830  Biso   1.000  H
  C13      1.0000 0.88110  0.32370  0.70030  Biso   1.000  C
  C14      1.0000 0.11890  0.82370  0.79970  Biso   1.000  C
  C15      1.0000 0.11890  0.67630  0.29970  Biso   1.000  C
  C16      1.0000 0.88110  0.17630  0.20030  Biso   1.000  C
  C17      1.0000 0.04830  0.32000  0.68180  Biso   1.000  C
  C18      1.0000 0.95170  0.82000  0.81820  Biso   1.000  C
  C19      1.0000 0.95170  0.68000  0.31820  Biso   1.000  C
  C20      1.0000 0.04830  0.18000  0.18180  Biso   1.000  C
  H9       1.0000 0.07260  0.35970  0.62550  Biso   1.000  H
  H10      1.0000 0.92740  0.85970  0.87450  Biso   1.000  H
  H11      1.0000 0.92740  0.64030  0.37450  Biso   1.000  H
  H12      1.0000 0.07260  0.14030  0.12550  Biso   1.000  H
  C21      1.0000 0.17970  0.25760  0.74640  Biso   1.000  C
  C22      1.0000 0.82030  0.75760  0.75360  Biso   1.000  C
  C23      1.0000 0.82030  0.74240  0.25360  Biso   1.000  C
  C24      1.0000 0.17970  0.24240  0.24640  Biso   1.000  C
  H13      1.0000 0.29170  0.25540  0.73320  Biso   1.000  H
  H14      1.0000 0.70830  0.75540  0.76680  Biso   1.000  H
  H15      1.0000 0.70830  0.74460  0.26680  Biso   1.000  H
  H16      1.0000 0.29170  0.24460  0.23320  Biso   1.000  H
  C25      1.0000 0.28390  0.12830  0.89870  Biso   1.000  C
  C26      1.0000 0.71610  0.62830  0.60130  Biso   1.000  C
  C27      1.0000 0.71610  0.87170  0.10130  Biso   1.000  C
  C28      1.0000 0.28390  0.37170  0.39870  Biso   1.000  C
  C29      1.0000 0.73640  0.38830  0.62620  Biso   1.000  C
  C30      1.0000 0.26360  0.88830  0.87380  Biso   1.000  C
  C31      1.0000 0.26360  0.61170  0.37380  Biso   1.000  C
  C32      1.0000 0.73640  0.11170  0.12620  Biso   1.000  C
  O9       1.0000 0.74410  0.41180  0.52270  Biso   1.000  O
  O10      1.0000 0.25590  0.91180  0.97730  Biso   1.000  O
  O11      1.0000 0.25590  0.58820  0.47730  Biso   1.000  O
  O12      1.0000 0.74410  0.08820  0.02270  Biso   1.000  O
  O13      1.0000 0.61820  0.41412  0.67280  Biso   1.000  O
  O14      1.0000 0.38180  0.91412  0.82720  Biso   1.000  O
  O15      1.0000 0.38180  0.58588  0.32720  Biso   1.000  O
  O16      1.0000 0.61820  0.08588  0.17280  Biso   1.000  O
  O17      1.0000 0.67880  0.01379  0.75930  Biso   1.000  O
  O18      1.0000 0.32120  0.51379  0.74070  Biso   1.000  O
  O19      1.0000 0.32120  0.98621  0.24070  Biso   1.000  O
  O20      1.0000 0.67880  0.48621  0.25930  Biso   1.000  O
  C33      1.0000 0.60740  0.06650  0.67420  Biso   1.000  C
  C34      1.0000 0.39260  0.56650  0.82580  Biso   1.000  C
  C35      1.0000 0.39260  0.93350  0.32580  Biso   1.000  C
  C36      1.0000 0.60740  0.43350  0.17420  Biso   1.000  C
  H17      1.0000 0.50340  0.09730  0.67630  Biso   1.000  H
  H18      1.0000 0.49660  0.59730  0.82370  Biso   1.000  H
  H19      1.0000 0.49660  0.90270  0.32370  Biso   1.000  H
  H20      1.0000 0.50340  0.40270  0.17630  Biso   1.000  H
  N1       1.0000 0.66370  0.08400  0.57950  Biso   1.000  N
  N2       1.0000 0.33630  0.58400  0.92050  Biso   1.000  N
  N3       1.0000 0.33630  0.91600  0.42050  Biso   1.000  N
  N4       1.0000 0.66370  0.41600  0.07950  Biso   1.000  N
  C37      1.0000 0.57080  0.15180  0.48550  Biso   1.000  C
  C38      1.0000 0.42920  0.65180  0.01450  Biso   1.000  C
  C39      1.0000 0.42920  0.84820  0.51450  Biso   1.000  C
  C40      1.0000 0.57080  0.34820  0.98550  Biso   1.000  C
  H21      1.0000 0.46330  0.17350  0.50080  Biso   1.000  H
  H22      1.0000 0.53670  0.67350  0.99920  Biso   1.000  H
  H23      1.0000 0.53670  0.82650  0.49920  Biso   1.000  H
  H24      1.0000 0.46330  0.32650  0.00080  Biso   1.000  H
  H25      1.0000 0.53710  0.12350  0.40560  Biso   1.000  H
  H26      1.0000 0.46290  0.62350  0.09440  Biso   1.000  H
  H27      1.0000 0.46290  0.87650  0.59440  Biso   1.000  H
  H28      1.0000 0.53710  0.37650  0.90560  Biso   1.000  H
  H29      1.0000 0.65100  0.20280  0.48840  Biso   1.000  H
  H30      1.0000 0.34900  0.70280  0.01160  Biso   1.000  H
  H31      1.0000 0.34900  0.79720  0.51160  Biso   1.000  H
  H32      1.0000 0.65100  0.29720  0.98840  Biso   1.000  H
  C41      1.0000 0.82850  0.04240  0.57170  Biso   1.000  C
  C42      1.0000 0.17150  0.54240  0.92830  Biso   1.000  C
  C43      1.0000 0.17150  0.95760  0.42830  Biso   1.000  C
  C44      1.0000 0.82850  0.45760  0.07170  Biso   1.000  C
  H33      1.0000 0.87500  0.99940  0.63820  Biso   1.000  H
  H34      1.0000 0.12500  0.49940  0.86180  Biso   1.000  H
  H35      1.0000 0.12500  0.00060  0.36180  Biso   1.000  H
  H36      1.0000 0.87500  0.50060  0.13820  Biso   1.000  H
  H37      1.0000 0.91780  0.08940  0.57720  Biso   1.000  H
  H38      1.0000 0.08220  0.58940  0.92280  Biso   1.000  H
  H39      1.0000 0.08220  0.91060  0.42280  Biso   1.000  H
  H40      1.0000 0.91780  0.41060  0.07720  Biso   1.000  H
  H41      1.0000 0.80230  0.01060  0.49450  Biso   1.000  H
  H42      1.0000 0.19770  0.51060  0.00550  Biso   1.000  H
  H43      1.0000 0.19770  0.98940  0.50550  Biso   1.000  H
  H44      1.0000 0.80230  0.48940  0.99450  Biso   1.000  H
