data_image0
_cell_length_a       6.885
_cell_length_b       16.894
_cell_length_c       8.0779
_cell_angle_alpha    90
_cell_angle_beta     98.578
_cell_angle_gamma    90

_symmetry_space_group_name_H-M    "P 1"
_symmetry_int_tables_number       1

loop_
  _symmetry_equiv_pos_as_xyz
  'x, y, z'

loop_
  _atom_site_label
  _atom_site_occupancy
  _atom_site_fract_x
  _atom_site_fract_y
  _atom_site_fract_z
  _atom_site_thermal_displace_type
  _atom_site_B_iso_or_equiv
  _atom_site_type_symbol
  Cu1      1.0000 0.50000  0.50000  0.50000  Biso   1.000  Cu
  Cu2      1.0000 0.50000  0.00000  0.00000  Biso   1.000  Cu
  N1       1.0000 0.29010  0.44697  0.33410  Biso   1.000  N
  N2       1.0000 0.70990  0.94697  0.16590  Biso   1.000  N
  N3       1.0000 0.70990  0.55303  0.66590  Biso   1.000  N
  N4       1.0000 0.29010  0.05303  0.83410  Biso   1.000  N
  N5       1.0000 0.12070  0.59321  0.44370  Biso   1.000  N
  N6       1.0000 0.87930  0.09321  0.05630  Biso   1.000  N
  N7       1.0000 0.87930  0.40679  0.55630  Biso   1.000  N
  N8       1.0000 0.12070  0.90679  0.94370  Biso   1.000  N
  N9       1.0000 0.31840  0.59445  0.50110  Biso   1.000  N
  N10      1.0000 0.68160  0.09445  0.99890  Biso   1.000  N
  N11      1.0000 0.68160  0.40555  0.49890  Biso   1.000  N
  N12      1.0000 0.31840  0.90555  0.00110  Biso   1.000  N
  N13      1.0000 0.09610  0.46795  0.30670  Biso   1.000  N
  N14      1.0000 0.90390  0.96795  0.19330  Biso   1.000  N
  N15      1.0000 0.90390  0.53205  0.69330  Biso   1.000  N
  N16      1.0000 0.09610  0.03205  0.80670  Biso   1.000  N
  N17      1.0000 0.47980  0.38590  0.82550  Biso   1.000  N
  N18      1.0000 0.52020  0.88590  0.67450  Biso   1.000  N
  N19      1.0000 0.52020  0.61410  0.17450  Biso   1.000  N
  N20      1.0000 0.47980  0.11410  0.32550  Biso   1.000  N
  O1       1.0000 0.39130  0.44158  0.74170  Biso   1.000  O
  O2       1.0000 0.60870  0.94158  0.75830  Biso   1.000  O
  O3       1.0000 0.60870  0.55842  0.25830  Biso   1.000  O
  O4       1.0000 0.39130  0.05842  0.24170  Biso   1.000  O
  O5       1.0000 0.64600  0.39701  0.90140  Biso   1.000  O
  O6       1.0000 0.35400  0.89701  0.59860  Biso   1.000  O
  O7       1.0000 0.35400  0.60299  0.09860  Biso   1.000  O
  O8       1.0000 0.64600  0.10299  0.40140  Biso   1.000  O
  C1       1.0000 0.01040  0.52060  0.41630  Biso   1.000  C
  C2       1.0000 0.98960  0.02060  0.08370  Biso   1.000  C
  C3       1.0000 0.98960  0.47940  0.58370  Biso   1.000  C
  C4       1.0000 0.01040  0.97940  0.91630  Biso   1.000  C
  H1       1.0000 0.87810  0.53420  0.36100  Biso   1.000  H
  H2       1.0000 0.12190  0.03420  0.13900  Biso   1.000  H
  H3       1.0000 0.12190  0.46580  0.63900  Biso   1.000  H
  H4       1.0000 0.87810  0.96580  0.86100  Biso   1.000  H
  C5       1.0000 0.00330  0.43500  0.16530  Biso   1.000  C
  C6       1.0000 0.99670  0.93500  0.33470  Biso   1.000  C
  C7       1.0000 0.99670  0.56500  0.83470  Biso   1.000  C
  C8       1.0000 0.00330  0.06500  0.66530  Biso   1.000  C
  H5       1.0000 0.87090  0.44080  0.12270  Biso   1.000  H
  H6       1.0000 0.12910  0.94080  0.37730  Biso   1.000  H
  H7       1.0000 0.12910  0.55920  0.87730  Biso   1.000  H
  H8       1.0000 0.87090  0.05920  0.62270  Biso   1.000  H
  O9       1.0000 0.39690  0.32160  0.82800  Biso   1.000  O
  O10      1.0000 0.60310  0.82160  0.67200  Biso   1.000  O
  O11      1.0000 0.60310  0.67840  0.17200  Biso   1.000  O
  O12      1.0000 0.39690  0.17840  0.32800  Biso   1.000  O
  C9       1.0000 0.04910  0.66700  0.41840  Biso   1.000  C
  C10      1.0000 0.95090  0.16700  0.08160  Biso   1.000  C
  C11      1.0000 0.95090  0.33300  0.58160  Biso   1.000  C
  C12      1.0000 0.04910  0.83300  0.91840  Biso   1.000  C
  H9       1.0000 0.91940  0.68070  0.37970  Biso   1.000  H
  H10      1.0000 0.08060  0.18070  0.12030  Biso   1.000  H
  H11      1.0000 0.08060  0.31930  0.62030  Biso   1.000  H
  H12      1.0000 0.91940  0.81930  0.87970  Biso   1.000  H
  C13      1.0000 0.31110  0.40170  0.20310  Biso   1.000  C
  C14      1.0000 0.68890  0.90170  0.29690  Biso   1.000  C
  C15      1.0000 0.68890  0.59830  0.79690  Biso   1.000  C
  C16      1.0000 0.31110  0.09830  0.70310  Biso   1.000  C
  H13      1.0000 0.42970  0.37920  0.18590  Biso   1.000  H
  H14      1.0000 0.57030  0.87920  0.31410  Biso   1.000  H
  H15      1.0000 0.57030  0.62080  0.81410  Biso   1.000  H
  H16      1.0000 0.42970  0.12080  0.68590  Biso   1.000  H
  C17      1.0000 0.36480  0.67090  0.50780  Biso   1.000  C
  C18      1.0000 0.63520  0.17090  0.99220  Biso   1.000  C
  C19      1.0000 0.63520  0.32910  0.49220  Biso   1.000  C
  C20      1.0000 0.36480  0.82910  0.00780  Biso   1.000  C
  H17      1.0000 0.49120  0.69030  0.54050  Biso   1.000  H
  H18      1.0000 0.50880  0.19030  0.95950  Biso   1.000  H
  H19      1.0000 0.50880  0.30970  0.45950  Biso   1.000  H
  H20      1.0000 0.49120  0.80970  0.04050  Biso   1.000  H
  C21      1.0000 0.13630  0.39190  0.09530  Biso   1.000  C
  C22      1.0000 0.86370  0.89190  0.40470  Biso   1.000  C
  C23      1.0000 0.86370  0.60810  0.90470  Biso   1.000  C
  C24      1.0000 0.13630  0.10810  0.59530  Biso   1.000  C
  H21      1.0000 0.11490  0.36230  0.99710  Biso   1.000  H
  H22      1.0000 0.88510  0.86230  0.50290  Biso   1.000  H
  H23      1.0000 0.88510  0.63770  0.00290  Biso   1.000  H
  H24      1.0000 0.11490  0.13770  0.49710  Biso   1.000  H
  C25      1.0000 0.20200  0.71800  0.46000  Biso   1.000  C
  C26      1.0000 0.79800  0.21800  0.04000  Biso   1.000  C
  C27      1.0000 0.79800  0.28200  0.54000  Biso   1.000  C
  C28      1.0000 0.20200  0.78200  0.96000  Biso   1.000  C
  H25      1.0000 0.19760  0.77310  0.45700  Biso   1.000  H
  H26      1.0000 0.80240  0.27310  0.04300  Biso   1.000  H
  H27      1.0000 0.80240  0.22690  0.54300  Biso   1.000  H
  H28      1.0000 0.19760  0.72690  0.95700  Biso   1.000  H
