data_image0
_cell_length_a       8.5003
_cell_length_b       9.2888
_cell_length_c       14.2091
_cell_angle_alpha    89.897
_cell_angle_beta     80.245
_cell_angle_gamma    85.78

_symmetry_space_group_name_H-M    "P 1"
_symmetry_int_tables_number       1

loop_
  _symmetry_equiv_pos_as_xyz
  'x, y, z'

loop_
  _atom_site_label
  _atom_site_occupancy
  _atom_site_fract_x
  _atom_site_fract_y
  _atom_site_fract_z
  _atom_site_thermal_displace_type
  _atom_site_B_iso_or_equiv
  _atom_site_type_symbol
  Cu1      1.0000 0.00000  0.50000  0.50000  Biso   1.000  Cu
  Cu2      1.0000 0.50000  0.50000  0.50000  Biso   1.000  Cu
  O1       1.0000 0.59931  0.36896  0.39421  Biso   1.000  O
  O2       1.0000 0.40069  0.63104  0.60579  Biso   1.000  O
  O3       1.0000 0.90824  0.36426  0.59788  Biso   1.000  O
  O4       1.0000 0.09176  0.63574  0.40212  Biso   1.000  O
  O5       1.0000 0.25597  0.36122  0.49869  Biso   1.000  O
  O6       1.0000 0.74403  0.63878  0.50131  Biso   1.000  O
  O7       1.0000 0.54130  0.67998  0.09245  Biso   1.000  O
  O8       1.0000 0.45870  0.32002  0.90755  Biso   1.000  O
  O9       1.0000 0.33740  0.15468  0.55220  Biso   1.000  O
  O10      1.0000 0.66260  0.84532  0.44780  Biso   1.000  O
  O11      1.0000 0.19320  0.16125  0.44069  Biso   1.000  O
  O12      1.0000 0.80680  0.83875  0.55931  Biso   1.000  O
  N1       1.0000 0.05810  0.63070  0.59770  Biso   1.000  N
  N2       1.0000 0.94190  0.36930  0.40230  Biso   1.000  N
  H1       1.0000 0.16170  0.63100  0.59700  Biso   1.000  H
  H2       1.0000 0.83830  0.36900  0.40300  Biso   1.000  H
  H3       1.0000 0.02200  0.71440  0.57730  Biso   1.000  H
  H4       1.0000 0.97800  0.28560  0.42270  Biso   1.000  H
  N3       1.0000 0.42780  0.64720  0.41236  Biso   1.000  N
  N4       1.0000 0.57220  0.35280  0.58764  Biso   1.000  N
  H5       1.0000 0.32420  0.65300  0.41100  Biso   1.000  H
  H6       1.0000 0.67580  0.34700  0.58900  Biso   1.000  H
  H7       1.0000 0.45000  0.72790  0.43780  Biso   1.000  H
  H8       1.0000 0.55000  0.27210  0.56220  Biso   1.000  H
  N5       1.0000 0.26250  0.22430  0.49743  Biso   1.000  N
  N6       1.0000 0.73750  0.77570  0.50257  Biso   1.000  N
  N7       1.0000 0.04540  0.18330  0.79211  Biso   1.000  N
  N8       1.0000 0.95460  0.81670  0.20789  Biso   1.000  N
  N9       1.0000 0.46330  0.22990  0.19161  Biso   1.000  N
  N10      1.0000 0.53670  0.77010  0.80839  Biso   1.000  N
  H9       1.0000 0.45200  0.14630  0.16500  Biso   1.000  H
  H10      1.0000 0.54800  0.85370  0.83500  Biso   1.000  H
  C1       1.0000 0.53870  0.36660  0.31526  Biso   1.000  C
  C2       1.0000 0.46130  0.63340  0.68474  Biso   1.000  C
  C3       1.0000 0.49270  0.49310  0.26846  Biso   1.000  C
  C4       1.0000 0.50730  0.50690  0.73154  Biso   1.000  C
  C5       1.0000 0.00660  0.45990  0.73096  Biso   1.000  C
  C6       1.0000 0.99340  0.54010  0.26904  Biso   1.000  C
  C7       1.0000 0.96620  0.34510  0.67678  Biso   1.000  C
  C8       1.0000 0.03380  0.65490  0.32322  Biso   1.000  C
  C9       1.0000 0.51510  0.63610  0.31308  Biso   1.000  C
  C10      1.0000 0.48490  0.36390  0.68692  Biso   1.000  C
  H11      1.0000 0.63050  0.64530  0.31270  Biso   1.000  H
  H12      1.0000 0.36950  0.35470  0.68730  Biso   1.000  H
  H13      1.0000 0.47520  0.71590  0.27500  Biso   1.000  H
  H14      1.0000 0.52480  0.28410  0.72500  Biso   1.000  H
  C11      1.0000 0.43480  0.48340  0.18265  Biso   1.000  C
  C12      1.0000 0.56520  0.51660  0.81735  Biso   1.000  C
  C13      1.0000 0.52160  0.23170  0.27315  Biso   1.000  C
  C14      1.0000 0.47840  0.76830  0.72685  Biso   1.000  C
  C15      1.0000 0.06930  0.43110  0.81459  Biso   1.000  C
  C16      1.0000 0.93070  0.56890  0.18541  Biso   1.000  C
  C17      1.0000 0.98670  0.20290  0.71092  Biso   1.000  C
  C18      1.0000 0.01330  0.79710  0.28908  Biso   1.000  C
  C19      1.0000 0.42060  0.34980  0.14490  Biso   1.000  C
  C20      1.0000 0.57940  0.65020  0.85510  Biso   1.000  C
  H15      1.0000 0.38120  0.34170  0.08660  Biso   1.000  H
  H16      1.0000 0.61880  0.65830  0.91340  Biso   1.000  H
  C21      1.0000 0.97340  0.61060  0.69661  Biso   1.000  C
  C22      1.0000 0.02660  0.38940  0.30339  Biso   1.000  C
  H17      1.0000 0.85670  0.63000  0.69870  Biso   1.000  H
  H18      1.0000 0.14330  0.37000  0.30130  Biso   1.000  H
  H19      1.0000 0.00810  0.68070  0.73980  Biso   1.000  H
  H20      1.0000 0.99190  0.31930  0.26020  Biso   1.000  H
  C23      1.0000 0.39500  0.61510  0.12676  Biso   1.000  C
  C24      1.0000 0.60500  0.38490  0.87324  Biso   1.000  C
  H21      1.0000 0.34400  0.58750  0.07250  Biso   1.000  H
  H22      1.0000 0.65600  0.41250  0.92750  Biso   1.000  H
  H23      1.0000 0.31980  0.68420  0.16820  Biso   1.000  H
  H24      1.0000 0.68020  0.31580  0.83180  Biso   1.000  H
  C25      1.0000 0.11730  0.55080  0.87442  Biso   1.000  C
  C26      1.0000 0.88270  0.44920  0.12558  Biso   1.000  C
  H25      1.0000 0.19540  0.60920  0.83450  Biso   1.000  H
  H26      1.0000 0.80460  0.39080  0.16550  Biso   1.000  H
  H27      1.0000 0.02220  0.61510  0.90100  Biso   1.000  H
  H28      1.0000 0.97780  0.38490  0.09900  Biso   1.000  H
  C27      1.0000 0.08750  0.29070  0.84364  Biso   1.000  C
  C28      1.0000 0.91250  0.70930  0.15636  Biso   1.000  C
  H29      1.0000 0.12980  0.26960  0.90020  Biso   1.000  H
  H30      1.0000 0.87020  0.73040  0.09980  Biso   1.000  H
  C29      1.0000 0.57020  0.09150  0.31546  Biso   1.000  C
  C30      1.0000 0.42980  0.90850  0.68454  Biso   1.000  C
  H31      1.0000 0.50460  0.08110  0.37850  Biso   1.000  H
  H32      1.0000 0.49540  0.91890  0.62150  Biso   1.000  H
  H33      1.0000 0.68320  0.08950  0.32200  Biso   1.000  H
  H34      1.0000 0.31680  0.91050  0.67800  Biso   1.000  H
  H35      1.0000 0.55460  0.01180  0.27370  Biso   1.000  H
  H36      1.0000 0.44540  0.98820  0.72630  Biso   1.000  H
  C31      1.0000 0.94360  0.07430  0.66050  Biso   1.000  C
  C32      1.0000 0.05640  0.92570  0.33950  Biso   1.000  C
  H37      1.0000 0.01170  0.06340  0.59760  Biso   1.000  H
  H38      1.0000 0.98830  0.93660  0.40240  Biso   1.000  H
  H39      1.0000 0.83110  0.08750  0.65260  Biso   1.000  H
  H40      1.0000 0.16890  0.91250  0.34740  Biso   1.000  H
  H41      1.0000 0.95960  0.98770  0.69820  Biso   1.000  H
  H42      1.0000 0.04040  0.01230  0.30180  Biso   1.000  H
  O13      1.0000 0.18920  0.48320  0.95190  Biso   1.000  O
  O14      1.0000 0.81080  0.51680  0.04810  Biso   1.000  O
  H43      1.0000 0.27900  0.44300  0.92900  Biso   1.000  H
  H44      1.0000 0.72100  0.55700  0.07100  Biso   1.000  H
  H45      1.0000 0.06000  0.09540  0.81370  Biso   1.000  H
  H46      1.0000 0.94000  0.90460  0.18630  Biso   1.000  H
  H47      1.0000 0.51700  0.76840  0.08600  Biso   1.000  H
  H48      1.0000 0.48300  0.23160  0.91400  Biso   1.000  H
  H49      1.0000 0.15660  0.50700  0.93050  Biso   1.000  H
  H50      1.0000 0.84340  0.49300  0.06950  Biso   1.000  H
  H51      1.0000 0.20730  0.59780  0.83600  Biso   1.000  H
  H52      1.0000 0.79270  0.40220  0.16400  Biso   1.000  H
  O15      1.0000 0.98730  0.66270  0.90850  Biso   1.000  O
  O16      1.0000 0.01270  0.33730  0.09150  Biso   1.000  O
  H53      1.0000 0.92800  0.62000  0.95100  Biso   1.000  H
  H54      1.0000 0.07200  0.38000  0.04900  Biso   1.000  H
  O17      1.0000 0.58740  0.03280  0.89239  Biso   1.000  O
  O18      1.0000 0.41260  0.96720  0.10761  Biso   1.000  O
  O19      1.0000 0.71950  0.12120  0.99259  Biso   1.000  O
  O20      1.0000 0.28050  0.87880  0.00741  Biso   1.000  O
  O21      1.0000 0.74350  0.89120  0.96150  Biso   1.000  O
  O22      1.0000 0.25650  0.10880  0.03850  Biso   1.000  O
  N11      1.0000 0.68470  0.01430  0.94925  Biso   1.000  N
  N12      1.0000 0.31530  0.98570  0.05075  Biso   1.000  N
  O23      1.0000 0.08670  0.91890  0.87029  Biso   1.000  O
  O24      1.0000 0.91330  0.08110  0.12971  Biso   1.000  O
  H55      1.0000 0.14900  0.91500  0.91030  Biso   1.000  H
  H56      1.0000 0.85100  0.08500  0.08970  Biso   1.000  H
  H57      1.0000 0.00500  0.87600  0.89200  Biso   1.000  H
  H58      1.0000 0.99500  0.12400  0.10800  Biso   1.000  H
