data_image0
_cell_length_a       14.248
_cell_length_b       8.568
_cell_length_c       9.319
_cell_angle_alpha    94.08
_cell_angle_beta     89.73
_cell_angle_gamma    99.13

_symmetry_space_group_name_H-M    "P 1"
_symmetry_int_tables_number       1

loop_
  _symmetry_equiv_pos_as_xyz
  'x, y, z'

loop_
  _atom_site_label
  _atom_site_occupancy
  _atom_site_fract_x
  _atom_site_fract_y
  _atom_site_fract_z
  _atom_site_thermal_displace_type
  _atom_site_B_iso_or_equiv
  _atom_site_type_symbol
  N1       1.0000 0.55120  0.68830  0.48970  Biso   1.000  N
  N2       1.0000 0.44880  0.31170  0.51030  Biso   1.000  N
  O1       1.0000 0.50550  0.71440  0.38190  Biso   1.000  O
  O2       1.0000 0.49450  0.28560  0.61810  Biso   1.000  O
  O3       1.0000 0.53860  0.74590  0.61100  Biso   1.000  O
  O4       1.0000 0.46140  0.25410  0.38900  Biso   1.000  O
  O5       1.0000 0.61250  0.59700  0.46810  Biso   1.000  O
  O6       1.0000 0.38750  0.40300  0.53190  Biso   1.000  O
  O7       1.0000 0.37130  0.91260  0.41920  Biso   1.000  O
  O8       1.0000 0.62870  0.08740  0.58080  Biso   1.000  O
  H1       1.0000 0.42270  0.84580  0.39940  Biso   1.000  H
  H2       1.0000 0.57730  0.15420  0.60060  Biso   1.000  H
  H3       1.0000 0.40090  0.00120  0.36150  Biso   1.000  H
  H4       1.0000 0.59910  0.99880  0.63850  Biso   1.000  H
  Cu1      1.0000 0.00000  0.00000  0.00000  Biso   1.000  Cu
  Cu2      1.0000 0.00000  0.50000  0.00000  Biso   1.000  Cu
  N3       1.0000 0.29080  0.95490  0.68350  Biso   1.000  N
  N4       1.0000 0.70920  0.04510  0.31650  Biso   1.000  N
  H5       1.0000 0.32540  0.94670  0.58510  Biso   1.000  H
  H6       1.0000 0.67460  0.05330  0.41490  Biso   1.000  H
  C1       1.0000 0.21140  0.01590  0.70540  Biso   1.000  C
  C2       1.0000 0.78860  0.98410  0.29460  Biso   1.000  C
  C3       1.0000 0.16270  0.06420  0.57550  Biso   1.000  C
  C4       1.0000 0.83730  0.93580  0.42450  Biso   1.000  C
  H7       1.0000 0.15000  0.08000  0.46500  Biso   1.000  H
  H8       1.0000 0.85000  0.92000  0.53500  Biso   1.000  H
  H9       1.0000 0.14370  0.16460  0.57210  Biso   1.000  H
  H10      1.0000 0.85630  0.83540  0.42790  Biso   1.000  H
  H11      1.0000 0.10490  0.00520  0.56410  Biso   1.000  H
  H12      1.0000 0.89510  0.99480  0.43590  Biso   1.000  H
  C5       1.0000 0.17620  0.03540  0.84650  Biso   1.000  C
  C6       1.0000 0.82380  0.96460  0.15350  Biso   1.000  C
  O9       1.0000 0.09860  0.09370  0.86610  Biso   1.000  O
  O10      1.0000 0.90140  0.90630  0.13390  Biso   1.000  O
  C7       1.0000 0.23010  0.99050  0.95870  Biso   1.000  C
  C8       1.0000 0.76990  0.00950  0.04130  Biso   1.000  C
  C9       1.0000 0.19610  0.02360  0.11130  Biso   1.000  C
  C10      1.0000 0.80390  0.97640  0.88870  Biso   1.000  C
  H13      1.0000 0.19550  0.15490  0.12740  Biso   1.000  H
  H14      1.0000 0.80450  0.84510  0.87260  Biso   1.000  H
  H15      1.0000 0.24360  0.99180  0.17340  Biso   1.000  H
  H16      1.0000 0.75640  0.00820  0.82660  Biso   1.000  H
  N5       1.0000 0.09770  0.94040  0.13160  Biso   1.000  N
  N6       1.0000 0.90230  0.05960  0.86840  Biso   1.000  N
  H17      1.0000 0.10050  0.83810  0.11800  Biso   1.000  H
  H18      1.0000 0.89950  0.16190  0.88200  Biso   1.000  H
  H19      1.0000 0.07490  0.97100  0.21140  Biso   1.000  H
  H20      1.0000 0.92510  0.02900  0.78860  Biso   1.000  H
  C11      1.0000 0.31290  0.92850  0.92940  Biso   1.000  C
  C12      1.0000 0.68710  0.07150  0.07060  Biso   1.000  C
  C13      1.0000 0.37460  0.87770  0.04890  Biso   1.000  C
  C14      1.0000 0.62540  0.12230  0.95110  Biso   1.000  C
  C15      1.0000 0.34430  0.91210  0.79010  Biso   1.000  C
  C16      1.0000 0.65570  0.08790  0.20990  Biso   1.000  C
  H21      1.0000 0.40720  0.85570  0.75780  Biso   1.000  H
  H22      1.0000 0.59280  0.14430  0.24220  Biso   1.000  H
  N7       1.0000 0.69340  0.54130  0.72920  Biso   1.000  N
  N8       1.0000 0.30660  0.45870  0.27080  Biso   1.000  N
  H23      1.0000 0.65840  0.51690  0.63930  Biso   1.000  H
  H24      1.0000 0.34160  0.48310  0.36070  Biso   1.000  H
  C17      1.0000 0.77440  0.47910  0.73200  Biso   1.000  C
  C18      1.0000 0.22560  0.52090  0.26800  Biso   1.000  C
  C19      1.0000 0.81760  0.43250  0.59340  Biso   1.000  C
  C20      1.0000 0.18240  0.56750  0.40660  Biso   1.000  C
  H25      1.0000 0.78920  0.36850  0.54520  Biso   1.000  H
  H26      1.0000 0.21080  0.63150  0.45480  Biso   1.000  H
  H27      1.0000 0.81000  0.54000  0.55000  Biso   1.000  H
  H28      1.0000 0.19000  0.46000  0.45000  Biso   1.000  H
  H29      1.0000 0.87340  0.47560  0.59670  Biso   1.000  H
  H30      1.0000 0.12660  0.52440  0.40330  Biso   1.000  H
  C21      1.0000 0.81600  0.46350  0.86700  Biso   1.000  C
  C22      1.0000 0.18400  0.53650  0.13300  Biso   1.000  C
  O11      1.0000 0.89430  0.40090  0.87110  Biso   1.000  O
  O12      1.0000 0.10570  0.59910  0.12890  Biso   1.000  O
  C23      1.0000 0.76870  0.50860  0.99300  Biso   1.000  C
  C24      1.0000 0.23130  0.49140  0.00700  Biso   1.000  C
  C25      1.0000 0.81250  0.48600  0.13620  Biso   1.000  C
  C26      1.0000 0.18750  0.51400  0.86380  Biso   1.000  C
  H31      1.0000 0.81140  0.37380  0.14610  Biso   1.000  H
  H32      1.0000 0.18860  0.62620  0.85390  Biso   1.000  H
  H33      1.0000 0.76500  0.50830  0.21950  Biso   1.000  H
  H34      1.0000 0.23500  0.49170  0.78050  Biso   1.000  H
  N9       1.0000 0.91200  0.57430  0.14720  Biso   1.000  N
  N10      1.0000 0.08800  0.42570  0.85280  Biso   1.000  N
  H35      1.0000 0.93950  0.56060  0.24090  Biso   1.000  H
  H36      1.0000 0.06050  0.43940  0.75910  Biso   1.000  H
  H37      1.0000 0.91800  0.68620  0.15810  Biso   1.000  H
  H38      1.0000 0.08200  0.31380  0.84190  Biso   1.000  H
  C27      1.0000 0.68490  0.56900  0.98360  Biso   1.000  C
  C28      1.0000 0.31510  0.43100  0.01640  Biso   1.000  C
  C29      1.0000 0.62740  0.61050  0.11550  Biso   1.000  C
  C30      1.0000 0.37260  0.38950  0.88450  Biso   1.000  C
  H39      1.0000 0.67370  0.68550  0.18930  Biso   1.000  H
  H40      1.0000 0.32630  0.31450  0.81070  Biso   1.000  H
  H41      1.0000 0.57580  0.69290  0.08430  Biso   1.000  H
  H42      1.0000 0.42420  0.30710  0.91570  Biso   1.000  H
  O13      1.0000 0.59230  0.46560  0.18070  Biso   1.000  O
  O14      1.0000 0.40770  0.53440  0.81930  Biso   1.000  O
  H43      1.0000 0.57270  0.49030  0.28900  Biso   1.000  H
  H44      1.0000 0.42730  0.50970  0.71100  Biso   1.000  H
  C31      1.0000 0.64570  0.58360  0.85170  Biso   1.000  C
  C32      1.0000 0.35430  0.41640  0.14830  Biso   1.000  C
  H45      1.0000 0.58350  0.63320  0.83090  Biso   1.000  H
  H46      1.0000 0.41650  0.36680  0.16910  Biso   1.000  H
  N11      1.0000 0.00210  0.26200  0.27460  Biso   1.000  N
  N12      1.0000 0.99790  0.73800  0.72540  Biso   1.000  N
  O15      1.0000 0.00110  0.25480  0.14130  Biso   1.000  O
  O16      1.0000 0.99890  0.74520  0.85870  Biso   1.000  O
  O17      1.0000 0.05780  0.19200  0.33770  Biso   1.000  O
  O18      1.0000 0.94220  0.80800  0.66230  Biso   1.000  O
  O19      1.0000 0.94890  0.33820  0.34490  Biso   1.000  O
  O20      1.0000 0.05110  0.66180  0.65510  Biso   1.000  O
