data_image0
_cell_length_a       7.21
_cell_length_b       19.02
_cell_length_c       6.41
_cell_angle_alpha    90
_cell_angle_beta     107.1
_cell_angle_gamma    90

_symmetry_space_group_name_H-M    "P 1"
_symmetry_int_tables_number       1

loop_
  _symmetry_equiv_pos_as_xyz
  'x, y, z'

loop_
  _atom_site_label
  _atom_site_occupancy
  _atom_site_fract_x
  _atom_site_fract_y
  _atom_site_fract_z
  _atom_site_thermal_displace_type
  _atom_site_B_iso_or_equiv
  _atom_site_type_symbol
  Cu1      1.0000 0.75980  0.19360  0.12360  Biso   1.000  Cu
  Cu2      1.0000 0.24020  0.69360  0.37640  Biso   1.000  Cu
  Cu3      1.0000 0.24020  0.80640  0.87640  Biso   1.000  Cu
  Cu4      1.0000 0.75980  0.30640  0.62360  Biso   1.000  Cu
  C1       1.0000 0.40560  0.13590  0.12910  Biso   1.000  C
  C2       1.0000 0.59440  0.63590  0.37090  Biso   1.000  C
  C3       1.0000 0.59440  0.86410  0.87090  Biso   1.000  C
  C4       1.0000 0.40560  0.36410  0.62910  Biso   1.000  C
  C5       1.0000 0.24540  0.09230  0.06260  Biso   1.000  C
  C6       1.0000 0.75460  0.59230  0.43740  Biso   1.000  C
  C7       1.0000 0.75460  0.90770  0.93740  Biso   1.000  C
  C8       1.0000 0.24540  0.40770  0.56260  Biso   1.000  C
  C9       1.0000 0.22630  0.04950  0.88210  Biso   1.000  C
  C10      1.0000 0.77370  0.54950  0.61790  Biso   1.000  C
  C11      1.0000 0.77370  0.95050  0.11790  Biso   1.000  C
  C12      1.0000 0.22630  0.45050  0.38210  Biso   1.000  C
  C13      1.0000 0.36740  0.04970  0.77360  Biso   1.000  C
  C14      1.0000 0.63260  0.54970  0.72640  Biso   1.000  C
  C15      1.0000 0.63260  0.95030  0.22640  Biso   1.000  C
  C16      1.0000 0.36740  0.45030  0.27360  Biso   1.000  C
  C17      1.0000 0.52600  0.09350  0.85320  Biso   1.000  C
  C18      1.0000 0.47400  0.59350  0.64680  Biso   1.000  C
  C19      1.0000 0.47400  0.90650  0.14680  Biso   1.000  C
  C20      1.0000 0.52600  0.40650  0.35320  Biso   1.000  C
  C21      1.0000 0.69750  0.10160  0.76510  Biso   1.000  C
  C22      1.0000 0.30250  0.60160  0.73490  Biso   1.000  C
  C23      1.0000 0.30250  0.89840  0.23490  Biso   1.000  C
  C24      1.0000 0.69750  0.39840  0.26510  Biso   1.000  C
  C25      1.0000 0.45220  0.18870  0.31260  Biso   1.000  C
  C26      1.0000 0.54780  0.68870  0.18740  Biso   1.000  C
  C27      1.0000 0.54780  0.81130  0.68740  Biso   1.000  C
  C28      1.0000 0.45220  0.31130  0.81260  Biso   1.000  C
  H1       1.0000 0.15000  0.09000  0.14300  Biso   1.000  H
  H2       1.0000 0.85000  0.59000  0.35700  Biso   1.000  H
  H3       1.0000 0.85000  0.91000  0.85700  Biso   1.000  H
  H4       1.0000 0.15000  0.41000  0.64300  Biso   1.000  H
  H5       1.0000 0.11600  0.01600  0.83300  Biso   1.000  H
  H6       1.0000 0.88400  0.51600  0.66700  Biso   1.000  H
  H7       1.0000 0.88400  0.98400  0.16700  Biso   1.000  H
  H8       1.0000 0.11600  0.48400  0.33300  Biso   1.000  H
  H9       1.0000 0.36700  0.01700  0.65700  Biso   1.000  H
  H10      1.0000 0.63300  0.51700  0.84300  Biso   1.000  H
  H11      1.0000 0.63300  0.98300  0.34300  Biso   1.000  H
  H12      1.0000 0.36700  0.48300  0.15700  Biso   1.000  H
  H13      1.0000 0.08300  0.23800  0.29000  Biso   1.000  H
  H14      1.0000 0.91700  0.73800  0.21000  Biso   1.000  H
  H15      1.0000 0.91700  0.76200  0.71000  Biso   1.000  H
  H16      1.0000 0.08300  0.26200  0.79000  Biso   1.000  H
  H17      1.0000 0.95800  0.30000  0.25700  Biso   1.000  H
  H18      1.0000 0.04200  0.80000  0.24300  Biso   1.000  H
  H19      1.0000 0.04200  0.70000  0.74300  Biso   1.000  H
  H20      1.0000 0.95800  0.20000  0.75700  Biso   1.000  H
  H21      1.0000 0.88400  0.10100  0.46400  Biso   1.000  H
  H22      1.0000 0.11600  0.60100  0.03600  Biso   1.000  H
  H23      1.0000 0.11600  0.89900  0.53600  Biso   1.000  H
  H24      1.0000 0.88400  0.39900  0.96400  Biso   1.000  H
  H25      1.0000 0.06400  0.13200  0.46400  Biso   1.000  H
  H26      1.0000 0.93600  0.63200  0.03600  Biso   1.000  H
  H27      1.0000 0.93600  0.86800  0.53600  Biso   1.000  H
  H28      1.0000 0.06400  0.36800  0.96400  Biso   1.000  H
  N1       1.0000 0.54040  0.13390  0.02530  Biso   1.000  N
  N2       1.0000 0.45960  0.63390  0.47470  Biso   1.000  N
  N3       1.0000 0.45960  0.86610  0.97470  Biso   1.000  N
  N4       1.0000 0.54040  0.36610  0.52530  Biso   1.000  N
  O1       1.0000 0.82720  0.14440  0.87310  Biso   1.000  O
  O2       1.0000 0.17280  0.64440  0.62690  Biso   1.000  O
  O3       1.0000 0.17280  0.85560  0.12690  Biso   1.000  O
  O4       1.0000 0.82720  0.35560  0.37310  Biso   1.000  O
  O5       1.0000 0.70230  0.06810  0.60360  Biso   1.000  O
  O6       1.0000 0.29770  0.56810  0.89640  Biso   1.000  O
  O7       1.0000 0.29770  0.93190  0.39640  Biso   1.000  O
  O8       1.0000 0.70230  0.43190  0.10360  Biso   1.000  O
  O9       1.0000 0.61780  0.21920  0.34730  Biso   1.000  O
  O10      1.0000 0.38220  0.71920  0.15270  Biso   1.000  O
  O11      1.0000 0.38220  0.78080  0.65270  Biso   1.000  O
  O12      1.0000 0.61780  0.28080  0.84730  Biso   1.000  O
  O13      1.0000 0.33310  0.20040  0.41380  Biso   1.000  O
  O14      1.0000 0.66690  0.70040  0.08620  Biso   1.000  O
  O15      1.0000 0.66690  0.79960  0.58620  Biso   1.000  O
  O16      1.0000 0.33310  0.29960  0.91380  Biso   1.000  O
  O17      1.0000 0.98230  0.25610  0.19560  Biso   1.000  O
  O18      1.0000 0.01770  0.75610  0.30440  Biso   1.000  O
  O19      1.0000 0.01770  0.74390  0.80440  Biso   1.000  O
  O20      1.0000 0.98230  0.24390  0.69560  Biso   1.000  O
  O21      1.0000 0.95270  0.10980  0.37390  Biso   1.000  O
  O22      1.0000 0.04730  0.60980  0.12610  Biso   1.000  O
  O23      1.0000 0.04730  0.89020  0.62610  Biso   1.000  O
  O24      1.0000 0.95270  0.39020  0.87390  Biso   1.000  O
