data_image0
_cell_length_a       7.2192
_cell_length_b       19.069
_cell_length_c       6.4356
_cell_angle_alpha    90
_cell_angle_beta     107.105
_cell_angle_gamma    90

_symmetry_space_group_name_H-M    "P 1"
_symmetry_int_tables_number       1

loop_
  _symmetry_equiv_pos_as_xyz
  'x, y, z'

loop_
  _atom_site_label
  _atom_site_occupancy
  _atom_site_fract_x
  _atom_site_fract_y
  _atom_site_fract_z
  _atom_site_thermal_displace_type
  _atom_site_B_iso_or_equiv
  _atom_site_type_symbol
  Cu1      1.0000 0.23989  0.19368  0.87662  Biso   1.000  Cu
  Cu2      1.0000 0.76011  0.69368  0.62338  Biso   1.000  Cu
  Cu3      1.0000 0.76011  0.80632  0.12338  Biso   1.000  Cu
  Cu4      1.0000 0.23989  0.30632  0.37662  Biso   1.000  Cu
  N1       1.0000 0.45920  0.13411  0.97450  Biso   1.000  N
  N2       1.0000 0.54080  0.63411  0.52550  Biso   1.000  N
  N3       1.0000 0.54080  0.86589  0.02550  Biso   1.000  N
  N4       1.0000 0.45920  0.36589  0.47450  Biso   1.000  N
  O1       1.0000 0.66580  0.19999  0.58610  Biso   1.000  O
  O2       1.0000 0.33420  0.69999  0.91390  Biso   1.000  O
  O3       1.0000 0.33420  0.80001  0.41390  Biso   1.000  O
  O4       1.0000 0.66580  0.30001  0.08610  Biso   1.000  O
  O5       1.0000 0.38250  0.21875  0.65240  Biso   1.000  O
  O6       1.0000 0.61750  0.71875  0.84760  Biso   1.000  O
  O7       1.0000 0.61750  0.78125  0.34760  Biso   1.000  O
  O8       1.0000 0.38250  0.28125  0.15240  Biso   1.000  O
  O9       1.0000 0.17270  0.14425  0.12660  Biso   1.000  O
  O10      1.0000 0.82730  0.64425  0.37340  Biso   1.000  O
  O11      1.0000 0.82730  0.85575  0.87340  Biso   1.000  O
  O12      1.0000 0.17270  0.35575  0.62660  Biso   1.000  O
  O13      1.0000 0.29600  0.06846  0.39590  Biso   1.000  O
  O14      1.0000 0.70400  0.56846  0.10410  Biso   1.000  O
  O15      1.0000 0.70400  0.93154  0.60410  Biso   1.000  O
  O16      1.0000 0.29600  0.43154  0.89590  Biso   1.000  O
  C1       1.0000 0.54730  0.18894  0.68710  Biso   1.000  C
  C2       1.0000 0.45270  0.68894  0.81290  Biso   1.000  C
  C3       1.0000 0.45270  0.81106  0.31290  Biso   1.000  C
  C4       1.0000 0.54730  0.31106  0.18710  Biso   1.000  C
  C5       1.0000 0.59390  0.13561  0.87100  Biso   1.000  C
  C6       1.0000 0.40610  0.63561  0.62900  Biso   1.000  C
  C7       1.0000 0.40610  0.86439  0.12900  Biso   1.000  C
  C8       1.0000 0.59390  0.36439  0.37100  Biso   1.000  C
  C9       1.0000 0.75410  0.09249  0.93780  Biso   1.000  C
  C10      1.0000 0.24590  0.59249  0.56220  Biso   1.000  C
  C11      1.0000 0.24590  0.90751  0.06220  Biso   1.000  C
  C12      1.0000 0.75410  0.40751  0.43780  Biso   1.000  C
  H1       1.0000 0.84770  0.09220  0.86460  Biso   1.000  H
  H2       1.0000 0.15230  0.59220  0.63540  Biso   1.000  H
  H3       1.0000 0.15230  0.90780  0.13540  Biso   1.000  H
  H4       1.0000 0.84770  0.40780  0.36460  Biso   1.000  H
  C13      1.0000 0.77210  0.04957  0.11710  Biso   1.000  C
  C14      1.0000 0.22790  0.54957  0.38290  Biso   1.000  C
  C15      1.0000 0.22790  0.95043  0.88290  Biso   1.000  C
  C16      1.0000 0.77210  0.45043  0.61710  Biso   1.000  C
  H5       1.0000 0.87920  0.02030  0.16500  Biso   1.000  H
  H6       1.0000 0.12080  0.52030  0.33500  Biso   1.000  H
  H7       1.0000 0.12080  0.97970  0.83500  Biso   1.000  H
  H8       1.0000 0.87920  0.47970  0.66500  Biso   1.000  H
  C17      1.0000 0.63260  0.04992  0.22510  Biso   1.000  C
  C18      1.0000 0.36740  0.54992  0.27490  Biso   1.000  C
  C19      1.0000 0.36740  0.95008  0.77490  Biso   1.000  C
  C20      1.0000 0.63260  0.45008  0.72510  Biso   1.000  C
  H9       1.0000 0.64520  0.02190  0.34670  Biso   1.000  H
  H10      1.0000 0.35480  0.52190  0.15330  Biso   1.000  H
  H11      1.0000 0.35480  0.97810  0.65330  Biso   1.000  H
  H12      1.0000 0.64520  0.47810  0.84670  Biso   1.000  H
  C21      1.0000 0.47350  0.09337  0.14670  Biso   1.000  C
  C22      1.0000 0.52650  0.59337  0.35330  Biso   1.000  C
  C23      1.0000 0.52650  0.90663  0.85330  Biso   1.000  C
  C24      1.0000 0.47350  0.40663  0.64670  Biso   1.000  C
  C25      1.0000 0.30250  0.10159  0.23480  Biso   1.000  C
  C26      1.0000 0.69750  0.60159  0.26520  Biso   1.000  C
  C27      1.0000 0.69750  0.89841  0.76520  Biso   1.000  C
  C28      1.0000 0.30250  0.39841  0.73480  Biso   1.000  C
  O17      1.0000 0.01710  0.25585  0.80430  Biso   1.000  O
  O18      1.0000 0.98290  0.75585  0.69570  Biso   1.000  O
  O19      1.0000 0.98290  0.74415  0.19570  Biso   1.000  O
  O20      1.0000 0.01710  0.24415  0.30430  Biso   1.000  O
  H13      1.0000 0.91700  0.23650  0.72020  Biso   1.000  H
  H14      1.0000 0.08300  0.73650  0.77980  Biso   1.000  H
  H15      1.0000 0.08300  0.76350  0.27980  Biso   1.000  H
  H16      1.0000 0.91700  0.26350  0.22020  Biso   1.000  H
  H17      1.0000 0.03990  0.29270  0.74170  Biso   1.000  H
  H18      1.0000 0.96010  0.79270  0.75830  Biso   1.000  H
  H19      1.0000 0.96010  0.70730  0.25830  Biso   1.000  H
  H20      1.0000 0.03990  0.20730  0.24170  Biso   1.000  H
  O21      1.0000 0.04730  0.10981  0.62620  Biso   1.000  O
  O22      1.0000 0.95270  0.60981  0.87380  Biso   1.000  O
  O23      1.0000 0.95270  0.89019  0.37380  Biso   1.000  O
  O24      1.0000 0.04730  0.39019  0.12620  Biso   1.000  O
  H21      1.0000 0.10060  0.09700  0.53090  Biso   1.000  H
  H22      1.0000 0.89940  0.59700  0.96910  Biso   1.000  H
  H23      1.0000 0.89940  0.90300  0.46910  Biso   1.000  H
  H24      1.0000 0.10060  0.40300  0.03090  Biso   1.000  H
  H25      1.0000 0.93800  0.12770  0.56000  Biso   1.000  H
  H26      1.0000 0.06200  0.62770  0.94000  Biso   1.000  H
  H27      1.0000 0.06200  0.87230  0.44000  Biso   1.000  H
  H28      1.0000 0.93800  0.37230  0.06000  Biso   1.000  H
