data_image0
_cell_length_a       7.2223
_cell_length_b       19.064
_cell_length_c       6.4358
_cell_angle_alpha    90
_cell_angle_beta     107.11
_cell_angle_gamma    90

_symmetry_space_group_name_H-M    "P 1"
_symmetry_int_tables_number       1

loop_
  _symmetry_equiv_pos_as_xyz
  'x, y, z'

loop_
  _atom_site_label
  _atom_site_occupancy
  _atom_site_fract_x
  _atom_site_fract_y
  _atom_site_fract_z
  _atom_site_thermal_displace_type
  _atom_site_B_iso_or_equiv
  _atom_site_type_symbol
  Cu1      1.0000 0.26018  0.30639  0.62332  Biso   1.000  Cu
  Cu2      1.0000 0.73982  0.80639  0.87668  Biso   1.000  Cu
  Cu3      1.0000 0.73982  0.69361  0.37668  Biso   1.000  Cu
  Cu4      1.0000 0.26018  0.19361  0.12332  Biso   1.000  Cu
  N1       1.0000 0.04080  0.36577  0.52550  Biso   1.000  N
  N2       1.0000 0.95920  0.86577  0.97450  Biso   1.000  N
  N3       1.0000 0.95920  0.63423  0.47450  Biso   1.000  N
  N4       1.0000 0.04080  0.13423  0.02550  Biso   1.000  N
  O1       1.0000 0.32750  0.35577  0.37300  Biso   1.000  O
  O2       1.0000 0.67250  0.85577  0.12700  Biso   1.000  O
  O3       1.0000 0.67250  0.64423  0.62700  Biso   1.000  O
  O4       1.0000 0.32750  0.14423  0.87300  Biso   1.000  O
  O5       1.0000 0.20410  0.43150  0.10430  Biso   1.000  O
  O6       1.0000 0.79590  0.93150  0.39570  Biso   1.000  O
  O7       1.0000 0.79590  0.56850  0.89570  Biso   1.000  O
  O8       1.0000 0.20410  0.06850  0.60430  Biso   1.000  O
  O9       1.0000 0.11790  0.28122  0.84750  Biso   1.000  O
  O10      1.0000 0.88210  0.78122  0.65250  Biso   1.000  O
  O11      1.0000 0.88210  0.71878  0.15250  Biso   1.000  O
  O12      1.0000 0.11790  0.21878  0.34750  Biso   1.000  O
  O13      1.0000 0.83420  0.29988  0.91360  Biso   1.000  O
  O14      1.0000 0.16580  0.79988  0.58640  Biso   1.000  O
  O15      1.0000 0.16580  0.70012  0.08640  Biso   1.000  O
  O16      1.0000 0.83420  0.20012  0.41360  Biso   1.000  O
  C1       1.0000 0.19780  0.39853  0.26510  Biso   1.000  C
  C2       1.0000 0.80220  0.89853  0.23490  Biso   1.000  C
  C3       1.0000 0.80220  0.60147  0.73490  Biso   1.000  C
  C4       1.0000 0.19780  0.10147  0.76510  Biso   1.000  C
  C5       1.0000 0.02640  0.40674  0.35350  Biso   1.000  C
  C6       1.0000 0.97360  0.90674  0.14650  Biso   1.000  C
  C7       1.0000 0.97360  0.59326  0.64650  Biso   1.000  C
  C8       1.0000 0.02640  0.09326  0.85350  Biso   1.000  C
  C9       1.0000 0.86760  0.44997  0.27440  Biso   1.000  C
  C10      1.0000 0.13240  0.94997  0.22560  Biso   1.000  C
  C11      1.0000 0.13240  0.55003  0.72560  Biso   1.000  C
  C12      1.0000 0.86760  0.05003  0.77440  Biso   1.000  C
  H1       1.0000 0.85510  0.47790  0.15260  Biso   1.000  H
  H2       1.0000 0.14490  0.97790  0.34740  Biso   1.000  H
  H3       1.0000 0.14490  0.52210  0.84740  Biso   1.000  H
  H4       1.0000 0.85510  0.02210  0.65260  Biso   1.000  H
  C13      1.0000 0.72740  0.45033  0.38280  Biso   1.000  C
  C14      1.0000 0.27260  0.95033  0.11720  Biso   1.000  C
  C15      1.0000 0.27260  0.54967  0.61720  Biso   1.000  C
  C16      1.0000 0.72740  0.04967  0.88280  Biso   1.000  C
  H5       1.0000 0.62010  0.47950  0.33470  Biso   1.000  H
  H6       1.0000 0.37990  0.97950  0.16530  Biso   1.000  H
  H7       1.0000 0.37990  0.52050  0.66530  Biso   1.000  H
  H8       1.0000 0.62010  0.02050  0.83470  Biso   1.000  H
  C17      1.0000 0.74600  0.40744  0.56250  Biso   1.000  C
  C18      1.0000 0.25400  0.90744  0.93750  Biso   1.000  C
  C19      1.0000 0.25400  0.59256  0.43750  Biso   1.000  C
  C20      1.0000 0.74600  0.09256  0.06250  Biso   1.000  C
  H9       1.0000 0.65280  0.40780  0.63610  Biso   1.000  H
  H10      1.0000 0.34720  0.90780  0.86390  Biso   1.000  H
  H11      1.0000 0.34720  0.59220  0.36390  Biso   1.000  H
  H12      1.0000 0.65280  0.09220  0.13610  Biso   1.000  H
  C21      1.0000 0.90620  0.36441  0.62900  Biso   1.000  C
  C22      1.0000 0.09380  0.86441  0.87100  Biso   1.000  C
  C23      1.0000 0.09380  0.63559  0.37100  Biso   1.000  C
  C24      1.0000 0.90620  0.13559  0.12900  Biso   1.000  C
  C25      1.0000 0.95260  0.31095  0.81250  Biso   1.000  C
  C26      1.0000 0.04740  0.81095  0.68750  Biso   1.000  C
  C27      1.0000 0.04740  0.68905  0.18750  Biso   1.000  C
  C28      1.0000 0.95260  0.18905  0.31250  Biso   1.000  C
  O17      1.0000 0.48310  0.24412  0.69560  Biso   1.000  O
  O18      1.0000 0.51690  0.74412  0.80440  Biso   1.000  O
  O19      1.0000 0.51690  0.75588  0.30440  Biso   1.000  O
  O20      1.0000 0.48310  0.25588  0.19560  Biso   1.000  O
  H13      1.0000 0.58590  0.26350  0.77420  Biso   1.000  H
  H14      1.0000 0.41410  0.76350  0.72580  Biso   1.000  H
  H15      1.0000 0.41410  0.73650  0.22580  Biso   1.000  H
  H16      1.0000 0.58590  0.23650  0.27420  Biso   1.000  H
  H17      1.0000 0.45790  0.20750  0.75780  Biso   1.000  H
  H18      1.0000 0.54210  0.70750  0.74220  Biso   1.000  H
  H19      1.0000 0.54210  0.79250  0.24220  Biso   1.000  H
  H20      1.0000 0.45790  0.29250  0.25780  Biso   1.000  H
  O21      1.0000 0.45320  0.39041  0.87410  Biso   1.000  O
  O22      1.0000 0.54680  0.89041  0.62590  Biso   1.000  O
  O23      1.0000 0.54680  0.60959  0.12590  Biso   1.000  O
  O24      1.0000 0.45320  0.10959  0.37410  Biso   1.000  O
  H21      1.0000 0.38920  0.40700  0.95450  Biso   1.000  H
  H22      1.0000 0.61080  0.90700  0.54550  Biso   1.000  H
  H23      1.0000 0.61080  0.59300  0.04550  Biso   1.000  H
  H24      1.0000 0.38920  0.09300  0.45450  Biso   1.000  H
  H25      1.0000 0.55720  0.37130  0.95100  Biso   1.000  H
  H26      1.0000 0.44280  0.87130  0.54900  Biso   1.000  H
  H27      1.0000 0.44280  0.62870  0.04900  Biso   1.000  H
  H28      1.0000 0.55720  0.12870  0.45100  Biso   1.000  H
