data_image0
_cell_length_a       7.75
_cell_length_b       9.81
_cell_length_c       14.63
_cell_angle_alpha    74.5
_cell_angle_beta     80.15
_cell_angle_gamma    87.77

_symmetry_space_group_name_H-M    "P 1"
_symmetry_int_tables_number       1

loop_
  _symmetry_equiv_pos_as_xyz
  'x, y, z'

loop_
  _atom_site_label
  _atom_site_occupancy
  _atom_site_fract_x
  _atom_site_fract_y
  _atom_site_fract_z
  _atom_site_thermal_displace_type
  _atom_site_B_iso_or_equiv
  _atom_site_type_symbol
  Cu1      1.0000 0.15060  0.96600  0.27230  Biso   1.000  Cu
  Cu2      1.0000 0.84940  0.03400  0.72770  Biso   1.000  Cu
  Cl1      1.0000 0.08950  0.16590  0.33250  Biso   1.000  Cl
  Cl2      1.0000 0.91050  0.83410  0.66750  Biso   1.000  Cl
  Cl3      1.0000 0.34350  0.91540  0.14390  Biso   1.000  Cl
  Cl4      1.0000 0.65650  0.08460  0.85610  Biso   1.000  Cl
  N1       1.0000 0.00500  0.75700  0.34940  Biso   1.000  N
  N2       1.0000 0.99500  0.24300  0.65060  Biso   1.000  N
  N3       1.0000 0.56900  0.86800  0.42000  Biso   1.000  N
  N4       1.0000 0.43100  0.13200  0.58000  Biso   1.000  N
  N5       1.0000 0.32300  0.90400  0.35970  Biso   1.000  N
  N6       1.0000 0.67700  0.09600  0.64030  Biso   1.000  N
  N7       1.0000 0.66000  0.44700  0.11350  Biso   1.000  N
  N8       1.0000 0.34000  0.55300  0.88650  Biso   1.000  N
  N9       1.0000 0.75300  0.12100  0.11410  Biso   1.000  N
  N10      1.0000 0.24700  0.87900  0.88590  Biso   1.000  N
  N11      1.0000 0.96500  0.01600  0.19200  Biso   1.000  N
  N12      1.0000 0.03500  0.98400  0.80800  Biso   1.000  N
  C1       1.0000 0.83900  0.73800  0.39200  Biso   1.000  C
  C2       1.0000 0.16100  0.26200  0.60800  Biso   1.000  C
  C3       1.0000 0.76000  0.61000  0.40900  Biso   1.000  C
  C4       1.0000 0.24000  0.39000  0.59100  Biso   1.000  C
  C5       1.0000 0.85400  0.50000  0.38300  Biso   1.000  C
  C6       1.0000 0.14600  0.50000  0.61700  Biso   1.000  C
  C7       1.0000 0.02400  0.51900  0.33700  Biso   1.000  C
  C8       1.0000 0.97600  0.48100  0.66300  Biso   1.000  C
  C9       1.0000 0.10100  0.65000  0.32000  Biso   1.000  C
  C10      1.0000 0.89900  0.35000  0.68000  Biso   1.000  C
  C11      1.0000 0.75700  0.85900  0.42000  Biso   1.000  C
  C12      1.0000 0.24300  0.14100  0.58000  Biso   1.000  C
  C13      1.0000 0.49500  0.90600  0.33700  Biso   1.000  C
  C14      1.0000 0.50500  0.09400  0.66300  Biso   1.000  C
  C15      1.0000 0.28100  0.86400  0.45800  Biso   1.000  C
  C16      1.0000 0.71900  0.13600  0.54200  Biso   1.000  C
  C17      1.0000 0.43300  0.84100  0.49700  Biso   1.000  C
  C18      1.0000 0.56700  0.15900  0.50300  Biso   1.000  C
  C19      1.0000 0.68300  0.37500  0.05000  Biso   1.000  C
  C20      1.0000 0.31700  0.62500  0.95000  Biso   1.000  C
  C21      1.0000 0.75700  0.43500  0.95400  Biso   1.000  C
  C22      1.0000 0.24300  0.56500  0.04600  Biso   1.000  C
  C23      1.0000 0.80900  0.57600  0.92900  Biso   1.000  C
  C24      1.0000 0.19100  0.42400  0.07100  Biso   1.000  C
  C25      1.0000 0.78700  0.65100  0.98400  Biso   1.000  C
  C26      1.0000 0.21300  0.34900  0.01600  Biso   1.000  C
  C27      1.0000 0.71200  0.58500  0.08500  Biso   1.000  C
  C28      1.0000 0.28800  0.41500  0.91500  Biso   1.000  C
  C29      1.0000 0.61300  0.22300  0.08600  Biso   1.000  C
  C30      1.0000 0.38700  0.77700  0.91400  Biso   1.000  C
  C31      1.0000 0.86100  0.12800  0.17900  Biso   1.000  C
  C32      1.0000 0.13900  0.87200  0.82100  Biso   1.000  C
  C33      1.0000 0.91800  0.93600  0.13600  Biso   1.000  C
  C34      1.0000 0.08200  0.06400  0.86400  Biso   1.000  C
  C35      1.0000 0.78700  0.00000  0.09100  Biso   1.000  C
  C36      1.0000 0.21300  0.00000  0.90900  Biso   1.000  C
  H1       1.0000 0.63400  0.59600  0.44000  Biso   1.000  H
  H2       1.0000 0.36600  0.40400  0.56000  Biso   1.000  H
  H3       1.0000 0.79700  0.40500  0.40100  Biso   1.000  H
  H4       1.0000 0.20300  0.59500  0.59900  Biso   1.000  H
  H5       1.0000 0.08500  0.44000  0.31400  Biso   1.000  H
  H6       1.0000 0.91500  0.56000  0.68600  Biso   1.000  H
  H7       1.0000 0.22700  0.66200  0.28800  Biso   1.000  H
  H8       1.0000 0.77300  0.33800  0.71200  Biso   1.000  H
  H9       1.0000 0.81500  0.94600  0.37300  Biso   1.000  H
  H10      1.0000 0.18500  0.05400  0.62700  Biso   1.000  H
  H11      1.0000 0.78000  0.85500  0.48600  Biso   1.000  H
  H12      1.0000 0.22000  0.14500  0.51400  Biso   1.000  H
  H13      1.0000 0.56500  0.93200  0.26900  Biso   1.000  H
  H14      1.0000 0.43500  0.06800  0.73100  Biso   1.000  H
  H15      1.0000 0.15800  0.85200  0.49700  Biso   1.000  H
  H16      1.0000 0.84200  0.14800  0.50300  Biso   1.000  H
  H17      1.0000 0.44100  0.81100  0.56800  Biso   1.000  H
  H18      1.0000 0.55900  0.18900  0.43200  Biso   1.000  H
  H19      1.0000 0.77300  0.37900  0.90500  Biso   1.000  H
  H20      1.0000 0.22700  0.62100  0.09500  Biso   1.000  H
  H21      1.0000 0.86600  0.61700  0.86100  Biso   1.000  H
  H22      1.0000 0.13400  0.38300  0.13900  Biso   1.000  H
  H23      1.0000 0.82100  0.75400  0.96000  Biso   1.000  H
  H24      1.0000 0.17900  0.24600  0.04000  Biso   1.000  H
  H25      1.0000 0.70100  0.64600  0.13200  Biso   1.000  H
  H26      1.0000 0.29900  0.35400  0.86800  Biso   1.000  H
  H27      1.0000 0.56000  0.19800  0.03400  Biso   1.000  H
  H28      1.0000 0.44000  0.80200  0.96600  Biso   1.000  H
  H29      1.0000 0.51800  0.21700  0.14300  Biso   1.000  H
  H30      1.0000 0.48200  0.78300  0.85700  Biso   1.000  H
  H31      1.0000 0.86100  0.20800  0.21200  Biso   1.000  H
  H32      1.0000 0.13900  0.79200  0.78800  Biso   1.000  H
  H33      1.0000 0.97500  0.84300  0.13000  Biso   1.000  H
  H34      1.0000 0.02500  0.15700  0.87000  Biso   1.000  H
  H35      1.0000 0.72700  0.96100  0.04700  Biso   1.000  H
  H36      1.0000 0.27300  0.03900  0.95300  Biso   1.000  H
  O1       1.0000 0.54800  0.66100  0.69800  Biso   1.000  O
  O2       1.0000 0.45200  0.33900  0.30200  Biso   1.000  O
