data_image0
_cell_length_a       7.9699
_cell_length_b       14.1888
_cell_length_c       7.3196
_cell_angle_alpha    90
_cell_angle_beta     101.339
_cell_angle_gamma    90

_symmetry_space_group_name_H-M    "P 1"
_symmetry_int_tables_number       1

loop_
  _symmetry_equiv_pos_as_xyz
  'x, y, z'

loop_
  _atom_site_label
  _atom_site_occupancy
  _atom_site_fract_x
  _atom_site_fract_y
  _atom_site_fract_z
  _atom_site_thermal_displace_type
  _atom_site_B_iso_or_equiv
  _atom_site_type_symbol
  Cu1      1.0000 0.13806  0.50000  0.62618  Biso   1.000  Cu
  Cu2      1.0000 0.63806  0.00000  0.62618  Biso   1.000  Cu
  Cu3      1.0000 0.86194  0.50000  0.37382  Biso   1.000  Cu
  Cu4      1.0000 0.36194  0.00000  0.37382  Biso   1.000  Cu
  N1       1.0000 0.36210  0.50000  0.85200  Biso   1.000  N
  N2       1.0000 0.86210  0.00000  0.85200  Biso   1.000  N
  N3       1.0000 0.63790  0.50000  0.14800  Biso   1.000  N
  N4       1.0000 0.13790  0.00000  0.14800  Biso   1.000  N
  O1       1.0000 0.21970  0.40260  0.47390  Biso   1.000  O
  O2       1.0000 0.71970  0.90260  0.47390  Biso   1.000  O
  O3       1.0000 0.78030  0.40260  0.52610  Biso   1.000  O
  O4       1.0000 0.28030  0.90260  0.52610  Biso   1.000  O
  O5       1.0000 0.78030  0.59740  0.52610  Biso   1.000  O
  O6       1.0000 0.28030  0.09740  0.52610  Biso   1.000  O
  O7       1.0000 0.21970  0.59740  0.47390  Biso   1.000  O
  O8       1.0000 0.71970  0.09740  0.47390  Biso   1.000  O
  O9       1.0000 0.98060  0.40160  0.25820  Biso   1.000  O
  O10      1.0000 0.48060  0.90160  0.25820  Biso   1.000  O
  O11      1.0000 0.01940  0.40160  0.74180  Biso   1.000  O
  O12      1.0000 0.51940  0.90160  0.74180  Biso   1.000  O
  O13      1.0000 0.01940  0.59840  0.74180  Biso   1.000  O
  O14      1.0000 0.51940  0.09840  0.74180  Biso   1.000  O
  O15      1.0000 0.98060  0.59840  0.25820  Biso   1.000  O
  O16      1.0000 0.48060  0.09840  0.25820  Biso   1.000  O
  C1       1.0000 0.12700  0.37230  0.32670  Biso   1.000  C
  C2       1.0000 0.62700  0.87230  0.32670  Biso   1.000  C
  C3       1.0000 0.87300  0.37230  0.67330  Biso   1.000  C
  C4       1.0000 0.37300  0.87230  0.67330  Biso   1.000  C
  C5       1.0000 0.87300  0.62770  0.67330  Biso   1.000  C
  C6       1.0000 0.37300  0.12770  0.67330  Biso   1.000  C
  C7       1.0000 0.12700  0.62770  0.32670  Biso   1.000  C
  C8       1.0000 0.62700  0.12770  0.32670  Biso   1.000  C
  C9       1.0000 0.33970  0.50000  0.02500  Biso   1.000  C
  C10      1.0000 0.83970  0.00000  0.02500  Biso   1.000  C
  C11      1.0000 0.66030  0.50000  0.97500  Biso   1.000  C
  C12      1.0000 0.16030  0.00000  0.97500  Biso   1.000  C
  H1       1.0000 0.22920  0.50000  0.04860  Biso   1.000  H
  H2       1.0000 0.72920  0.00000  0.04860  Biso   1.000  H
  H3       1.0000 0.77080  0.50000  0.95140  Biso   1.000  H
  H4       1.0000 0.27080  0.00000  0.95140  Biso   1.000  H
  C13      1.0000 0.52010  0.50000  0.82520  Biso   1.000  C
  C14      1.0000 0.02010  0.00000  0.82520  Biso   1.000  C
  C15      1.0000 0.47990  0.50000  0.17480  Biso   1.000  C
  C16      1.0000 0.97990  0.00000  0.17480  Biso   1.000  C
  H5       1.0000 0.53960  0.50000  0.70400  Biso   1.000  H
  H6       1.0000 0.03960  0.00000  0.70400  Biso   1.000  H
  H7       1.0000 0.46040  0.50000  0.29600  Biso   1.000  H
  H8       1.0000 0.96040  0.00000  0.29600  Biso   1.000  H
  C17      1.0000 0.19790  0.29250  0.23030  Biso   1.000  C
  C18      1.0000 0.69790  0.79250  0.23030  Biso   1.000  C
  C19      1.0000 0.80210  0.29250  0.76970  Biso   1.000  C
  C20      1.0000 0.30210  0.79250  0.76970  Biso   1.000  C
  C21      1.0000 0.80210  0.70750  0.76970  Biso   1.000  C
  C22      1.0000 0.30210  0.20750  0.76970  Biso   1.000  C
  C23      1.0000 0.19790  0.70750  0.23030  Biso   1.000  C
  C24      1.0000 0.69790  0.20750  0.23030  Biso   1.000  C
  H9       1.0000 0.31070  0.27710  0.29700  Biso   1.000  H
  H10      1.0000 0.81070  0.77710  0.29700  Biso   1.000  H
  H11      1.0000 0.68930  0.27710  0.70300  Biso   1.000  H
  H12      1.0000 0.18930  0.77710  0.70300  Biso   1.000  H
  H13      1.0000 0.68930  0.72290  0.70300  Biso   1.000  H
  H14      1.0000 0.18930  0.22290  0.70300  Biso   1.000  H
  H15      1.0000 0.31070  0.72290  0.29700  Biso   1.000  H
  H16      1.0000 0.81070  0.22290  0.29700  Biso   1.000  H
  H17      1.0000 0.20340  0.31100  0.10540  Biso   1.000  H
  H18      1.0000 0.70340  0.81100  0.10540  Biso   1.000  H
  H19      1.0000 0.79660  0.31100  0.89460  Biso   1.000  H
  H20      1.0000 0.29660  0.81100  0.89460  Biso   1.000  H
  H21      1.0000 0.79660  0.68900  0.89460  Biso   1.000  H
  H22      1.0000 0.29660  0.18900  0.89460  Biso   1.000  H
  H23      1.0000 0.20340  0.68900  0.10540  Biso   1.000  H
  H24      1.0000 0.70340  0.18900  0.10540  Biso   1.000  H
  H25      1.0000 0.12500  0.23840  0.22670  Biso   1.000  H
  H26      1.0000 0.62500  0.73840  0.22670  Biso   1.000  H
  H27      1.0000 0.87500  0.23840  0.77330  Biso   1.000  H
  H28      1.0000 0.37500  0.73840  0.77330  Biso   1.000  H
  H29      1.0000 0.87500  0.76160  0.77330  Biso   1.000  H
  H30      1.0000 0.37500  0.26160  0.77330  Biso   1.000  H
  H31      1.0000 0.12500  0.76160  0.22670  Biso   1.000  H
  H32      1.0000 0.62500  0.26160  0.22670  Biso   1.000  H
