data_image0
_cell_length_a       20.007
_cell_length_b       7.506
_cell_length_c       16.062
_cell_angle_alpha    90
_cell_angle_beta     108.912
_cell_angle_gamma    90

_symmetry_space_group_name_H-M    "P 1"
_symmetry_int_tables_number       1

loop_
  _symmetry_equiv_pos_as_xyz
  'x, y, z'

loop_
  _atom_site_label
  _atom_site_occupancy
  _atom_site_fract_x
  _atom_site_fract_y
  _atom_site_fract_z
  _atom_site_thermal_displace_type
  _atom_site_B_iso_or_equiv
  _atom_site_type_symbol
  Cu1      1.0000 0.30206  0.16055  0.48747  Biso   1.000  Cu
  Cu2      1.0000 0.80206  0.66055  0.48747  Biso   1.000  Cu
  Cu3      1.0000 0.30206  0.83945  0.98747  Biso   1.000  Cu
  Cu4      1.0000 0.80206  0.33945  0.98747  Biso   1.000  Cu
  Cu5      1.0000 0.69794  0.83945  0.51253  Biso   1.000  Cu
  Cu6      1.0000 0.19794  0.33945  0.51253  Biso   1.000  Cu
  Cu7      1.0000 0.69794  0.16055  0.01253  Biso   1.000  Cu
  Cu8      1.0000 0.19794  0.66055  0.01253  Biso   1.000  Cu
  O1       1.0000 0.50000  0.86320  0.25000  Biso   1.000  O
  O2       1.0000 0.00000  0.36320  0.25000  Biso   1.000  O
  O3       1.0000 0.50000  0.13680  0.75000  Biso   1.000  O
  O4       1.0000 0.00000  0.63680  0.75000  Biso   1.000  O
  N1       1.0000 0.37927  0.98200  0.45926  Biso   1.000  N
  N2       1.0000 0.87927  0.48200  0.45926  Biso   1.000  N
  N3       1.0000 0.37927  0.01800  0.95926  Biso   1.000  N
  N4       1.0000 0.87927  0.51800  0.95926  Biso   1.000  N
  N5       1.0000 0.62073  0.01800  0.54074  Biso   1.000  N
  N6       1.0000 0.12073  0.51800  0.54074  Biso   1.000  N
  N7       1.0000 0.62073  0.98200  0.04074  Biso   1.000  N
  N8       1.0000 0.12073  0.48200  0.04074  Biso   1.000  N
  N9       1.0000 0.48670  0.14040  0.28560  Biso   1.000  N
  N10      1.0000 0.98670  0.64040  0.28560  Biso   1.000  N
  N11      1.0000 0.48670  0.85960  0.78560  Biso   1.000  N
  N12      1.0000 0.98670  0.35960  0.78560  Biso   1.000  N
  N13      1.0000 0.51330  0.85960  0.71440  Biso   1.000  N
  N14      1.0000 0.01330  0.35960  0.71440  Biso   1.000  N
  N15      1.0000 0.51330  0.14040  0.21440  Biso   1.000  N
  N16      1.0000 0.01330  0.64040  0.21440  Biso   1.000  N
  C1       1.0000 0.38790  0.81380  0.48930  Biso   1.000  C
  C2       1.0000 0.88790  0.31380  0.48930  Biso   1.000  C
  C3       1.0000 0.38790  0.18620  0.98930  Biso   1.000  C
  C4       1.0000 0.88790  0.68620  0.98930  Biso   1.000  C
  C5       1.0000 0.61210  0.18620  0.51070  Biso   1.000  C
  C6       1.0000 0.11210  0.68620  0.51070  Biso   1.000  C
  C7       1.0000 0.61210  0.81380  0.01070  Biso   1.000  C
  C8       1.0000 0.11210  0.31380  0.01070  Biso   1.000  C
  H1       1.0000 0.36580  0.77860  0.52940  Biso   1.000  H
  H2       1.0000 0.86580  0.27860  0.52940  Biso   1.000  H
  H3       1.0000 0.36580  0.22140  0.02940  Biso   1.000  H
  H4       1.0000 0.86580  0.72140  0.02940  Biso   1.000  H
  H5       1.0000 0.63420  0.22140  0.47060  Biso   1.000  H
  H6       1.0000 0.13420  0.72140  0.47060  Biso   1.000  H
  H7       1.0000 0.63420  0.77860  0.97060  Biso   1.000  H
  H8       1.0000 0.13420  0.27860  0.97060  Biso   1.000  H
  C9       1.0000 0.42820  0.69170  0.46310  Biso   1.000  C
  C10      1.0000 0.92820  0.19170  0.46310  Biso   1.000  C
  C11      1.0000 0.42820  0.30830  0.96310  Biso   1.000  C
  C12      1.0000 0.92820  0.80830  0.96310  Biso   1.000  C
  C13      1.0000 0.57180  0.30830  0.53690  Biso   1.000  C
  C14      1.0000 0.07180  0.80830  0.53690  Biso   1.000  C
  C15      1.0000 0.57180  0.69170  0.03690  Biso   1.000  C
  C16      1.0000 0.07180  0.19170  0.03690  Biso   1.000  C
  H9       1.0000 0.43390  0.57720  0.48650  Biso   1.000  H
  H10      1.0000 0.93390  0.07720  0.48650  Biso   1.000  H
  H11      1.0000 0.43390  0.42280  0.98650  Biso   1.000  H
  H12      1.0000 0.93390  0.92280  0.98650  Biso   1.000  H
  H13      1.0000 0.56610  0.42280  0.51350  Biso   1.000  H
  H14      1.0000 0.06610  0.92280  0.51350  Biso   1.000  H
  H15      1.0000 0.56610  0.57720  0.01350  Biso   1.000  H
  H16      1.0000 0.06610  0.07720  0.01350  Biso   1.000  H
  C17      1.0000 0.46000  0.73880  0.40250  Biso   1.000  C
  C18      1.0000 0.96000  0.23880  0.40250  Biso   1.000  C
  C19      1.0000 0.46000  0.26120  0.90250  Biso   1.000  C
  C20      1.0000 0.96000  0.76120  0.90250  Biso   1.000  C
  C21      1.0000 0.54000  0.26120  0.59750  Biso   1.000  C
  C22      1.0000 0.04000  0.76120  0.59750  Biso   1.000  C
  C23      1.0000 0.54000  0.73880  0.09750  Biso   1.000  C
  C24      1.0000 0.04000  0.23880  0.09750  Biso   1.000  C
  H17      1.0000 0.48710  0.65730  0.38380  Biso   1.000  H
  H18      1.0000 0.98710  0.15730  0.38380  Biso   1.000  H
  H19      1.0000 0.48710  0.34270  0.88380  Biso   1.000  H
  H20      1.0000 0.98710  0.84270  0.88380  Biso   1.000  H
  H21      1.0000 0.51290  0.34270  0.61620  Biso   1.000  H
  H22      1.0000 0.01290  0.84270  0.61620  Biso   1.000  H
  H23      1.0000 0.51290  0.65730  0.11620  Biso   1.000  H
  H24      1.0000 0.01290  0.15730  0.11620  Biso   1.000  H
  C25      1.0000 0.45055  0.91110  0.36996  Biso   1.000  C
  C26      1.0000 0.95055  0.41110  0.36996  Biso   1.000  C
  C27      1.0000 0.45055  0.08890  0.86996  Biso   1.000  C
  C28      1.0000 0.95055  0.58890  0.86996  Biso   1.000  C
  C29      1.0000 0.54945  0.08890  0.63004  Biso   1.000  C
  C30      1.0000 0.04945  0.58890  0.63004  Biso   1.000  C
  C31      1.0000 0.54945  0.91110  0.13004  Biso   1.000  C
  C32      1.0000 0.04945  0.41110  0.13004  Biso   1.000  C
  C33      1.0000 0.40977  0.02740  0.40000  Biso   1.000  C
  C34      1.0000 0.90977  0.52740  0.40000  Biso   1.000  C
  C35      1.0000 0.40977  0.97260  0.90000  Biso   1.000  C
  C36      1.0000 0.90977  0.47260  0.90000  Biso   1.000  C
  C37      1.0000 0.59023  0.97260  0.60000  Biso   1.000  C
  C38      1.0000 0.09023  0.47260  0.60000  Biso   1.000  C
  C39      1.0000 0.59023  0.02740  0.10000  Biso   1.000  C
  C40      1.0000 0.09023  0.52740  0.10000  Biso   1.000  C
  H25      1.0000 0.40340  0.14280  0.37770  Biso   1.000  H
  H26      1.0000 0.90340  0.64280  0.37770  Biso   1.000  H
  H27      1.0000 0.40340  0.85720  0.87770  Biso   1.000  H
  H28      1.0000 0.90340  0.35720  0.87770  Biso   1.000  H
  H29      1.0000 0.59660  0.85720  0.62230  Biso   1.000  H
  H30      1.0000 0.09660  0.35720  0.62230  Biso   1.000  H
  H31      1.0000 0.59660  0.14280  0.12230  Biso   1.000  H
  H32      1.0000 0.09660  0.64280  0.12230  Biso   1.000  H
  C41      1.0000 0.47983  0.97720  0.30310  Biso   1.000  C
  C42      1.0000 0.97983  0.47720  0.30310  Biso   1.000  C
  C43      1.0000 0.47983  0.02280  0.80310  Biso   1.000  C
  C44      1.0000 0.97983  0.52280  0.80310  Biso   1.000  C
  C45      1.0000 0.52017  0.02280  0.69690  Biso   1.000  C
  C46      1.0000 0.02017  0.52280  0.69690  Biso   1.000  C
  C47      1.0000 0.52017  0.97720  0.19690  Biso   1.000  C
  C48      1.0000 0.02017  0.47720  0.19690  Biso   1.000  C
  O5       1.0000 0.29837  0.34140  0.39718  Biso   1.000  O
  O6       1.0000 0.79837  0.84140  0.39718  Biso   1.000  O
  O7       1.0000 0.29837  0.65860  0.89718  Biso   1.000  O
  O8       1.0000 0.79837  0.15860  0.89718  Biso   1.000  O
  O9       1.0000 0.70163  0.65860  0.60282  Biso   1.000  O
  O10      1.0000 0.20163  0.15860  0.60282  Biso   1.000  O
  O11      1.0000 0.70163  0.34140  0.10282  Biso   1.000  O
  O12      1.0000 0.20163  0.84140  0.10282  Biso   1.000  O
  C49      1.0000 0.25310  0.46350  0.37890  Biso   1.000  C
  C50      1.0000 0.75310  0.96350  0.37890  Biso   1.000  C
  C51      1.0000 0.25310  0.53650  0.87890  Biso   1.000  C
  C52      1.0000 0.75310  0.03650  0.87890  Biso   1.000  C
  C53      1.0000 0.74690  0.53650  0.62110  Biso   1.000  C
  C54      1.0000 0.24690  0.03650  0.62110  Biso   1.000  C
  C55      1.0000 0.74690  0.46350  0.12110  Biso   1.000  C
  C56      1.0000 0.24690  0.96350  0.12110  Biso   1.000  C
  C57      1.0000 0.25220  0.59080  0.30650  Biso   1.000  C
  C58      1.0000 0.75220  0.09080  0.30650  Biso   1.000  C
  C59      1.0000 0.25220  0.40920  0.80650  Biso   1.000  C
  C60      1.0000 0.75220  0.90920  0.80650  Biso   1.000  C
  C61      1.0000 0.74780  0.40920  0.69350  Biso   1.000  C
  C62      1.0000 0.24780  0.90920  0.69350  Biso   1.000  C
  C63      1.0000 0.74780  0.59080  0.19350  Biso   1.000  C
  C64      1.0000 0.24780  0.09080  0.19350  Biso   1.000  C
  H33      1.0000 0.21530  0.67700  0.29960  Biso   1.000  H
  H34      1.0000 0.71530  0.17700  0.29960  Biso   1.000  H
  H35      1.0000 0.21530  0.32300  0.79960  Biso   1.000  H
  H36      1.0000 0.71530  0.82300  0.79960  Biso   1.000  H
  H37      1.0000 0.78470  0.32300  0.70040  Biso   1.000  H
  H38      1.0000 0.28470  0.82300  0.70040  Biso   1.000  H
  H39      1.0000 0.78470  0.67700  0.20040  Biso   1.000  H
  H40      1.0000 0.28470  0.17700  0.20040  Biso   1.000  H
  H41      1.0000 0.24370  0.52620  0.25250  Biso   1.000  H
  H42      1.0000 0.74370  0.02620  0.25250  Biso   1.000  H
  H43      1.0000 0.24370  0.47380  0.75250  Biso   1.000  H
  H44      1.0000 0.74370  0.97380  0.75250  Biso   1.000  H
  H45      1.0000 0.75630  0.47380  0.74750  Biso   1.000  H
  H46      1.0000 0.25630  0.97380  0.74750  Biso   1.000  H
  H47      1.0000 0.75630  0.52620  0.24750  Biso   1.000  H
  H48      1.0000 0.25630  0.02620  0.24750  Biso   1.000  H
  H49      1.0000 0.29690  0.65070  0.32100  Biso   1.000  H
  H50      1.0000 0.79690  0.15070  0.32100  Biso   1.000  H
  H51      1.0000 0.29690  0.34930  0.82100  Biso   1.000  H
  H52      1.0000 0.79690  0.84930  0.82100  Biso   1.000  H
  H53      1.0000 0.70310  0.34930  0.67900  Biso   1.000  H
  H54      1.0000 0.20310  0.84930  0.67900  Biso   1.000  H
  H55      1.0000 0.70310  0.65070  0.17900  Biso   1.000  H
  H56      1.0000 0.20310  0.15070  0.17900  Biso   1.000  H
  O13      1.0000 0.36633  0.31530  0.57622  Biso   1.000  O
  O14      1.0000 0.86633  0.81530  0.57622  Biso   1.000  O
  O15      1.0000 0.36633  0.68470  0.07622  Biso   1.000  O
  O16      1.0000 0.86633  0.18470  0.07622  Biso   1.000  O
  O17      1.0000 0.63367  0.68470  0.42378  Biso   1.000  O
  O18      1.0000 0.13367  0.18470  0.42378  Biso   1.000  O
  O19      1.0000 0.63367  0.31530  0.92378  Biso   1.000  O
  O20      1.0000 0.13367  0.81530  0.92378  Biso   1.000  O
  C65      1.0000 0.34130  0.43090  0.61490  Biso   1.000  C
  C66      1.0000 0.84130  0.93090  0.61490  Biso   1.000  C
  C67      1.0000 0.34130  0.56910  0.11490  Biso   1.000  C
  C68      1.0000 0.84130  0.06910  0.11490  Biso   1.000  C
  C69      1.0000 0.65870  0.56910  0.38510  Biso   1.000  C
  C70      1.0000 0.15870  0.06910  0.38510  Biso   1.000  C
  C71      1.0000 0.65870  0.43090  0.88510  Biso   1.000  C
  C72      1.0000 0.15870  0.93090  0.88510  Biso   1.000  C
  C73      1.0000 0.39310  0.53560  0.68710  Biso   1.000  C
  C74      1.0000 0.89310  0.03560  0.68710  Biso   1.000  C
  C75      1.0000 0.39310  0.46440  0.18710  Biso   1.000  C
  C76      1.0000 0.89310  0.96440  0.18710  Biso   1.000  C
  C77      1.0000 0.60690  0.46440  0.31290  Biso   1.000  C
  C78      1.0000 0.10690  0.96440  0.31290  Biso   1.000  C
  C79      1.0000 0.60690  0.53560  0.81290  Biso   1.000  C
  C80      1.0000 0.10690  0.03560  0.81290  Biso   1.000  C
  H57      1.0000 0.44030  0.49870  0.69280  Biso   1.000  H
  H58      1.0000 0.94030  0.99870  0.69280  Biso   1.000  H
  H59      1.0000 0.44030  0.50130  0.19280  Biso   1.000  H
  H60      1.0000 0.94030  0.00130  0.19280  Biso   1.000  H
  H61      1.0000 0.55970  0.50130  0.30720  Biso   1.000  H
  H62      1.0000 0.05970  0.00130  0.30720  Biso   1.000  H
  H63      1.0000 0.55970  0.49870  0.80720  Biso   1.000  H
  H64      1.0000 0.05970  0.99870  0.80720  Biso   1.000  H
  H65      1.0000 0.38420  0.51470  0.74160  Biso   1.000  H
  H66      1.0000 0.88420  0.01470  0.74160  Biso   1.000  H
  H67      1.0000 0.38420  0.48530  0.24160  Biso   1.000  H
  H68      1.0000 0.88420  0.98530  0.24160  Biso   1.000  H
  H69      1.0000 0.61580  0.48530  0.25840  Biso   1.000  H
  H70      1.0000 0.11580  0.98530  0.25840  Biso   1.000  H
  H71      1.0000 0.61580  0.51470  0.75840  Biso   1.000  H
  H72      1.0000 0.11580  0.01470  0.75840  Biso   1.000  H
  H73      1.0000 0.38780  0.66020  0.67320  Biso   1.000  H
  H74      1.0000 0.88780  0.16020  0.67320  Biso   1.000  H
  H75      1.0000 0.38780  0.33980  0.17320  Biso   1.000  H
  H76      1.0000 0.88780  0.83980  0.17320  Biso   1.000  H
  H77      1.0000 0.61220  0.33980  0.32680  Biso   1.000  H
  H78      1.0000 0.11220  0.83980  0.32680  Biso   1.000  H
  H79      1.0000 0.61220  0.66020  0.82680  Biso   1.000  H
  H80      1.0000 0.11220  0.16020  0.82680  Biso   1.000  H
  O21      1.0000 0.20796  0.48860  0.41672  Biso   1.000  O
  O22      1.0000 0.70796  0.98860  0.41672  Biso   1.000  O
  O23      1.0000 0.20796  0.51140  0.91672  Biso   1.000  O
  O24      1.0000 0.70796  0.01140  0.91672  Biso   1.000  O
  O25      1.0000 0.79204  0.51140  0.58328  Biso   1.000  O
  O26      1.0000 0.29204  0.01140  0.58328  Biso   1.000  O
  O27      1.0000 0.79204  0.48860  0.08328  Biso   1.000  O
  O28      1.0000 0.29204  0.98860  0.08328  Biso   1.000  O
  O29      1.0000 0.27732  0.46370  0.59842  Biso   1.000  O
  O30      1.0000 0.77732  0.96370  0.59842  Biso   1.000  O
  O31      1.0000 0.27732  0.53630  0.09842  Biso   1.000  O
  O32      1.0000 0.77732  0.03630  0.09842  Biso   1.000  O
  O33      1.0000 0.72268  0.53630  0.40158  Biso   1.000  O
  O34      1.0000 0.22268  0.03630  0.40158  Biso   1.000  O
  O35      1.0000 0.72268  0.46370  0.90158  Biso   1.000  O
  O36      1.0000 0.22268  0.96370  0.90158  Biso   1.000  O
