data_image0
_cell_length_a       7.078
_cell_length_b       11.565
_cell_length_c       12.561
_cell_angle_alpha    109.511
_cell_angle_beta     105.265
_cell_angle_gamma    94.042

_symmetry_space_group_name_H-M    "P 1"
_symmetry_int_tables_number       1

loop_
  _symmetry_equiv_pos_as_xyz
  'x, y, z'

loop_
  _atom_site_label
  _atom_site_occupancy
  _atom_site_fract_x
  _atom_site_fract_y
  _atom_site_fract_z
  _atom_site_thermal_displace_type
  _atom_site_B_iso_or_equiv
  _atom_site_type_symbol
  Cu1      1.0000 0.50000  0.50000  0.50000  Biso   1.000  Cu
  Cu2      1.0000 0.50000  0.50000  0.00000  Biso   1.000  Cu
  N1       1.0000 0.47080  0.65080  0.13160  Biso   1.000  N
  N2       1.0000 0.52920  0.34920  0.86840  Biso   1.000  N
  N3       1.0000 0.78150  0.93480  0.53680  Biso   1.000  N
  N4       1.0000 0.21850  0.06520  0.46320  Biso   1.000  N
  N5       1.0000 0.96920  0.94420  0.61590  Biso   1.000  N
  N6       1.0000 0.03080  0.05580  0.38410  Biso   1.000  N
  N7       1.0000 0.45910  0.67570  0.57780  Biso   1.000  N
  N8       1.0000 0.54090  0.32430  0.42220  Biso   1.000  N
  O1       1.0000 0.93400  0.79100  0.44640  Biso   1.000  O
  O2       1.0000 0.06600  0.20900  0.55360  Biso   1.000  O
  O3       1.0000 0.22850  0.42910  0.49080  Biso   1.000  O
  O4       1.0000 0.77150  0.57090  0.50920  Biso   1.000  O
  O5       1.0000 0.38620  0.50530  0.30610  Biso   1.000  O
  O6       1.0000 0.61380  0.49470  0.69390  Biso   1.000  O
  O7       1.0000 0.22970  0.42570  0.97800  Biso   1.000  O
  O8       1.0000 0.77030  0.57430  0.02200  Biso   1.000  O
  C1       1.0000 0.30080  0.69500  0.12460  Biso   1.000  C
  C2       1.0000 0.69920  0.30500  0.87540  Biso   1.000  C
  H1       1.0000 0.19730  0.66180  0.05370  Biso   1.000  H
  H2       1.0000 0.80270  0.33820  0.94630  Biso   1.000  H
  C3       1.0000 0.27330  0.78800  0.21870  Biso   1.000  C
  C4       1.0000 0.72670  0.21200  0.78130  Biso   1.000  C
  H3       1.0000 0.15240  0.81630  0.21120  Biso   1.000  H
  H4       1.0000 0.84760  0.18370  0.78880  Biso   1.000  H
  C5       1.0000 0.42420  0.83870  0.32300  Biso   1.000  C
  C6       1.0000 0.57580  0.16130  0.67700  Biso   1.000  C
  H5       1.0000 0.40790  0.90150  0.38750  Biso   1.000  H
  H6       1.0000 0.59210  0.09850  0.61250  Biso   1.000  H
  C7       1.0000 0.60270  0.79430  0.33070  Biso   1.000  C
  C8       1.0000 0.39730  0.20570  0.66930  Biso   1.000  C
  C9       1.0000 0.61980  0.70090  0.23370  Biso   1.000  C
  C10      1.0000 0.38020  0.29910  0.76630  Biso   1.000  C
  H7       1.0000 0.73930  0.67120  0.23900  Biso   1.000  H
  H8       1.0000 0.26070  0.32880  0.76100  Biso   1.000  H
  C11      1.0000 0.76740  0.84350  0.43970  Biso   1.000  C
  C12      1.0000 0.23260  0.15650  0.56030  Biso   1.000  C
  C13      1.0000 0.05100  0.85820  0.56020  Biso   1.000  C
  C14      1.0000 0.94900  0.14180  0.43980  Biso   1.000  C
  C15      1.0000 0.24300  0.82570  0.60140  Biso   1.000  C
  C16      1.0000 0.75700  0.17430  0.39860  Biso   1.000  C
  C17      1.0000 0.38290  0.90360  0.70690  Biso   1.000  C
  C18      1.0000 0.61710  0.09640  0.29310  Biso   1.000  C
  H9       1.0000 0.35610  0.97910  0.75160  Biso   1.000  H
  H10      1.0000 0.64390  0.02090  0.24840  Biso   1.000  H
  C19      1.0000 0.56000  0.86750  0.74370  Biso   1.000  C
  C20      1.0000 0.44000  0.13250  0.25630  Biso   1.000  C
  H11      1.0000 0.65740  0.91960  0.81240  Biso   1.000  H
  H12      1.0000 0.34260  0.08040  0.18760  Biso   1.000  H
  C21      1.0000 0.59380  0.75350  0.67870  Biso   1.000  C
  C22      1.0000 0.40620  0.24650  0.32130  Biso   1.000  C
  H13      1.0000 0.71430  0.72940  0.70550  Biso   1.000  H
  H14      1.0000 0.28570  0.27060  0.29450  Biso   1.000  H
  C23      1.0000 0.28910  0.71250  0.53890  Biso   1.000  C
  C24      1.0000 0.71090  0.28750  0.46110  Biso   1.000  C
  H15      1.0000 0.19750  0.66080  0.46740  Biso   1.000  H
  H16      1.0000 0.80250  0.33920  0.53260  Biso   1.000  H
  S1       1.0000 0.14699  0.59316  0.79442  Biso   1.000  S
  S2       1.0000 0.85301  0.40684  0.20558  Biso   1.000  S
  O9       1.0000 0.35330  0.58260  0.84420  Biso   1.000  O
  O10      1.0000 0.64670  0.41740  0.15580  Biso   1.000  O
  O11      1.0000 0.11490  0.72000  0.84420  Biso   1.000  O
  O12      1.0000 0.88510  0.28000  0.15580  Biso   1.000  O
  O13      1.0000 0.01430  0.51010  0.82040  Biso   1.000  O
  O14      1.0000 0.98570  0.48990  0.17960  Biso   1.000  O
  O15      1.0000 0.09650  0.55560  0.66450  Biso   1.000  O
  O16      1.0000 0.90350  0.44440  0.33550  Biso   1.000  O
  O17      1.0000 0.51200  0.11760  0.99130  Biso   1.000  O
  O18      1.0000 0.48800  0.88240  0.00870  Biso   1.000  O
  O19      1.0000 0.04590  0.97290  0.86770  Biso   1.000  O
  O20      1.0000 0.95410  0.02710  0.13230  Biso   1.000  O
  O21      1.0000 0.13450  0.21680  0.00800  Biso   1.000  O
  O22      1.0000 0.86550  0.78320  0.99200  Biso   1.000  O
  H17      1.0000 0.20100  0.46400  0.55950  Biso   1.000  H
  H18      1.0000 0.79900  0.53600  0.44050  Biso   1.000  H
  H19      1.0000 0.12800  0.42700  0.42800  Biso   1.000  H
  H20      1.0000 0.87200  0.57300  0.57200  Biso   1.000  H
  H21      1.0000 0.46000  0.46600  0.26200  Biso   1.000  H
  H22      1.0000 0.54000  0.53400  0.73800  Biso   1.000  H
  H23      1.0000 0.25900  0.50000  0.26400  Biso   1.000  H
  H24      1.0000 0.74100  0.50000  0.73600  Biso   1.000  H
  H25      1.0000 0.13900  0.44400  0.92400  Biso   1.000  H
  H26      1.0000 0.86100  0.55600  0.07600  Biso   1.000  H
  H27      1.0000 0.19600  0.35100  0.98100  Biso   1.000  H
  H28      1.0000 0.80400  0.64900  0.01900  Biso   1.000  H
