data_image0
_cell_length_a       9.665
_cell_length_b       7.128
_cell_length_c       9.925
_cell_angle_alpha    90
_cell_angle_beta     98.39
_cell_angle_gamma    90

_symmetry_space_group_name_H-M    "P 1"
_symmetry_int_tables_number       1

loop_
  _symmetry_equiv_pos_as_xyz
  'x, y, z'

loop_
  _atom_site_label
  _atom_site_occupancy
  _atom_site_fract_x
  _atom_site_fract_y
  _atom_site_fract_z
  _atom_site_thermal_displace_type
  _atom_site_B_iso_or_equiv
  _atom_site_type_symbol
  Cu1      1.0000 0.55964  0.45169  0.17550  Biso   1.000  Cu
  Cu2      1.0000 0.44036  0.95169  0.82450  Biso   1.000  Cu
  O1       1.0000 0.69640  0.39290  0.32580  Biso   1.000  O
  O2       1.0000 0.30360  0.89290  0.67420  Biso   1.000  O
  O3       1.0000 0.47760  0.61100  0.02680  Biso   1.000  O
  O4       1.0000 0.52240  0.11100  0.97320  Biso   1.000  O
  O5       1.0000 0.32190  0.82060  0.93590  Biso   1.000  O
  O6       1.0000 0.67810  0.32060  0.06410  Biso   1.000  O
  O7       1.0000 0.17670  0.53120  0.64430  Biso   1.000  O
  O8       1.0000 0.82330  0.03120  0.35570  Biso   1.000  O
  H1       1.0000 0.23030  0.62300  0.66960  Biso   1.000  H
  H2       1.0000 0.76970  0.12300  0.33040  Biso   1.000  H
  N1       1.0000 0.41430  0.51000  0.28390  Biso   1.000  N
  N2       1.0000 0.58570  0.01000  0.71610  Biso   1.000  N
  C1       1.0000 0.56890  0.50500  0.50080  Biso   1.000  C
  C2       1.0000 0.43110  0.00500  0.49920  Biso   1.000  C
  C3       1.0000 0.57200  0.54410  0.64330  Biso   1.000  C
  C4       1.0000 0.42800  0.04410  0.35670  Biso   1.000  C
  H3       1.0000 0.49060  0.58350  0.67460  Biso   1.000  H
  H4       1.0000 0.50940  0.08350  0.32540  Biso   1.000  H
  C5       1.0000 0.69200  0.52450  0.73370  Biso   1.000  C
  C6       1.0000 0.30800  0.02450  0.26630  Biso   1.000  C
  H5       1.0000 0.69270  0.54830  0.82600  Biso   1.000  H
  H6       1.0000 0.30730  0.04830  0.17400  Biso   1.000  H
  C7       1.0000 0.81320  0.46810  0.68470  Biso   1.000  C
  C8       1.0000 0.18680  0.96810  0.31530  Biso   1.000  C
  H7       1.0000 0.89600  0.46010  0.74530  Biso   1.000  H
  H8       1.0000 0.10400  0.96010  0.25470  Biso   1.000  H
  C9       1.0000 0.81540  0.42370  0.55020  Biso   1.000  C
  C10      1.0000 0.18460  0.92370  0.44980  Biso   1.000  C
  H9       1.0000 0.89790  0.38300  0.52180  Biso   1.000  H
  H10      1.0000 0.10210  0.88300  0.47820  Biso   1.000  H
  C11      1.0000 0.69060  0.44040  0.45410  Biso   1.000  C
  C12      1.0000 0.30940  0.94040  0.54590  Biso   1.000  C
  C13      1.0000 0.43730  0.52920  0.41570  Biso   1.000  C
  C14      1.0000 0.56270  0.02920  0.58430  Biso   1.000  C
  H11      1.0000 0.36120  0.56150  0.45840  Biso   1.000  H
  H12      1.0000 0.63880  0.06150  0.54160  Biso   1.000  H
  C15      1.0000 0.35640  0.68330  0.01430  Biso   1.000  C
  C16      1.0000 0.64360  0.18330  0.98570  Biso   1.000  C
  C17      1.0000 0.24590  0.60580  0.08770  Biso   1.000  C
  C18      1.0000 0.75410  0.10580  0.91230  Biso   1.000  C
  C19      1.0000 0.10650  0.62520  0.02510  Biso   1.000  C
  C20      1.0000 0.89350  0.12520  0.97490  Biso   1.000  C
  H13      1.0000 0.08710  0.68090  0.93970  Biso   1.000  H
  H14      1.0000 0.91290  0.18090  0.06030  Biso   1.000  H
  C21      1.0000 0.99800  0.56170  0.09000  Biso   1.000  C
  C22      1.0000 0.00200  0.06170  0.91000  Biso   1.000  C
  H15      1.0000 0.90600  0.57470  0.04790  Biso   1.000  H
  H16      1.0000 0.09400  0.07470  0.95210  Biso   1.000  H
  C23      1.0000 0.02590  0.47920  0.21680  Biso   1.000  C
  C24      1.0000 0.97410  0.97920  0.78320  Biso   1.000  C
  H17      1.0000 0.95250  0.43600  0.25950  Biso   1.000  H
  H18      1.0000 0.04750  0.93600  0.74050  Biso   1.000  H
  C25      1.0000 0.16250  0.46020  0.28120  Biso   1.000  C
  C26      1.0000 0.83750  0.96020  0.71880  Biso   1.000  C
  H19      1.0000 0.18040  0.40470  0.36680  Biso   1.000  H
  H20      1.0000 0.81960  0.90470  0.63320  Biso   1.000  H
  C27      1.0000 0.27300  0.52450  0.21760  Biso   1.000  C
  C28      1.0000 0.72700  0.02450  0.78240  Biso   1.000  C
  C29      1.0000 0.22650  0.37570  0.72620  Biso   1.000  C
  C30      1.0000 0.77350  0.87570  0.27380  Biso   1.000  C
  H21      1.0000 0.29250  0.31970  0.67480  Biso   1.000  H
  H22      1.0000 0.70750  0.81970  0.32520  Biso   1.000  H
  H23      1.0000 0.15790  0.27900  0.72940  Biso   1.000  H
  H24      1.0000 0.84210  0.77900  0.27060  Biso   1.000  H
  H25      1.0000 0.28080  0.39920  0.81350  Biso   1.000  H
  H26      1.0000 0.71920  0.89920  0.18650  Biso   1.000  H
