data_image0
_cell_length_a       9.682
_cell_length_b       7.1446
_cell_length_c       9.9315
_cell_angle_alpha    90
_cell_angle_beta     98.385
_cell_angle_gamma    90

_symmetry_space_group_name_H-M    "P 1"
_symmetry_int_tables_number       1

loop_
  _symmetry_equiv_pos_as_xyz
  'x, y, z'

loop_
  _atom_site_label
  _atom_site_occupancy
  _atom_site_fract_x
  _atom_site_fract_y
  _atom_site_fract_z
  _atom_site_thermal_displace_type
  _atom_site_B_iso_or_equiv
  _atom_site_type_symbol
  Cu1      1.0000 0.94039  0.82911  0.82461  Biso   1.000  Cu
  Cu2      1.0000 0.05961  0.32911  0.17539  Biso   1.000  Cu
  O1       1.0000 0.80350  0.88660  0.67380  Biso   1.000  O
  O2       1.0000 0.19650  0.38660  0.32620  Biso   1.000  O
  O3       1.0000 0.02190  0.67000  0.97320  Biso   1.000  O
  O4       1.0000 0.97810  0.17000  0.02680  Biso   1.000  O
  O5       1.0000 0.17800  0.45990  0.06410  Biso   1.000  O
  O6       1.0000 0.82200  0.95990  0.93590  Biso   1.000  O
  O7       1.0000 0.67680  0.24800  0.64530  Biso   1.000  O
  O8       1.0000 0.32320  0.74800  0.35470  Biso   1.000  O
  H1       1.0000 0.59500  0.23000  0.65300  Biso   1.000  H
  H2       1.0000 0.40500  0.73000  0.34700  Biso   1.000  H
  N1       1.0000 0.08610  0.77090  0.71610  Biso   1.000  N
  N2       1.0000 0.91390  0.27090  0.28390  Biso   1.000  N
  C1       1.0000 0.72640  0.40250  0.72410  Biso   1.000  C
  C2       1.0000 0.27360  0.90250  0.27590  Biso   1.000  C
  H3       1.0000 0.64910  0.47980  0.73980  Biso   1.000  H
  H4       1.0000 0.35090  0.97980  0.26020  Biso   1.000  H
  H5       1.0000 0.78850  0.47360  0.67700  Biso   1.000  H
  H6       1.0000 0.21150  0.97360  0.32300  Biso   1.000  H
  H7       1.0000 0.77540  0.36040  0.80970  Biso   1.000  H
  H8       1.0000 0.22460  0.86040  0.19030  Biso   1.000  H
  C3       1.0000 0.93130  0.77520  0.49940  Biso   1.000  C
  C4       1.0000 0.06870  0.27520  0.50060  Biso   1.000  C
  C5       1.0000 0.80950  0.84080  0.54640  Biso   1.000  C
  C6       1.0000 0.19050  0.34080  0.45360  Biso   1.000  C
  C7       1.0000 0.68560  0.85730  0.45020  Biso   1.000  C
  C8       1.0000 0.31440  0.35730  0.54980  Biso   1.000  C
  H9       1.0000 0.56620  0.91500  0.45480  Biso   1.000  H
  H10      1.0000 0.43380  0.41500  0.54520  Biso   1.000  H
  C9       1.0000 0.68780  0.81360  0.31500  Biso   1.000  C
  C10      1.0000 0.31220  0.31360  0.68500  Biso   1.000  C
  H11      1.0000 0.60530  0.80200  0.26390  Biso   1.000  H
  H12      1.0000 0.39470  0.30200  0.73610  Biso   1.000  H
  C11      1.0000 0.80740  0.75600  0.26710  Biso   1.000  C
  C12      1.0000 0.19260  0.25600  0.73290  Biso   1.000  C
  H13      1.0000 0.81160  0.73270  0.17670  Biso   1.000  H
  H14      1.0000 0.18840  0.23270  0.82330  Biso   1.000  H
  C13      1.0000 0.92950  0.73630  0.35840  Biso   1.000  C
  C14      1.0000 0.07050  0.23630  0.64160  Biso   1.000  C
  H15      1.0000 0.01720  0.69570  0.31220  Biso   1.000  H
  H16      1.0000 0.98280  0.19570  0.68780  Biso   1.000  H
  C15      1.0000 0.06260  0.75120  0.58500  Biso   1.000  C
  C16      1.0000 0.93740  0.25120  0.41500  Biso   1.000  C
  H17      1.0000 0.14300  0.71960  0.53480  Biso   1.000  H
  H18      1.0000 0.85700  0.21960  0.46520  Biso   1.000  H
  C17      1.0000 0.22690  0.75580  0.78270  Biso   1.000  C
  C18      1.0000 0.77310  0.25580  0.21730  Biso   1.000  C
  C19      1.0000 0.33840  0.81860  0.71860  Biso   1.000  C
  C20      1.0000 0.66160  0.31860  0.28140  Biso   1.000  C
  H19      1.0000 0.30650  0.87970  0.62890  Biso   1.000  H
  H20      1.0000 0.69350  0.37970  0.37110  Biso   1.000  H
  C21      1.0000 0.47430  0.80180  0.78250  Biso   1.000  C
  C22      1.0000 0.52570  0.30180  0.21750  Biso   1.000  C
  H21      1.0000 0.53830  0.84500  0.73960  Biso   1.000  H
  H22      1.0000 0.46170  0.34500  0.26040  Biso   1.000  H
  C23      1.0000 0.50280  0.71850  0.91010  Biso   1.000  C
  C24      1.0000 0.49720  0.21850  0.08990  Biso   1.000  C
  H23      1.0000 0.60400  0.69060  0.94650  Biso   1.000  H
  H24      1.0000 0.39600  0.19060  0.05350  Biso   1.000  H
  C25      1.0000 0.39300  0.65550  0.97530  Biso   1.000  C
  C26      1.0000 0.60700  0.15550  0.02470  Biso   1.000  C
  H25      1.0000 0.38460  0.58540  0.06720  Biso   1.000  H
  H26      1.0000 0.61540  0.08540  0.93280  Biso   1.000  H
  C27      1.0000 0.25420  0.67390  0.91300  Biso   1.000  C
  C28      1.0000 0.74580  0.17390  0.08700  Biso   1.000  C
  C29      1.0000 0.14290  0.59640  0.98620  Biso   1.000  C
  C30      1.0000 0.85710  0.09640  0.01380  Biso   1.000  C
