data_image0
_cell_length_a       9.5867
_cell_length_b       7.0487
_cell_length_c       9.8425
_cell_angle_alpha    90
_cell_angle_beta     98.256
_cell_angle_gamma    90

_symmetry_space_group_name_H-M    "P 1"
_symmetry_int_tables_number       1

loop_
  _symmetry_equiv_pos_as_xyz
  'x, y, z'

loop_
  _atom_site_label
  _atom_site_occupancy
  _atom_site_fract_x
  _atom_site_fract_y
  _atom_site_fract_z
  _atom_site_thermal_displace_type
  _atom_site_B_iso_or_equiv
  _atom_site_type_symbol
  Cu1      1.0000 0.44010  0.74661  0.82093  Biso   1.000  Cu
  Cu2      1.0000 0.55990  0.24661  0.17907  Biso   1.000  Cu
  N1       1.0000 0.58650  0.80690  0.71180  Biso   1.000  N
  N2       1.0000 0.41350  0.30690  0.28820  Biso   1.000  N
  O1       1.0000 0.30160  0.69190  0.66930  Biso   1.000  O
  O2       1.0000 0.69840  0.19190  0.33070  Biso   1.000  O
  O3       1.0000 0.68030  0.11230  0.06820  Biso   1.000  O
  O4       1.0000 0.31970  0.61230  0.93180  Biso   1.000  O
  O5       1.0000 0.51970  0.90800  0.97100  Biso   1.000  O
  O6       1.0000 0.48030  0.40800  0.02900  Biso   1.000  O
  C1       1.0000 0.56520  0.82650  0.58070  Biso   1.000  C
  C2       1.0000 0.43480  0.32650  0.41930  Biso   1.000  C
  H1       1.0000 0.64260  0.85920  0.53850  Biso   1.000  H
  H2       1.0000 0.35740  0.35920  0.46150  Biso   1.000  H
  C3       1.0000 0.43260  0.80250  0.49300  Biso   1.000  C
  C4       1.0000 0.56740  0.30250  0.50700  Biso   1.000  C
  C5       1.0000 0.30780  0.74000  0.54030  Biso   1.000  C
  C6       1.0000 0.69220  0.24000  0.45970  Biso   1.000  C
  C7       1.0000 0.18380  0.72500  0.44350  Biso   1.000  C
  C8       1.0000 0.81620  0.22500  0.55650  Biso   1.000  C
  H3       1.0000 0.10000  0.68700  0.47270  Biso   1.000  H
  H4       1.0000 0.90000  0.18700  0.52730  Biso   1.000  H
  C9       1.0000 0.18550  0.76560  0.30780  Biso   1.000  C
  C10      1.0000 0.81450  0.26560  0.69220  Biso   1.000  C
  H5       1.0000 0.10240  0.75500  0.24650  Biso   1.000  H
  H6       1.0000 0.89760  0.25500  0.75350  Biso   1.000  H
  C11      1.0000 0.30980  0.82290  0.25850  Biso   1.000  C
  C12      1.0000 0.69020  0.32290  0.74150  Biso   1.000  C
  H7       1.0000 0.31040  0.84780  0.16580  Biso   1.000  H
  H8       1.0000 0.68960  0.34780  0.83420  Biso   1.000  H
  C13      1.0000 0.42940  0.84080  0.35150  Biso   1.000  C
  C14      1.0000 0.57060  0.34080  0.64850  Biso   1.000  C
  H9       1.0000 0.51200  0.87960  0.32050  Biso   1.000  H
  H10      1.0000 0.48800  0.37960  0.67950  Biso   1.000  H
  C15      1.0000 0.72880  0.82120  0.77950  Biso   1.000  C
  C16      1.0000 0.27120  0.32120  0.22050  Biso   1.000  C
  C17      1.0000 0.75570  0.89940  0.91170  Biso   1.000  C
  C18      1.0000 0.24430  0.39940  0.08830  Biso   1.000  C
  C19      1.0000 0.89540  0.91640  0.97520  Biso   1.000  C
  C20      1.0000 0.10460  0.41640  0.02480  Biso   1.000  C
  H11      1.0000 0.91430  0.97030  0.06210  Biso   1.000  H
  H12      1.0000 0.08570  0.47030  0.93790  Biso   1.000  H
  C21      1.0000 0.00550  0.85440  0.91050  Biso   1.000  C
  C22      1.0000 0.99450  0.35440  0.08950  Biso   1.000  C
  H13      1.0000 0.09800  0.86740  0.95330  Biso   1.000  H
  H14      1.0000 0.90200  0.36740  0.04670  Biso   1.000  H
  C23      1.0000 0.97740  0.77260  0.78130  Biso   1.000  C
  C24      1.0000 0.02260  0.27260  0.21870  Biso   1.000  C
  H15      1.0000 0.05160  0.72990  0.73800  Biso   1.000  H
  H16      1.0000 0.94840  0.22990  0.26200  Biso   1.000  H
  C25      1.0000 0.83980  0.75360  0.71550  Biso   1.000  C
  C26      1.0000 0.16020  0.25360  0.28450  Biso   1.000  C
  H17      1.0000 0.82190  0.69640  0.62960  Biso   1.000  H
  H18      1.0000 0.17810  0.19640  0.37040  Biso   1.000  H
  C27      1.0000 0.64370  0.97830  0.98650  Biso   1.000  C
  C28      1.0000 0.35630  0.47830  0.01350  Biso   1.000  C
  O7       1.0000 0.21800  0.17340  0.71860  Biso   1.000  O
  O8       1.0000 0.78200  0.67340  0.28140  Biso   1.000  O
  H19      1.0000 0.17510  0.07870  0.68750  Biso   1.000  H
  H20      1.0000 0.82490  0.57870  0.31250  Biso   1.000  H
  C29      1.0000 0.17760  0.32640  0.63560  Biso   1.000  C
  C30      1.0000 0.82240  0.82640  0.36440  Biso   1.000  C
  H21      1.0000 0.07970  0.35310  0.63770  Biso   1.000  H
  H22      1.0000 0.92030  0.85310  0.36230  Biso   1.000  H
  H23      1.0000 0.19180  0.29810  0.54320  Biso   1.000  H
  H24      1.0000 0.80820  0.79810  0.45680  Biso   1.000  H
  H25      1.0000 0.23310  0.43510  0.66800  Biso   1.000  H
  H26      1.0000 0.76690  0.93510  0.33200  Biso   1.000  H
