data_image0
_cell_length_a       9.665
_cell_length_b       7.128
_cell_length_c       9.925
_cell_angle_alpha    90
_cell_angle_beta     98.39
_cell_angle_gamma    90

_symmetry_space_group_name_H-M    "P 1"
_symmetry_int_tables_number       1

loop_
  _symmetry_equiv_pos_as_xyz
  'x, y, z'

loop_
  _atom_site_label
  _atom_site_occupancy
  _atom_site_fract_x
  _atom_site_fract_y
  _atom_site_fract_z
  _atom_site_thermal_displace_type
  _atom_site_B_iso_or_equiv
  _atom_site_type_symbol
  Cu1      1.0000 0.44040  0.31392  0.32452  Biso   1.000  Cu
  Cu2      1.0000 0.55960  0.81392  0.67548  Biso   1.000  Cu
  O1       1.0000 0.30370  0.37830  0.17400  Biso   1.000  O
  O2       1.0000 0.69630  0.87830  0.82600  Biso   1.000  O
  O3       1.0000 0.52240  0.16100  0.47330  Biso   1.000  O
  O4       1.0000 0.47760  0.66100  0.52670  Biso   1.000  O
  O5       1.0000 0.67850  0.95140  0.56390  Biso   1.000  O
  O6       1.0000 0.32150  0.45140  0.43610  Biso   1.000  O
  O7       1.0000 0.78160  0.39670  0.78290  Biso   1.000  O
  O8       1.0000 0.21840  0.89670  0.21710  Biso   1.000  O
  N1       1.0000 0.58590  0.26180  0.21560  Biso   1.000  N
  N2       1.0000 0.41410  0.76180  0.78440  Biso   1.000  N
  C1       1.0000 0.43080  0.26710  0.99850  Biso   1.000  C
  C2       1.0000 0.56920  0.76710  0.00150  Biso   1.000  C
  C3       1.0000 0.42810  0.22850  0.85700  Biso   1.000  C
  C4       1.0000 0.57190  0.72850  0.14300  Biso   1.000  C
  H1       1.0000 0.50960  0.18950  0.82590  Biso   1.000  H
  H2       1.0000 0.49040  0.68950  0.17410  Biso   1.000  H
  C5       1.0000 0.30820  0.24760  0.76650  Biso   1.000  C
  C6       1.0000 0.69180  0.74760  0.23350  Biso   1.000  C
  H3       1.0000 0.30770  0.22310  0.67440  Biso   1.000  H
  H4       1.0000 0.69230  0.72310  0.32560  Biso   1.000  H
  C7       1.0000 0.18750  0.30410  0.81450  Biso   1.000  C
  C8       1.0000 0.81250  0.80410  0.18550  Biso   1.000  C
  H5       1.0000 0.10470  0.31270  0.75390  Biso   1.000  H
  H6       1.0000 0.89530  0.81270  0.24610  Biso   1.000  H
  C9       1.0000 0.18640  0.34780  0.94920  Biso   1.000  C
  C10      1.0000 0.81360  0.84780  0.05080  Biso   1.000  C
  H7       1.0000 0.10400  0.38930  0.97740  Biso   1.000  H
  H8       1.0000 0.89600  0.88930  0.02260  Biso   1.000  H
  C11      1.0000 0.30950  0.33050  0.04580  Biso   1.000  C
  C12      1.0000 0.69050  0.83050  0.95420  Biso   1.000  C
  C13      1.0000 0.56320  0.24210  0.08530  Biso   1.000  C
  C14      1.0000 0.43680  0.74210  0.91470  Biso   1.000  C
  H9       1.0000 0.63930  0.20850  0.04290  Biso   1.000  H
  H10      1.0000 0.36070  0.70850  0.95710  Biso   1.000  H
  C15      1.0000 0.64360  0.08820  0.48560  Biso   1.000  C
  C16      1.0000 0.35640  0.58820  0.51440  Biso   1.000  C
  C17      1.0000 0.75430  0.16610  0.41240  Biso   1.000  C
  C18      1.0000 0.24570  0.66610  0.58760  Biso   1.000  C
  C19      1.0000 0.89310  0.14730  0.47490  Biso   1.000  C
  C20      1.0000 0.10690  0.64730  0.52510  Biso   1.000  C
  H11      1.0000 0.91220  0.09210  0.56050  Biso   1.000  H
  H12      1.0000 0.08780  0.59210  0.43950  Biso   1.000  H
  C21      1.0000 0.00130  0.20970  0.41090  Biso   1.000  C
  C22      1.0000 0.99870  0.70970  0.58910  Biso   1.000  C
  H13      1.0000 0.09320  0.19510  0.45300  Biso   1.000  H
  H14      1.0000 0.90680  0.69510  0.54700  Biso   1.000  H
  C23      1.0000 0.97410  0.29420  0.28410  Biso   1.000  C
  C24      1.0000 0.02590  0.79420  0.71590  Biso   1.000  C
  H15      1.0000 0.04770  0.33870  0.24220  Biso   1.000  H
  H16      1.0000 0.95230  0.83870  0.75780  Biso   1.000  H
  C25      1.0000 0.83710  0.31270  0.21920  Biso   1.000  C
  C26      1.0000 0.16290  0.81270  0.78080  Biso   1.000  C
  H17      1.0000 0.81910  0.36880  0.13390  Biso   1.000  H
  H18      1.0000 0.18090  0.86880  0.86610  Biso   1.000  H
  C27      1.0000 0.72730  0.24730  0.28240  Biso   1.000  C
  C28      1.0000 0.27270  0.74730  0.71760  Biso   1.000  C
  C29      1.0000 0.81960  0.24060  0.86030  Biso   1.000  C
  C30      1.0000 0.18040  0.74060  0.13970  Biso   1.000  C
