data_image0
_cell_length_a       7.996
_cell_length_b       20.466
_cell_length_c       10.162
_cell_angle_alpha    90
_cell_angle_beta     99.51
_cell_angle_gamma    90

_symmetry_space_group_name_H-M    "P 1"
_symmetry_int_tables_number       1

loop_
  _symmetry_equiv_pos_as_xyz
  'x, y, z'

loop_
  _atom_site_label
  _atom_site_occupancy
  _atom_site_fract_x
  _atom_site_fract_y
  _atom_site_fract_z
  _atom_site_thermal_displace_type
  _atom_site_B_iso_or_equiv
  _atom_site_type_symbol
  Cu1      1.0000 0.01144  0.42297  0.59761  Biso   1.000  Cu
  Cu2      1.0000 0.98856  0.92297  0.90239  Biso   1.000  Cu
  Cu3      1.0000 0.98856  0.57703  0.40239  Biso   1.000  Cu
  Cu4      1.0000 0.01144  0.07703  0.09761  Biso   1.000  Cu
  Cl1      1.0000 0.18331  0.53599  0.57991  Biso   1.000  Cl
  Cl2      1.0000 0.81669  0.03599  0.92009  Biso   1.000  Cl
  Cl3      1.0000 0.81669  0.46401  0.42009  Biso   1.000  Cl
  Cl4      1.0000 0.18331  0.96401  0.07991  Biso   1.000  Cl
  Cl5      1.0000 0.19786  0.38124  0.77144  Biso   1.000  Cl
  Cl6      1.0000 0.80214  0.88124  0.72856  Biso   1.000  Cl
  Cl7      1.0000 0.80214  0.61876  0.22856  Biso   1.000  Cl
  Cl8      1.0000 0.19786  0.11876  0.27144  Biso   1.000  Cl
  N1       1.0000 0.12960  0.12644  0.96900  Biso   1.000  N
  N2       1.0000 0.87040  0.62644  0.53100  Biso   1.000  N
  N3       1.0000 0.87040  0.87356  0.03100  Biso   1.000  N
  N4       1.0000 0.12960  0.37356  0.46900  Biso   1.000  N
  N5       1.0000 0.11030  0.18963  0.93260  Biso   1.000  N
  N6       1.0000 0.88970  0.68963  0.56740  Biso   1.000  N
  N7       1.0000 0.88970  0.81037  0.06740  Biso   1.000  N
  N8       1.0000 0.11030  0.31037  0.43260  Biso   1.000  N
  N9       1.0000 0.70480  0.44129  0.73470  Biso   1.000  N
  N10      1.0000 0.29520  0.94129  0.76530  Biso   1.000  N
  N11      1.0000 0.29520  0.55871  0.26530  Biso   1.000  N
  N12      1.0000 0.70480  0.05871  0.23470  Biso   1.000  N
  N13      1.0000 0.86940  0.45665  0.72790  Biso   1.000  N
  N14      1.0000 0.13060  0.95665  0.77210  Biso   1.000  N
  N15      1.0000 0.13060  0.54335  0.27210  Biso   1.000  N
  N16      1.0000 0.86940  0.04335  0.22790  Biso   1.000  N
  C1       1.0000 0.25560  0.10412  0.91170  Biso   1.000  C
  C2       1.0000 0.74440  0.60412  0.58830  Biso   1.000  C
  C3       1.0000 0.74440  0.89588  0.08830  Biso   1.000  C
  C4       1.0000 0.25560  0.39588  0.41170  Biso   1.000  C
  C5       1.0000 0.31600  0.15327  0.83780  Biso   1.000  C
  C6       1.0000 0.68400  0.65327  0.66220  Biso   1.000  C
  C7       1.0000 0.68400  0.84673  0.16220  Biso   1.000  C
  C8       1.0000 0.31600  0.34673  0.33780  Biso   1.000  C
  C9       1.0000 0.22070  0.20620  0.85260  Biso   1.000  C
  C10      1.0000 0.77930  0.70620  0.64740  Biso   1.000  C
  C11      1.0000 0.77930  0.79380  0.14740  Biso   1.000  C
  C12      1.0000 0.22070  0.29380  0.35260  Biso   1.000  C
  C13      1.0000 0.97210  0.23054  0.96590  Biso   1.000  C
  C14      1.0000 0.02790  0.73054  0.53410  Biso   1.000  C
  C15      1.0000 0.02790  0.76946  0.03410  Biso   1.000  C
  C16      1.0000 0.97210  0.26946  0.46590  Biso   1.000  C
  C17      1.0000 0.84160  0.24460  0.84400  Biso   1.000  C
  C18      1.0000 0.15840  0.74460  0.65600  Biso   1.000  C
  C19      1.0000 0.15840  0.75540  0.15600  Biso   1.000  C
  C20      1.0000 0.84160  0.25540  0.34400  Biso   1.000  C
  C21      1.0000 0.76880  0.19399  0.76460  Biso   1.000  C
  C22      1.0000 0.23120  0.69399  0.73540  Biso   1.000  C
  C23      1.0000 0.23120  0.80601  0.23540  Biso   1.000  C
  C24      1.0000 0.76880  0.30601  0.26460  Biso   1.000  C
  C25      1.0000 0.64970  0.20417  0.65190  Biso   1.000  C
  C26      1.0000 0.35030  0.70417  0.84810  Biso   1.000  C
  C27      1.0000 0.35030  0.79583  0.34810  Biso   1.000  C
  C28      1.0000 0.64970  0.29583  0.15190  Biso   1.000  C
  C29      1.0000 0.56790  0.14920  0.56730  Biso   1.000  C
  C30      1.0000 0.43210  0.64920  0.93270  Biso   1.000  C
  C31      1.0000 0.43210  0.85080  0.43270  Biso   1.000  C
  C32      1.0000 0.56790  0.35080  0.06730  Biso   1.000  C
  C33      1.0000 0.60090  0.27045  0.61790  Biso   1.000  C
  C34      1.0000 0.39910  0.77045  0.88210  Biso   1.000  C
  C35      1.0000 0.39910  0.72955  0.38210  Biso   1.000  C
  C36      1.0000 0.60090  0.22955  0.11790  Biso   1.000  C
  C37      1.0000 0.67240  0.32049  0.69790  Biso   1.000  C
  C38      1.0000 0.32760  0.82049  0.80210  Biso   1.000  C
  C39      1.0000 0.32760  0.67951  0.30210  Biso   1.000  C
  C40      1.0000 0.67240  0.17951  0.19790  Biso   1.000  C
  C41      1.0000 0.79710  0.30855  0.81290  Biso   1.000  C
  C42      1.0000 0.20290  0.80855  0.68710  Biso   1.000  C
  C43      1.0000 0.20290  0.69145  0.18710  Biso   1.000  C
  C44      1.0000 0.79710  0.19145  0.31290  Biso   1.000  C
  C45      1.0000 0.61530  0.38912  0.65720  Biso   1.000  C
  C46      1.0000 0.38470  0.88912  0.84280  Biso   1.000  C
  C47      1.0000 0.38470  0.61088  0.34280  Biso   1.000  C
  C48      1.0000 0.61530  0.11088  0.15720  Biso   1.000  C
  C49      1.0000 0.34960  0.97645  0.66890  Biso   1.000  C
  C50      1.0000 0.65040  0.47645  0.83110  Biso   1.000  C
  C51      1.0000 0.65040  0.02355  0.33110  Biso   1.000  C
  C52      1.0000 0.34960  0.52355  0.16890  Biso   1.000  C
  C53      1.0000 0.22110  0.01571  0.61120  Biso   1.000  C
  C54      1.0000 0.77890  0.51571  0.88880  Biso   1.000  C
  C55      1.0000 0.77890  0.98429  0.38880  Biso   1.000  C
  C56      1.0000 0.22110  0.48429  0.11120  Biso   1.000  C
  C57      1.0000 0.08630  0.00162  0.67870  Biso   1.000  C
  C58      1.0000 0.91370  0.50162  0.82130  Biso   1.000  C
  C59      1.0000 0.91370  0.99838  0.32130  Biso   1.000  C
  C60      1.0000 0.08630  0.49838  0.17870  Biso   1.000  C
