data_image0
_cell_length_a       6.2757
_cell_length_b       7.3745
_cell_length_c       11.9163
_cell_angle_alpha    86.209
_cell_angle_beta     81.416
_cell_angle_gamma    73.824

_symmetry_space_group_name_H-M    "P 1"
_symmetry_int_tables_number       1

loop_
  _symmetry_equiv_pos_as_xyz
  'x, y, z'

loop_
  _atom_site_label
  _atom_site_occupancy
  _atom_site_fract_x
  _atom_site_fract_y
  _atom_site_fract_z
  _atom_site_thermal_displace_type
  _atom_site_B_iso_or_equiv
  _atom_site_type_symbol
  Cu1      1.0000 0.04777  0.67407  0.12056  Biso   1.000  Cu
  Cu2      1.0000 0.95223  0.32593  0.87944  Biso   1.000  Cu
  Cu3      1.0000 0.50000  0.50000  0.00000  Biso   1.000  Cu
  Cu4      1.0000 0.24021  0.91175  0.91088  Biso   1.000  Cu
  Cu5      1.0000 0.75979  0.08825  0.08912  Biso   1.000  Cu
  As1      1.0000 0.21160  0.21692  0.13661  Biso   1.000  As
  As2      1.0000 0.78840  0.78308  0.86339  Biso   1.000  As
  S1       1.0000 0.68912  0.49000  0.26480  Biso   1.000  S
  S2       1.0000 0.31088  0.51000  0.73520  Biso   1.000  S
  C1       1.0000 0.09900  0.23720  0.29690  Biso   1.000  C
  C2       1.0000 0.90100  0.76280  0.70310  Biso   1.000  C
  C3       1.0000 0.89560  0.35360  0.34580  Biso   1.000  C
  C4       1.0000 0.10440  0.64640  0.65420  Biso   1.000  C
  C5       1.0000 0.83900  0.35880  0.46300  Biso   1.000  C
  C6       1.0000 0.16100  0.64120  0.53700  Biso   1.000  C
  H1       1.0000 0.70290  0.43650  0.49540  Biso   1.000  H
  H2       1.0000 0.29710  0.56350  0.50460  Biso   1.000  H
  C7       1.0000 0.98800  0.24670  0.53120  Biso   1.000  C
  C8       1.0000 0.01200  0.75330  0.46880  Biso   1.000  C
  H3       1.0000 0.95030  0.24900  0.60970  Biso   1.000  H
  H4       1.0000 0.04970  0.75100  0.39030  Biso   1.000  H
  C9       1.0000 0.19080  0.13210  0.48450  Biso   1.000  C
  C10      1.0000 0.80920  0.86790  0.51550  Biso   1.000  C
  H5       1.0000 0.28960  0.05840  0.53120  Biso   1.000  H
  H6       1.0000 0.71040  0.94160  0.46880  Biso   1.000  H
  C11      1.0000 0.24670  0.12710  0.36760  Biso   1.000  C
  C12      1.0000 0.75330  0.87290  0.63240  Biso   1.000  C
  H7       1.0000 0.38380  0.04990  0.33590  Biso   1.000  H
  H8       1.0000 0.61620  0.95010  0.66410  Biso   1.000  H
  O1       1.0000 0.24870  0.42780  0.08190  Biso   1.000  O
  O2       1.0000 0.75130  0.57220  0.91810  Biso   1.000  O
  O3       1.0000 0.04520  0.16000  0.05430  Biso   1.000  O
  O4       1.0000 0.95480  0.84000  0.94570  Biso   1.000  O
  O5       1.0000 0.45620  0.04940  0.12520  Biso   1.000  O
  O6       1.0000 0.54380  0.95060  0.87480  Biso   1.000  O
  O7       1.0000 0.81270  0.54220  0.15810  Biso   1.000  O
  O8       1.0000 0.18730  0.45780  0.84190  Biso   1.000  O
  O9       1.0000 0.56700  0.36320  0.23770  Biso   1.000  O
  O10      1.0000 0.43300  0.63680  0.76230  Biso   1.000  O
  O11      1.0000 0.56220  0.65140  0.32880  Biso   1.000  O
  O12      1.0000 0.43780  0.34860  0.67120  Biso   1.000  O
  O13      1.0000 0.67990  0.25020  0.95360  Biso   1.000  O
  O14      1.0000 0.32010  0.74980  0.04640  Biso   1.000  O
  H9       1.0000 0.62150  0.20030  0.90830  Biso   1.000  H
  H10      1.0000 0.37850  0.79970  0.09170  Biso   1.000  H
  O15      1.0000 0.88150  0.89790  0.19710  Biso   1.000  O
  O16      1.0000 0.11850  0.10210  0.80290  Biso   1.000  O
  H11      1.0000 0.77590  0.87500  0.24430  Biso   1.000  H
  H12      1.0000 0.22410  0.12500  0.75570  Biso   1.000  H
