data_image0
_cell_length_a       7.182
_cell_length_b       10.104
_cell_length_c       16.048
_cell_angle_alpha    102.4
_cell_angle_beta     92.44
_cell_angle_gamma    90.04

_symmetry_space_group_name_H-M    "P 1"
_symmetry_int_tables_number       1

loop_
  _symmetry_equiv_pos_as_xyz
  'x, y, z'

loop_
  _atom_site_label
  _atom_site_occupancy
  _atom_site_fract_x
  _atom_site_fract_y
  _atom_site_fract_z
  _atom_site_thermal_displace_type
  _atom_site_B_iso_or_equiv
  _atom_site_type_symbol
  Cu1      1.0000 0.17244  0.27516  0.29738  Biso   1.000  Cu
  Cu2      1.0000 0.82756  0.72484  0.70262  Biso   1.000  Cu
  As1      1.0000 0.91869  0.01596  0.22195  Biso   1.000  As
  As2      1.0000 0.08131  0.98404  0.77805  Biso   1.000  As
  S1       1.0000 0.66610  0.31790  0.25374  Biso   1.000  S
  S2       1.0000 0.33390  0.68210  0.74626  Biso   1.000  S
  N1       1.0000 0.19150  0.25120  0.41970  Biso   1.000  N
  N2       1.0000 0.80850  0.74880  0.58030  Biso   1.000  N
  N3       1.0000 0.21120  0.46190  0.35590  Biso   1.000  N
  N4       1.0000 0.78880  0.53810  0.64410  Biso   1.000  N
  N5       1.0000 0.17030  0.36720  0.19680  Biso   1.000  N
  N6       1.0000 0.82970  0.63280  0.80320  Biso   1.000  N
  C1       1.0000 0.78170  0.09060  0.13460  Biso   1.000  C
  C2       1.0000 0.21830  0.90940  0.86540  Biso   1.000  C
  C3       1.0000 0.69020  0.21550  0.14940  Biso   1.000  C
  C4       1.0000 0.30980  0.78450  0.85060  Biso   1.000  C
  C5       1.0000 0.61640  0.26380  0.08060  Biso   1.000  C
  C6       1.0000 0.38360  0.73620  0.91940  Biso   1.000  C
  H1       1.0000 0.55990  0.34830  0.09030  Biso   1.000  H
  H2       1.0000 0.44010  0.65170  0.90970  Biso   1.000  H
  C7       1.0000 0.62460  0.19010  0.99860  Biso   1.000  C
  C8       1.0000 0.37540  0.80990  0.00140  Biso   1.000  C
  H3       1.0000 0.57190  0.22310  0.95320  Biso   1.000  H
  H4       1.0000 0.42810  0.77690  0.04680  Biso   1.000  H
  C9       1.0000 0.71340  0.06410  0.98390  Biso   1.000  C
  C10      1.0000 0.28660  0.93590  0.01610  Biso   1.000  C
  H5       1.0000 0.71970  0.01280  0.92860  Biso   1.000  H
  H6       1.0000 0.28030  0.98720  0.07140  Biso   1.000  H
  C11      1.0000 0.79100  0.01670  0.05130  Biso   1.000  C
  C12      1.0000 0.20900  0.98330  0.94870  Biso   1.000  C
  H7       1.0000 0.85100  0.93360  0.04100  Biso   1.000  H
  H8       1.0000 0.14900  0.06640  0.95900  Biso   1.000  H
  C13      1.0000 0.18320  0.13410  0.44700  Biso   1.000  C
  C14      1.0000 0.81680  0.86590  0.55300  Biso   1.000  C
  H9       1.0000 0.16850  0.05330  0.40660  Biso   1.000  H
  H10      1.0000 0.83150  0.94670  0.59340  Biso   1.000  H
  C15      1.0000 0.19590  0.12850  0.53440  Biso   1.000  C
  C16      1.0000 0.80410  0.87150  0.46560  Biso   1.000  C
  H11      1.0000 0.18770  0.04670  0.55170  Biso   1.000  H
  H12      1.0000 0.81230  0.95330  0.44830  Biso   1.000  H
  C17      1.0000 0.22050  0.24800  0.59180  Biso   1.000  C
  C18      1.0000 0.77950  0.75200  0.40820  Biso   1.000  C
  H13      1.0000 0.22810  0.24820  0.64990  Biso   1.000  H
  H14      1.0000 0.77190  0.75180  0.35010  Biso   1.000  H
  C19      1.0000 0.23460  0.36950  0.56560  Biso   1.000  C
  C20      1.0000 0.76540  0.63050  0.43440  Biso   1.000  C
  H15      1.0000 0.25280  0.45070  0.60540  Biso   1.000  H
  H16      1.0000 0.74720  0.54930  0.39460  Biso   1.000  H
  C21      1.0000 0.22110  0.36750  0.47960  Biso   1.000  C
  C22      1.0000 0.77890  0.63250  0.52040  Biso   1.000  C
  C23      1.0000 0.23270  0.48840  0.44210  Biso   1.000  C
  C24      1.0000 0.76730  0.51160  0.55790  Biso   1.000  C
  C25      1.0000 0.26960  0.62320  0.48730  Biso   1.000  C
  C26      1.0000 0.73040  0.37680  0.51270  Biso   1.000  C
  H17      1.0000 0.28680  0.64380  0.54640  Biso   1.000  H
  H18      1.0000 0.71320  0.35620  0.45360  Biso   1.000  H
  C27      1.0000 0.27940  0.72330  0.44050  Biso   1.000  C
  C28      1.0000 0.72060  0.27670  0.55950  Biso   1.000  C
  H19      1.0000 0.30130  0.81270  0.46900  Biso   1.000  H
  H20      1.0000 0.69870  0.18730  0.53100  Biso   1.000  H
  C29      1.0000 0.25730  0.69340  0.35240  Biso   1.000  C
  C30      1.0000 0.74270  0.30660  0.64760  Biso   1.000  C
  H21      1.0000 0.26560  0.76090  0.32140  Biso   1.000  H
  H22      1.0000 0.73440  0.23910  0.67860  Biso   1.000  H
  C31      1.0000 0.22250  0.55960  0.31190  Biso   1.000  C
  C32      1.0000 0.77750  0.44040  0.68810  Biso   1.000  C
  C33      1.0000 0.19990  0.50530  0.21840  Biso   1.000  C
  C34      1.0000 0.80010  0.49470  0.78160  Biso   1.000  C
  C35      1.0000 0.21080  0.58090  0.15770  Biso   1.000  C
  C36      1.0000 0.78920  0.41910  0.84230  Biso   1.000  C
  H23      1.0000 0.23320  0.67370  0.17370  Biso   1.000  H
  H24      1.0000 0.76680  0.32630  0.82630  Biso   1.000  H
  C37      1.0000 0.18800  0.51800  0.07150  Biso   1.000  C
  C38      1.0000 0.81200  0.48200  0.92850  Biso   1.000  C
  H25      1.0000 0.18880  0.56890  0.02970  Biso   1.000  H
  H26      1.0000 0.81120  0.43110  0.97030  Biso   1.000  H
  C39      1.0000 0.16440  0.37940  0.04920  Biso   1.000  C
  C40      1.0000 0.83560  0.62060  0.95080  Biso   1.000  C
  H27      1.0000 0.15800  0.33470  0.99210  Biso   1.000  H
  H28      1.0000 0.84200  0.66530  0.00790  Biso   1.000  H
  C41      1.0000 0.15030  0.30860  0.11250  Biso   1.000  C
  C42      1.0000 0.84970  0.69140  0.88750  Biso   1.000  C
  H29      1.0000 0.12590  0.21590  0.09700  Biso   1.000  H
  H30      1.0000 0.87410  0.78410  0.90300  Biso   1.000  H
  O1       1.0000 0.80380  0.00720  0.30810  Biso   1.000  O
  O2       1.0000 0.19620  0.99280  0.69190  Biso   1.000  O
  O3       1.0000 0.13190  0.08930  0.23900  Biso   1.000  O
  O4       1.0000 0.86810  0.91070  0.76100  Biso   1.000  O
  O5       1.0000 0.96960  0.85330  0.16710  Biso   1.000  O
  O6       1.0000 0.03040  0.14670  0.83290  Biso   1.000  O
  H31      1.0000 0.88040  0.80300  0.16780  Biso   1.000  H
  H32      1.0000 0.11960  0.19700  0.83220  Biso   1.000  H
  O7       1.0000 0.62680  0.45320  0.24160  Biso   1.000  O
  O8       1.0000 0.37320  0.54680  0.75840  Biso   1.000  O
  O9       1.0000 0.84060  0.30600  0.30160  Biso   1.000  O
  O10      1.0000 0.15940  0.69400  0.69840  Biso   1.000  O
  O11      1.0000 0.51110  0.25830  0.28860  Biso   1.000  O
  O12      1.0000 0.48890  0.74170  0.71140  Biso   1.000  O
  O13      1.0000 0.44460  0.91650  0.25380  Biso   1.000  O
  O14      1.0000 0.55540  0.08350  0.74620  Biso   1.000  O
  H33      1.0000 0.46600  0.85540  0.20990  Biso   1.000  H
  H34      1.0000 0.53400  0.14460  0.79010  Biso   1.000  H
  H35      1.0000 0.53000  0.97570  0.27070  Biso   1.000  H
  H36      1.0000 0.47000  0.02430  0.72930  Biso   1.000  H
  O15      1.0000 0.66530  0.69260  0.17200  Biso   1.000  O
  O16      1.0000 0.33470  0.30740  0.82800  Biso   1.000  O
  H37      1.0000 0.68390  0.63360  0.20200  Biso   1.000  H
  H38      1.0000 0.31610  0.36640  0.79800  Biso   1.000  H
  H39      1.0000 0.62100  0.65530  0.12260  Biso   1.000  H
  H40      1.0000 0.37900  0.34470  0.87740  Biso   1.000  H
