data_image0
_cell_length_a       11.279
_cell_length_b       12.238
_cell_length_c       16.753
_cell_angle_alpha    90
_cell_angle_beta     108.82
_cell_angle_gamma    90

_symmetry_space_group_name_H-M    "P 1"
_symmetry_int_tables_number       1

loop_
  _symmetry_equiv_pos_as_xyz
  'x, y, z'

loop_
  _atom_site_label
  _atom_site_occupancy
  _atom_site_fract_x
  _atom_site_fract_y
  _atom_site_fract_z
  _atom_site_thermal_displace_type
  _atom_site_B_iso_or_equiv
  _atom_site_type_symbol
  Cu1      1.0000 0.30393  0.08104  0.02760  Biso   1.000  Cu
  Cu2      1.0000 0.80393  0.41896  0.52760  Biso   1.000  Cu
  Cu3      1.0000 0.69607  0.91896  0.97240  Biso   1.000  Cu
  Cu4      1.0000 0.19607  0.58104  0.47240  Biso   1.000  Cu
  Cu5      1.0000 0.60836  0.75338  0.20708  Biso   1.000  Cu
  Cu6      1.0000 0.10836  0.74662  0.70708  Biso   1.000  Cu
  Cu7      1.0000 0.39164  0.24662  0.79292  Biso   1.000  Cu
  Cu8      1.0000 0.89164  0.25338  0.29292  Biso   1.000  Cu
  O1       1.0000 0.24510  0.25270  0.04360  Biso   1.000  O
  O2       1.0000 0.74510  0.24730  0.54360  Biso   1.000  O
  O3       1.0000 0.75490  0.74730  0.95640  Biso   1.000  O
  O4       1.0000 0.25490  0.75270  0.45640  Biso   1.000  O
  H1       1.0000 0.23790  0.30000  0.99790  Biso   1.000  H
  H2       1.0000 0.73790  0.20000  0.49790  Biso   1.000  H
  H3       1.0000 0.76210  0.70000  0.00210  Biso   1.000  H
  H4       1.0000 0.26210  0.80000  0.50210  Biso   1.000  H
  H5       1.0000 0.26160  0.30060  0.07960  Biso   1.000  H
  H6       1.0000 0.76160  0.19940  0.57960  Biso   1.000  H
  H7       1.0000 0.73840  0.69940  0.92040  Biso   1.000  H
  H8       1.0000 0.23840  0.80060  0.42040  Biso   1.000  H
  O5       1.0000 0.47500  0.12230  0.02878  Biso   1.000  O
  O6       1.0000 0.97500  0.37770  0.52878  Biso   1.000  O
  O7       1.0000 0.52500  0.87770  0.97122  Biso   1.000  O
  O8       1.0000 0.02500  0.62230  0.47122  Biso   1.000  O
  H9       1.0000 0.48930  0.12000  0.97380  Biso   1.000  H
  H10      1.0000 0.98930  0.38000  0.47380  Biso   1.000  H
  H11      1.0000 0.51070  0.88000  0.02620  Biso   1.000  H
  H12      1.0000 0.01070  0.62000  0.52620  Biso   1.000  H
  H13      1.0000 0.53930  0.10020  0.06430  Biso   1.000  H
  H14      1.0000 0.03930  0.39980  0.56430  Biso   1.000  H
  H15      1.0000 0.46070  0.89980  0.93570  Biso   1.000  H
  H16      1.0000 0.96070  0.60020  0.43570  Biso   1.000  H
  O9       1.0000 0.33340  0.36990  0.18950  Biso   1.000  O
  O10      1.0000 0.83340  0.13010  0.68950  Biso   1.000  O
  O11      1.0000 0.66660  0.63010  0.81050  Biso   1.000  O
  O12      1.0000 0.16660  0.86990  0.31050  Biso   1.000  O
  H17      1.0000 0.33810  0.44140  0.21540  Biso   1.000  H
  H18      1.0000 0.83810  0.05860  0.71540  Biso   1.000  H
  H19      1.0000 0.66190  0.55860  0.78460  Biso   1.000  H
  H20      1.0000 0.16190  0.94140  0.28460  Biso   1.000  H
  H21      1.0000 0.25830  0.38110  0.14220  Biso   1.000  H
  H22      1.0000 0.75830  0.11890  0.64220  Biso   1.000  H
  H23      1.0000 0.74170  0.61890  0.85780  Biso   1.000  H
  H24      1.0000 0.24170  0.88110  0.35780  Biso   1.000  H
  O13      1.0000 0.13870  0.71670  0.18210  Biso   1.000  O
  O14      1.0000 0.63870  0.78330  0.68210  Biso   1.000  O
  O15      1.0000 0.86130  0.28330  0.81790  Biso   1.000  O
  O16      1.0000 0.36130  0.21670  0.31790  Biso   1.000  O
  H25      1.0000 0.19620  0.66150  0.21250  Biso   1.000  H
  H26      1.0000 0.69620  0.83850  0.71250  Biso   1.000  H
  H27      1.0000 0.80380  0.33850  0.78750  Biso   1.000  H
  H28      1.0000 0.30380  0.16150  0.28750  Biso   1.000  H
  H29      1.0000 0.16410  0.68110  0.13510  Biso   1.000  H
  H30      1.0000 0.66410  0.81890  0.63510  Biso   1.000  H
  H31      1.0000 0.83590  0.31890  0.86490  Biso   1.000  H
  H32      1.0000 0.33590  0.18110  0.36490  Biso   1.000  H
  O17      1.0000 0.48160  0.64170  0.19820  Biso   1.000  O
  O18      1.0000 0.98160  0.85830  0.69820  Biso   1.000  O
  O19      1.0000 0.51840  0.35830  0.80180  Biso   1.000  O
  O20      1.0000 0.01840  0.14170  0.30180  Biso   1.000  O
  O21      1.0000 0.36120  0.57380  0.26860  Biso   1.000  O
  O22      1.0000 0.86120  0.92620  0.76860  Biso   1.000  O
  O23      1.0000 0.63880  0.42620  0.73140  Biso   1.000  O
  O24      1.0000 0.13880  0.07380  0.23140  Biso   1.000  O
  O25      1.0000 0.49520  0.88940  0.12960  Biso   1.000  O
  O26      1.0000 0.99520  0.61060  0.62960  Biso   1.000  O
  O27      1.0000 0.50480  0.11060  0.87040  Biso   1.000  O
  O28      1.0000 0.00480  0.38940  0.37040  Biso   1.000  O
  O29      1.0000 0.36320  0.02140  0.14179  Biso   1.000  O
  O30      1.0000 0.86320  0.47860  0.64179  Biso   1.000  O
  O31      1.0000 0.63680  0.97860  0.85821  Biso   1.000  O
  O32      1.0000 0.13680  0.52140  0.35821  Biso   1.000  O
  O33      1.0000 0.69840  0.67270  0.14550  Biso   1.000  O
  O34      1.0000 0.19840  0.82730  0.64550  Biso   1.000  O
  O35      1.0000 0.30160  0.32730  0.85450  Biso   1.000  O
  O36      1.0000 0.80160  0.17270  0.35450  Biso   1.000  O
  O37      1.0000 0.88860  0.65740  0.13280  Biso   1.000  O
  O38      1.0000 0.38860  0.84260  0.63280  Biso   1.000  O
  O39      1.0000 0.11140  0.34260  0.86720  Biso   1.000  O
  O40      1.0000 0.61140  0.15740  0.36720  Biso   1.000  O
  O41      1.0000 0.24780  0.11300  0.90600  Biso   1.000  O
  O42      1.0000 0.74780  0.38700  0.40600  Biso   1.000  O
  O43      1.0000 0.75220  0.88700  0.09400  Biso   1.000  O
  O44      1.0000 0.25220  0.61300  0.59400  Biso   1.000  O
  O45      1.0000 0.28400  0.93850  0.88493  Biso   1.000  O
  O46      1.0000 0.78400  0.56150  0.38493  Biso   1.000  O
  O47      1.0000 0.71600  0.06150  0.11507  Biso   1.000  O
  O48      1.0000 0.21600  0.43850  0.61507  Biso   1.000  O
  N1       1.0000 0.54050  0.82130  0.29547  Biso   1.000  N
  N2       1.0000 0.04050  0.67870  0.79547  Biso   1.000  N
  N3       1.0000 0.45950  0.17870  0.70453  Biso   1.000  N
  N4       1.0000 0.95950  0.32130  0.20453  Biso   1.000  N
  N5       1.0000 0.77130  0.83400  0.26300  Biso   1.000  N
  N6       1.0000 0.27130  0.66600  0.76300  Biso   1.000  N
  N7       1.0000 0.22870  0.16600  0.73700  Biso   1.000  N
  N8       1.0000 0.72870  0.33400  0.23700  Biso   1.000  N
  N9       1.0000 0.12400  0.03160  0.01400  Biso   1.000  N
  N10      1.0000 0.62400  0.46840  0.51400  Biso   1.000  N
  N11      1.0000 0.87600  0.96840  0.98600  Biso   1.000  N
  N12      1.0000 0.37600  0.53160  0.48600  Biso   1.000  N
  C1       1.0000 0.65040  0.87880  0.35900  Biso   1.000  C
  C2       1.0000 0.15040  0.62120  0.85900  Biso   1.000  C
  C3       1.0000 0.34960  0.12120  0.64100  Biso   1.000  C
  C4       1.0000 0.84960  0.37880  0.14100  Biso   1.000  C
  H33      1.0000 0.64760  0.95910  0.33700  Biso   1.000  H
  H34      1.0000 0.14760  0.54090  0.83700  Biso   1.000  H
  H35      1.0000 0.35240  0.04090  0.66300  Biso   1.000  H
  H36      1.0000 0.85240  0.45910  0.16300  Biso   1.000  H
  C5       1.0000 0.77290  0.83240  0.35400  Biso   1.000  C
  C6       1.0000 0.27290  0.66760  0.85400  Biso   1.000  C
  C7       1.0000 0.22710  0.16760  0.64600  Biso   1.000  C
  C8       1.0000 0.72710  0.33240  0.14600  Biso   1.000  C
  H37      1.0000 0.77850  0.75890  0.36490  Biso   1.000  H
  H38      1.0000 0.27850  0.74110  0.86490  Biso   1.000  H
  H39      1.0000 0.22150  0.24110  0.63510  Biso   1.000  H
  H40      1.0000 0.72150  0.25890  0.13510  Biso   1.000  H
  C9       1.0000 0.88800  0.88700  0.41560  Biso   1.000  C
  C10      1.0000 0.38800  0.61300  0.91560  Biso   1.000  C
  C11      1.0000 0.11200  0.11300  0.58440  Biso   1.000  C
  C12      1.0000 0.61200  0.38700  0.08440  Biso   1.000  C
  H41      1.0000 0.96910  0.85160  0.41770  Biso   1.000  H
  H42      1.0000 0.46910  0.64840  0.91770  Biso   1.000  H
  H43      1.0000 0.03090  0.14840  0.58230  Biso   1.000  H
  H44      1.0000 0.53090  0.35160  0.08230  Biso   1.000  H
  H45      1.0000 0.89280  0.96590  0.39960  Biso   1.000  H
  H46      1.0000 0.39280  0.53410  0.89960  Biso   1.000  H
  H47      1.0000 0.10720  0.03410  0.60040  Biso   1.000  H
  H48      1.0000 0.60720  0.46590  0.10040  Biso   1.000  H
  C13      1.0000 0.88120  0.88120  0.50470  Biso   1.000  C
  C14      1.0000 0.38120  0.61880  0.00470  Biso   1.000  C
  C15      1.0000 0.11880  0.11880  0.49530  Biso   1.000  C
  C16      1.0000 0.61880  0.38120  0.99530  Biso   1.000  C
  H49      1.0000 0.95880  0.90620  0.54530  Biso   1.000  H
  H50      1.0000 0.45880  0.59380  0.04530  Biso   1.000  H
  H51      1.0000 0.04120  0.09380  0.45470  Biso   1.000  H
  H52      1.0000 0.54120  0.40620  0.95470  Biso   1.000  H
  H53      1.0000 0.88180  0.80570  0.51980  Biso   1.000  H
  H54      1.0000 0.38180  0.69430  0.01980  Biso   1.000  H
  H55      1.0000 0.11820  0.19430  0.48020  Biso   1.000  H
  H56      1.0000 0.61820  0.30570  0.98020  Biso   1.000  H
  C17      1.0000 0.76290  0.93450  0.50960  Biso   1.000  C
  C18      1.0000 0.26290  0.56550  0.00960  Biso   1.000  C
  C19      1.0000 0.23710  0.06550  0.49040  Biso   1.000  C
  C20      1.0000 0.73710  0.43450  0.99040  Biso   1.000  C
  H57      1.0000 0.76150  0.01460  0.50000  Biso   1.000  H
  H58      1.0000 0.26150  0.48540  0.00000  Biso   1.000  H
  H59      1.0000 0.23850  0.98540  0.50000  Biso   1.000  H
  H60      1.0000 0.73850  0.51460  0.00000  Biso   1.000  H
  H61      1.0000 0.75390  0.93430  0.56550  Biso   1.000  H
  H62      1.0000 0.25390  0.56570  0.06550  Biso   1.000  H
  H63      1.0000 0.24610  0.06570  0.43450  Biso   1.000  H
  H64      1.0000 0.74610  0.43430  0.93450  Biso   1.000  H
  C21      1.0000 0.64520  0.87830  0.45010  Biso   1.000  C
  C22      1.0000 0.14520  0.62170  0.95010  Biso   1.000  C
  C23      1.0000 0.35480  0.12170  0.54990  Biso   1.000  C
  C24      1.0000 0.85480  0.37830  0.04990  Biso   1.000  C
  H65      1.0000 0.56100  0.91030  0.44770  Biso   1.000  H
  H66      1.0000 0.06100  0.58970  0.94770  Biso   1.000  H
  H67      1.0000 0.43900  0.08970  0.55230  Biso   1.000  H
  H68      1.0000 0.93900  0.41030  0.05230  Biso   1.000  H
  H69      1.0000 0.64840  0.80150  0.47170  Biso   1.000  H
  H70      1.0000 0.14840  0.69850  0.97170  Biso   1.000  H
  H71      1.0000 0.35160  0.19850  0.52830  Biso   1.000  H
  H72      1.0000 0.85160  0.30150  0.02830  Biso   1.000  H
  C25      1.0000 0.49410  0.72360  0.32980  Biso   1.000  C
  C26      1.0000 0.99410  0.77640  0.82980  Biso   1.000  C
  C27      1.0000 0.50590  0.27640  0.67020  Biso   1.000  C
  C28      1.0000 0.00590  0.22360  0.17020  Biso   1.000  C
  H73      1.0000 0.42960  0.74350  0.35280  Biso   1.000  H
  H74      1.0000 0.92960  0.75650  0.85280  Biso   1.000  H
  H75      1.0000 0.57040  0.25650  0.64720  Biso   1.000  H
  H76      1.0000 0.07040  0.24350  0.14720  Biso   1.000  H
  H77      1.0000 0.56640  0.68920  0.36790  Biso   1.000  H
  H78      1.0000 0.06640  0.81080  0.86790  Biso   1.000  H
  H79      1.0000 0.43360  0.31080  0.63210  Biso   1.000  H
  H80      1.0000 0.93360  0.18920  0.13210  Biso   1.000  H
  C29      1.0000 0.43820  0.64000  0.25950  Biso   1.000  C
  C30      1.0000 0.93820  0.86000  0.75950  Biso   1.000  C
  C31      1.0000 0.56180  0.36000  0.74050  Biso   1.000  C
  C32      1.0000 0.06180  0.14000  0.24050  Biso   1.000  C
  C33      1.0000 0.43630  0.89830  0.25520  Biso   1.000  C
  C34      1.0000 0.93630  0.60170  0.75520  Biso   1.000  C
  C35      1.0000 0.56370  0.10170  0.74480  Biso   1.000  C
  C36      1.0000 0.06370  0.39830  0.24480  Biso   1.000  C
  H81      1.0000 0.43140  0.96050  0.29270  Biso   1.000  H
  H82      1.0000 0.93140  0.53950  0.79270  Biso   1.000  H
  H83      1.0000 0.56860  0.03950  0.70730  Biso   1.000  H
  H84      1.0000 0.06860  0.46050  0.20730  Biso   1.000  H
  H85      1.0000 0.35370  0.86280  0.24320  Biso   1.000  H
  H86      1.0000 0.85370  0.63720  0.74320  Biso   1.000  H
  H87      1.0000 0.64630  0.13720  0.75680  Biso   1.000  H
  H88      1.0000 0.14630  0.36280  0.25680  Biso   1.000  H
  C37      1.0000 0.43380  0.93960  0.16840  Biso   1.000  C
  C38      1.0000 0.93380  0.56040  0.66840  Biso   1.000  C
  C39      1.0000 0.56620  0.06040  0.83160  Biso   1.000  C
  C40      1.0000 0.06620  0.43960  0.33160  Biso   1.000  C
  C41      1.0000 0.86880  0.76170  0.24860  Biso   1.000  C
  C42      1.0000 0.36880  0.73830  0.74860  Biso   1.000  C
  C43      1.0000 0.13120  0.23830  0.75140  Biso   1.000  C
  C44      1.0000 0.63120  0.26170  0.25140  Biso   1.000  C
  H89      1.0000 0.89400  0.71040  0.29210  Biso   1.000  H
  H90      1.0000 0.39400  0.78960  0.79210  Biso   1.000  H
  H91      1.0000 0.10600  0.28960  0.70790  Biso   1.000  H
  H92      1.0000 0.60600  0.21040  0.20790  Biso   1.000  H
  H93      1.0000 0.93650  0.79850  0.24680  Biso   1.000  H
  H94      1.0000 0.43650  0.70150  0.74680  Biso   1.000  H
  H95      1.0000 0.06350  0.20150  0.75320  Biso   1.000  H
  H96      1.0000 0.56350  0.29850  0.25320  Biso   1.000  H
  C45      1.0000 0.81600  0.69370  0.16890  Biso   1.000  C
  C46      1.0000 0.31600  0.80630  0.66890  Biso   1.000  C
  C47      1.0000 0.18400  0.30630  0.83110  Biso   1.000  C
  C48      1.0000 0.68400  0.19370  0.33110  Biso   1.000  C
  C49      1.0000 0.78320  0.94820  0.23500  Biso   1.000  C
  C50      1.0000 0.28320  0.55180  0.73500  Biso   1.000  C
  C51      1.0000 0.21680  0.05180  0.76500  Biso   1.000  C
  C52      1.0000 0.71680  0.44820  0.26500  Biso   1.000  C
  H97      1.0000 0.74010  0.99890  0.25880  Biso   1.000  H
  H98      1.0000 0.24010  0.50110  0.75880  Biso   1.000  H
  H99      1.0000 0.25990  0.00110  0.74120  Biso   1.000  H
  H100     1.0000 0.75990  0.49890  0.24120  Biso   1.000  H
  H101     1.0000 0.86220  0.97090  0.25400  Biso   1.000  H
  H102     1.0000 0.36220  0.52910  0.75400  Biso   1.000  H
  H103     1.0000 0.13780  0.02910  0.74600  Biso   1.000  H
  H104     1.0000 0.63780  0.47090  0.24600  Biso   1.000  H
  C53      1.0000 0.25350  0.03280  0.85920  Biso   1.000  C
  C54      1.0000 0.75350  0.46720  0.35920  Biso   1.000  C
  C55      1.0000 0.74650  0.96720  0.14080  Biso   1.000  C
  C56      1.0000 0.24650  0.53280  0.64080  Biso   1.000  C
  C57      1.0000 0.02780  0.08920  0.96460  Biso   1.000  C
  C58      1.0000 0.52780  0.41080  0.46460  Biso   1.000  C
  C59      1.0000 0.97220  0.91080  0.03540  Biso   1.000  C
  C60      1.0000 0.47220  0.58920  0.53540  Biso   1.000  C
  H105     1.0000 0.04490  0.15190  0.93690  Biso   1.000  H
  H106     1.0000 0.54490  0.34810  0.43690  Biso   1.000  H
  H107     1.0000 0.95510  0.84810  0.06310  Biso   1.000  H
  H108     1.0000 0.45510  0.65190  0.56310  Biso   1.000  H
  C61      1.0000 0.09590  0.94180  0.04950  Biso   1.000  C
  C62      1.0000 0.59590  0.55820  0.54950  Biso   1.000  C
  C63      1.0000 0.90410  0.05820  0.95050  Biso   1.000  C
  C64      1.0000 0.40410  0.44180  0.45050  Biso   1.000  C
  H109     1.0000 0.16220  0.89960  0.08350  Biso   1.000  H
  H110     1.0000 0.66220  0.60040  0.58350  Biso   1.000  H
  H111     1.0000 0.83780  0.10040  0.91650  Biso   1.000  H
  H112     1.0000 0.33780  0.39960  0.41650  Biso   1.000  H
