data_image0
_cell_length_a       8.814
_cell_length_b       14.979
_cell_length_c       13.574
_cell_angle_alpha    90
_cell_angle_beta     104.97
_cell_angle_gamma    90

_symmetry_space_group_name_H-M    "P 1"
_symmetry_int_tables_number       1

loop_
  _symmetry_equiv_pos_as_xyz
  'x, y, z'

loop_
  _atom_site_label
  _atom_site_occupancy
  _atom_site_fract_x
  _atom_site_fract_y
  _atom_site_fract_z
  _atom_site_thermal_displace_type
  _atom_site_B_iso_or_equiv
  _atom_site_type_symbol
  Cu1      1.0000 0.95515  0.66202  0.18304  Biso   1.000  Cu
  Cu2      1.0000 0.04485  0.16202  0.81696  Biso   1.000  Cu
  Cu3      1.0000 0.55987  0.55533  0.80952  Biso   1.000  Cu
  Cu4      1.0000 0.44013  0.05533  0.19048  Biso   1.000  Cu
  O1       1.0000 0.55440  0.45640  0.90330  Biso   1.000  O
  O2       1.0000 0.44560  0.95640  0.09670  Biso   1.000  O
  O3       1.0000 0.84330  0.54460  0.84730  Biso   1.000  O
  O4       1.0000 0.15670  0.04460  0.15270  Biso   1.000  O
  O5       1.0000 0.26710  0.56550  0.80250  Biso   1.000  O
  O6       1.0000 0.73290  0.06550  0.19750  Biso   1.000  O
  O7       1.0000 0.00070  0.78620  0.15220  Biso   1.000  O
  O8       1.0000 0.99930  0.28620  0.84780  Biso   1.000  O
  O9       1.0000 0.93970  0.92320  0.19390  Biso   1.000  O
  O10      1.0000 0.06030  0.42320  0.80610  Biso   1.000  O
  O11      1.0000 0.80350  0.61290  0.02370  Biso   1.000  O
  O12      1.0000 0.19650  0.11290  0.97630  Biso   1.000  O
  O13      1.0000 0.57140  0.64630  0.91780  Biso   1.000  O
  O14      1.0000 0.42860  0.14630  0.08220  Biso   1.000  O
  O15      1.0000 0.04660  0.69800  0.36000  Biso   1.000  O
  O16      1.0000 0.95340  0.19800  0.64000  Biso   1.000  O
  O17      1.0000 0.05110  0.62370  0.50260  Biso   1.000  O
  O18      1.0000 0.94890  0.12370  0.49740  Biso   1.000  O
  O19      1.0000 0.11850  0.58590  0.14970  Biso   1.000  O
  O20      1.0000 0.88150  0.08590  0.85030  Biso   1.000  O
  O21      1.0000 0.13870  0.44690  0.10000  Biso   1.000  O
  O22      1.0000 0.86130  0.94690  0.90000  Biso   1.000  O
  O23      1.0000 0.21860  0.65640  0.98390  Biso   1.000  O
  O24      1.0000 0.78140  0.15640  0.01610  Biso   1.000  O
  O25      1.0000 0.09300  0.26970  0.12650  Biso   1.000  O
  O26      1.0000 0.90700  0.76970  0.87350  Biso   1.000  O
  O27      1.0000 0.77680  0.33670  0.94830  Biso   1.000  O
  O28      1.0000 0.22320  0.83670  0.05170  Biso   1.000  O
  O29      1.0000 0.90440  0.24880  0.26600  Biso   1.000  O
  O30      1.0000 0.09560  0.74880  0.73400  Biso   1.000  O
  O31      1.0000 0.97480  0.46680  0.58230  Biso   1.000  O
  O32      1.0000 0.02520  0.96680  0.41770  Biso   1.000  O
  O33      1.0000 0.42800  0.44650  0.05650  Biso   1.000  O
  O34      1.0000 0.57200  0.94650  0.94350  Biso   1.000  O
  O35      1.0000 0.00670  0.81440  0.53330  Biso   1.000  O
  O36      1.0000 0.99330  0.31440  0.46670  Biso   1.000  O
  O37      1.0000 0.38850  0.80520  0.85870  Biso   1.000  O
  O38      1.0000 0.61150  0.30520  0.14130  Biso   1.000  O
  N1       1.0000 0.74180  0.71270  0.18360  Biso   1.000  N
  N2       1.0000 0.25820  0.21270  0.81640  Biso   1.000  N
  N3       1.0000 0.89860  0.55020  0.24600  Biso   1.000  N
  N4       1.0000 0.10140  0.05020  0.75400  Biso   1.000  N
  N5       1.0000 0.52820  0.46480  0.69500  Biso   1.000  N
  N6       1.0000 0.47180  0.96480  0.30500  Biso   1.000  N
  N7       1.0000 0.45120  0.15200  0.29490  Biso   1.000  N
  N8       1.0000 0.54880  0.65200  0.70510  Biso   1.000  N
  C1       1.0000 0.68560  0.65370  0.25730  Biso   1.000  C
  C2       1.0000 0.31440  0.15370  0.74270  Biso   1.000  C
  H1       1.0000 0.74520  0.67170  0.32580  Biso   1.000  H
  H2       1.0000 0.25480  0.17170  0.67420  Biso   1.000  H
  C3       1.0000 0.72990  0.55510  0.24440  Biso   1.000  C
  C4       1.0000 0.27010  0.05510  0.75560  Biso   1.000  C
  H3       1.0000 0.66980  0.53590  0.17650  Biso   1.000  H
  H4       1.0000 0.33020  0.03590  0.82350  Biso   1.000  H
  C5       1.0000 0.68030  0.49530  0.32210  Biso   1.000  C
  C6       1.0000 0.31970  0.99530  0.67790  Biso   1.000  C
  H5       1.0000 0.69820  0.43330  0.30770  Biso   1.000  H
  H6       1.0000 0.30180  0.93330  0.69230  Biso   1.000  H
  H7       1.0000 0.74450  0.50890  0.39000  Biso   1.000  H
  H8       1.0000 0.25550  0.00890  0.61000  Biso   1.000  H
  C7       1.0000 0.50720  0.50840  0.31920  Biso   1.000  C
  C8       1.0000 0.49280  0.00840  0.68080  Biso   1.000  C
  H9       1.0000 0.44240  0.48850  0.25390  Biso   1.000  H
  H10      1.0000 0.55760  0.98850  0.74610  Biso   1.000  H
  H11      1.0000 0.48150  0.47230  0.37200  Biso   1.000  H
  H12      1.0000 0.51850  0.97230  0.62800  Biso   1.000  H
  C9       1.0000 0.47180  0.60440  0.33520  Biso   1.000  C
  C10      1.0000 0.52820  0.10440  0.66480  Biso   1.000  C
  H13      1.0000 0.53130  0.62320  0.40250  Biso   1.000  H
  H14      1.0000 0.46870  0.12320  0.59750  Biso   1.000  H
  H15      1.0000 0.36100  0.61080  0.33170  Biso   1.000  H
  H16      1.0000 0.63900  0.11080  0.66830  Biso   1.000  H
  C11      1.0000 0.51350  0.66420  0.25470  Biso   1.000  C
  C12      1.0000 0.48650  0.16420  0.74530  Biso   1.000  C
  H17      1.0000 0.44920  0.64820  0.18760  Biso   1.000  H
  H18      1.0000 0.55080  0.14820  0.81240  Biso   1.000  H
  H19      1.0000 0.49210  0.72600  0.26760  Biso   1.000  H
  H20      1.0000 0.50790  0.22600  0.73240  Biso   1.000  H
  C13      1.0000 0.77980  0.80550  0.22160  Biso   1.000  C
  C14      1.0000 0.22020  0.30550  0.77840  Biso   1.000  C
  H21      1.0000 0.68890  0.84350  0.19690  Biso   1.000  H
  H22      1.0000 0.31110  0.34350  0.80310  Biso   1.000  H
  H23      1.0000 0.80650  0.80590  0.29560  Biso   1.000  H
  H24      1.0000 0.19350  0.30590  0.70440  Biso   1.000  H
  C15      1.0000 0.91380  0.84020  0.18570  Biso   1.000  C
  C16      1.0000 0.08620  0.34020  0.81430  Biso   1.000  C
  C17      1.0000 0.63570  0.71630  0.07890  Biso   1.000  C
  C18      1.0000 0.36430  0.21630  0.92110  Biso   1.000  C
  H25      1.0000 0.63650  0.77680  0.05350  Biso   1.000  H
  H26      1.0000 0.36350  0.27680  0.94650  Biso   1.000  H
  H27      1.0000 0.52960  0.70370  0.08320  Biso   1.000  H
  H28      1.0000 0.47040  0.20370  0.91680  Biso   1.000  H
  C19      1.0000 0.67460  0.65310  0.00170  Biso   1.000  C
  C20      1.0000 0.32540  0.15310  0.99830  Biso   1.000  C
  C21      1.0000 0.01320  0.54150  0.35010  Biso   1.000  C
  C22      1.0000 0.98680  0.04150  0.64990  Biso   1.000  C
  H29      1.0000 0.97420  0.49690  0.38930  Biso   1.000  H
  H30      1.0000 0.02580  0.99690  0.61070  Biso   1.000  H
  H31      1.0000 0.11330  0.52070  0.34170  Biso   1.000  H
  H32      1.0000 0.88670  0.02070  0.65830  Biso   1.000  H
  C23      1.0000 0.03850  0.62810  0.40910  Biso   1.000  C
  C24      1.0000 0.96150  0.12810  0.59090  Biso   1.000  C
  C25      1.0000 0.93690  0.47760  0.18010  Biso   1.000  C
  C26      1.0000 0.06310  0.97760  0.81990  Biso   1.000  C
  H33      1.0000 0.84640  0.46610  0.12340  Biso   1.000  H
  H34      1.0000 0.15360  0.96610  0.87660  Biso   1.000  H
  H35      1.0000 0.96180  0.42310  0.21950  Biso   1.000  H
  H36      1.0000 0.03820  0.92310  0.78050  Biso   1.000  H
  C27      1.0000 0.07520  0.50480  0.14000  Biso   1.000  C
  C28      1.0000 0.92480  0.00480  0.86000  Biso   1.000  C
  C29      1.0000 0.39300  0.45500  0.62560  Biso   1.000  C
  C30      1.0000 0.60700  0.95500  0.37440  Biso   1.000  C
  H37      1.0000 0.30840  0.49000  0.63100  Biso   1.000  H
  H38      1.0000 0.69160  0.99000  0.36900  Biso   1.000  H
  C31      1.0000 0.37110  0.39540  0.54550  Biso   1.000  C
  C32      1.0000 0.62890  0.89540  0.45450  Biso   1.000  C
  H39      1.0000 0.27450  0.39220  0.49760  Biso   1.000  H
  H40      1.0000 0.72550  0.89220  0.50240  Biso   1.000  H
  C33      1.0000 0.49180  0.34100  0.53660  Biso   1.000  C
  C34      1.0000 0.50820  0.84100  0.46340  Biso   1.000  C
  C35      1.0000 0.63110  0.34710  0.61110  Biso   1.000  C
  C36      1.0000 0.36890  0.84710  0.38890  Biso   1.000  C
  H41      1.0000 0.71500  0.31010  0.60890  Biso   1.000  H
  H42      1.0000 0.28500  0.81010  0.39110  Biso   1.000  H
  C37      1.0000 0.64580  0.40800  0.68880  Biso   1.000  C
  C38      1.0000 0.35420  0.90800  0.31120  Biso   1.000  C
  H43      1.0000 0.74000  0.41050  0.73920  Biso   1.000  H
  H44      1.0000 0.26000  0.91050  0.26080  Biso   1.000  H
  C39      1.0000 0.58900  0.18690  0.34470  Biso   1.000  C
  C40      1.0000 0.41100  0.68690  0.65530  Biso   1.000  C
  H45      1.0000 0.67860  0.16900  0.32590  Biso   1.000  H
  H46      1.0000 0.32140  0.66900  0.67410  Biso   1.000  H
  C41      1.0000 0.60510  0.24750  0.42180  Biso   1.000  C
  C42      1.0000 0.39490  0.74750  0.57820  Biso   1.000  C
  H47      1.0000 0.70380  0.26990  0.45430  Biso   1.000  H
  H48      1.0000 0.29620  0.76990  0.54570  Biso   1.000  H
  C43      1.0000 0.47490  0.27530  0.45130  Biso   1.000  C
  C44      1.0000 0.52510  0.77530  0.54870  Biso   1.000  C
  C45      1.0000 0.33160  0.23810  0.40010  Biso   1.000  C
  C46      1.0000 0.66840  0.73810  0.59990  Biso   1.000  C
  H49      1.0000 0.24010  0.25500  0.41720  Biso   1.000  H
  H50      1.0000 0.75990  0.75500  0.58280  Biso   1.000  H
  C47      1.0000 0.32580  0.17690  0.32500  Biso   1.000  C
  C48      1.0000 0.67420  0.67690  0.67500  Biso   1.000  C
  H51      1.0000 0.22940  0.15130  0.29330  Biso   1.000  H
  H52      1.0000 0.77060  0.65130  0.70670  Biso   1.000  H
