data_image0
_cell_length_a       26.836
_cell_length_b       6.44
_cell_length_c       15.407
_cell_angle_alpha    90
_cell_angle_beta     115.85
_cell_angle_gamma    90

_symmetry_space_group_name_H-M    "P 1"
_symmetry_int_tables_number       1

loop_
  _symmetry_equiv_pos_as_xyz
  'x, y, z'

loop_
  _atom_site_label
  _atom_site_occupancy
  _atom_site_fract_x
  _atom_site_fract_y
  _atom_site_fract_z
  _atom_site_thermal_displace_type
  _atom_site_B_iso_or_equiv
  _atom_site_type_symbol
  Cu1      1.0000 0.00000  0.93950  0.25000  Biso   1.000  Cu
  Cu2      1.0000 0.50000  0.43950  0.25000  Biso   1.000  Cu
  Cu3      1.0000 0.00000  0.06050  0.75000  Biso   1.000  Cu
  Cu4      1.0000 0.50000  0.56050  0.75000  Biso   1.000  Cu
  O1       1.0000 0.03173  0.95110  0.39230  Biso   1.000  O
  O2       1.0000 0.96827  0.95110  0.10770  Biso   1.000  O
  O3       1.0000 0.53173  0.45110  0.39230  Biso   1.000  O
  O4       1.0000 0.46827  0.45110  0.10770  Biso   1.000  O
  O5       1.0000 0.96827  0.04890  0.60770  Biso   1.000  O
  O6       1.0000 0.03173  0.04890  0.89230  Biso   1.000  O
  O7       1.0000 0.46827  0.54890  0.60770  Biso   1.000  O
  O8       1.0000 0.53173  0.54890  0.89230  Biso   1.000  O
  O9       1.0000 0.03580  0.60920  0.39450  Biso   1.000  O
  O10      1.0000 0.96420  0.60920  0.10550  Biso   1.000  O
  O11      1.0000 0.53580  0.10920  0.39450  Biso   1.000  O
  O12      1.0000 0.46420  0.10920  0.10550  Biso   1.000  O
  O13      1.0000 0.96420  0.39080  0.60550  Biso   1.000  O
  O14      1.0000 0.03580  0.39080  0.89450  Biso   1.000  O
  O15      1.0000 0.46420  0.89080  0.60550  Biso   1.000  O
  O16      1.0000 0.53580  0.89080  0.89450  Biso   1.000  O
  C1       1.0000 0.04340  0.77880  0.43590  Biso   1.000  C
  C2       1.0000 0.95660  0.77880  0.06410  Biso   1.000  C
  C3       1.0000 0.54340  0.27880  0.43590  Biso   1.000  C
  C4       1.0000 0.45660  0.27880  0.06410  Biso   1.000  C
  C5       1.0000 0.95660  0.22120  0.56410  Biso   1.000  C
  C6       1.0000 0.04340  0.22120  0.93590  Biso   1.000  C
  C7       1.0000 0.45660  0.72120  0.56410  Biso   1.000  C
  C8       1.0000 0.54340  0.72120  0.93590  Biso   1.000  C
  C9       1.0000 0.06660  0.78590  0.54460  Biso   1.000  C
  C10      1.0000 0.93340  0.78590  0.95540  Biso   1.000  C
  C11      1.0000 0.56660  0.28590  0.54460  Biso   1.000  C
  C12      1.0000 0.43340  0.28590  0.95540  Biso   1.000  C
  C13      1.0000 0.93340  0.21410  0.45540  Biso   1.000  C
  C14      1.0000 0.06660  0.21410  0.04460  Biso   1.000  C
  C15      1.0000 0.43340  0.71410  0.45540  Biso   1.000  C
  C16      1.0000 0.56660  0.71410  0.04460  Biso   1.000  C
  H1       1.0000 0.06990  0.92770  0.56550  Biso   1.000  H
  H2       1.0000 0.93010  0.92770  0.93450  Biso   1.000  H
  H3       1.0000 0.56990  0.42770  0.56550  Biso   1.000  H
  H4       1.0000 0.43010  0.42770  0.93450  Biso   1.000  H
  H5       1.0000 0.93010  0.07230  0.43450  Biso   1.000  H
  H6       1.0000 0.06990  0.07230  0.06550  Biso   1.000  H
  H7       1.0000 0.43010  0.57230  0.43450  Biso   1.000  H
  H8       1.0000 0.56990  0.57230  0.06550  Biso   1.000  H
  H9       1.0000 0.10250  0.72130  0.57250  Biso   1.000  H
  H10      1.0000 0.89750  0.72130  0.92750  Biso   1.000  H
  H11      1.0000 0.60250  0.22130  0.57250  Biso   1.000  H
  H12      1.0000 0.39750  0.22130  0.92750  Biso   1.000  H
  H13      1.0000 0.89750  0.27870  0.42750  Biso   1.000  H
  H14      1.0000 0.10250  0.27870  0.07250  Biso   1.000  H
  H15      1.0000 0.39750  0.77870  0.42750  Biso   1.000  H
  H16      1.0000 0.60250  0.77870  0.07250  Biso   1.000  H
  H17      1.0000 0.04230  0.71300  0.56470  Biso   1.000  H
  H18      1.0000 0.95770  0.71300  0.93530  Biso   1.000  H
  H19      1.0000 0.54230  0.21300  0.56470  Biso   1.000  H
  H20      1.0000 0.45770  0.21300  0.93530  Biso   1.000  H
  H21      1.0000 0.95770  0.28700  0.43530  Biso   1.000  H
  H22      1.0000 0.04230  0.28700  0.06470  Biso   1.000  H
  H23      1.0000 0.45770  0.78700  0.43530  Biso   1.000  H
  H24      1.0000 0.54230  0.78700  0.06470  Biso   1.000  H
  N1       1.0000 0.92313  0.92140  0.24120  Biso   1.000  N
  N2       1.0000 0.07687  0.92140  0.25880  Biso   1.000  N
  N3       1.0000 0.42313  0.42140  0.24120  Biso   1.000  N
  N4       1.0000 0.57687  0.42140  0.25880  Biso   1.000  N
  N5       1.0000 0.07687  0.07860  0.75880  Biso   1.000  N
  N6       1.0000 0.92313  0.07860  0.74120  Biso   1.000  N
  N7       1.0000 0.57687  0.57860  0.75880  Biso   1.000  N
  N8       1.0000 0.42313  0.57860  0.74120  Biso   1.000  N
  O17      1.0000 0.00000  0.30800  0.25000  Biso   1.000  O
  O18      1.0000 0.50000  0.80800  0.25000  Biso   1.000  O
  O19      1.0000 0.00000  0.69200  0.75000  Biso   1.000  O
  O20      1.0000 0.50000  0.19200  0.75000  Biso   1.000  O
  H25      1.0000 0.98900  0.38900  0.19700  Biso   1.000  H
  H26      1.0000 0.01100  0.38900  0.30300  Biso   1.000  H
  H27      1.0000 0.48900  0.88900  0.19700  Biso   1.000  H
  H28      1.0000 0.51100  0.88900  0.30300  Biso   1.000  H
  H29      1.0000 0.01100  0.61100  0.80300  Biso   1.000  H
  H30      1.0000 0.98900  0.61100  0.69700  Biso   1.000  H
  H31      1.0000 0.51100  0.11100  0.80300  Biso   1.000  H
  H32      1.0000 0.48900  0.11100  0.69700  Biso   1.000  H
  H33      1.0000 0.02700  0.28200  0.24500  Biso   1.000  H
  H34      1.0000 0.97300  0.28200  0.25500  Biso   1.000  H
  H35      1.0000 0.52700  0.78200  0.24500  Biso   1.000  H
  H36      1.0000 0.47300  0.78200  0.25500  Biso   1.000  H
  H37      1.0000 0.97300  0.71800  0.75500  Biso   1.000  H
  H38      1.0000 0.02700  0.71800  0.74500  Biso   1.000  H
  H39      1.0000 0.47300  0.21800  0.75500  Biso   1.000  H
  H40      1.0000 0.52700  0.21800  0.74500  Biso   1.000  H
  O21      1.0000 0.10960  0.29260  0.48550  Biso   1.000  O
  O22      1.0000 0.89040  0.29260  0.01450  Biso   1.000  O
  O23      1.0000 0.60960  0.79260  0.48550  Biso   1.000  O
  O24      1.0000 0.39040  0.79260  0.01450  Biso   1.000  O
  O25      1.0000 0.89040  0.70740  0.51450  Biso   1.000  O
  O26      1.0000 0.10960  0.70740  0.98550  Biso   1.000  O
  O27      1.0000 0.39040  0.20740  0.51450  Biso   1.000  O
  O28      1.0000 0.60960  0.20740  0.98550  Biso   1.000  O
  H41      1.0000 0.08900  0.18500  0.49200  Biso   1.000  H
  H42      1.0000 0.91100  0.18500  0.00800  Biso   1.000  H
  H43      1.0000 0.58900  0.68500  0.49200  Biso   1.000  H
  H44      1.0000 0.41100  0.68500  0.00800  Biso   1.000  H
  H45      1.0000 0.91100  0.81500  0.50800  Biso   1.000  H
  H46      1.0000 0.08900  0.81500  0.99200  Biso   1.000  H
  H47      1.0000 0.41100  0.31500  0.50800  Biso   1.000  H
  H48      1.0000 0.58900  0.31500  0.99200  Biso   1.000  H
  H49      1.0000 0.08200  0.39200  0.45200  Biso   1.000  H
  H50      1.0000 0.91800  0.39200  0.04800  Biso   1.000  H
  H51      1.0000 0.58200  0.89200  0.45200  Biso   1.000  H
  H52      1.0000 0.41800  0.89200  0.04800  Biso   1.000  H
  H53      1.0000 0.91800  0.60800  0.54800  Biso   1.000  H
  H54      1.0000 0.08200  0.60800  0.95200  Biso   1.000  H
  H55      1.0000 0.41800  0.10800  0.54800  Biso   1.000  H
  H56      1.0000 0.58200  0.10800  0.95200  Biso   1.000  H
  N9       1.0000 0.80347  0.37760  0.08600  Biso   1.000  N
  N10      1.0000 0.19653  0.37760  0.41400  Biso   1.000  N
  N11      1.0000 0.30347  0.87760  0.08600  Biso   1.000  N
  N12      1.0000 0.69653  0.87760  0.41400  Biso   1.000  N
  N13      1.0000 0.19653  0.62240  0.91400  Biso   1.000  N
  N14      1.0000 0.80347  0.62240  0.58600  Biso   1.000  N
  N15      1.0000 0.69653  0.12240  0.91400  Biso   1.000  N
  N16      1.0000 0.30347  0.12240  0.58600  Biso   1.000  N
  H57      1.0000 0.82840  0.33740  0.06880  Biso   1.000  H
  H58      1.0000 0.17160  0.33740  0.43120  Biso   1.000  H
  H59      1.0000 0.32840  0.83740  0.06880  Biso   1.000  H
  H60      1.0000 0.67160  0.83740  0.43120  Biso   1.000  H
  H61      1.0000 0.17160  0.66260  0.93120  Biso   1.000  H
  H62      1.0000 0.82840  0.66260  0.56880  Biso   1.000  H
  H63      1.0000 0.67160  0.16260  0.93120  Biso   1.000  H
  H64      1.0000 0.32840  0.16260  0.56880  Biso   1.000  H
  O29      1.0000 0.75880  0.28660  0.17540  Biso   1.000  O
  O30      1.0000 0.24120  0.28660  0.32460  Biso   1.000  O
  O31      1.0000 0.25880  0.78660  0.17540  Biso   1.000  O
  O32      1.0000 0.74120  0.78660  0.32460  Biso   1.000  O
  O33      1.0000 0.24120  0.71340  0.82460  Biso   1.000  O
  O34      1.0000 0.75880  0.71340  0.67540  Biso   1.000  O
  O35      1.0000 0.74120  0.21340  0.82460  Biso   1.000  O
  O36      1.0000 0.25880  0.21340  0.67540  Biso   1.000  O
  C17      1.0000 0.83470  0.07880  0.19340  Biso   1.000  C
  C18      1.0000 0.16530  0.07880  0.30660  Biso   1.000  C
  C19      1.0000 0.33470  0.57880  0.19340  Biso   1.000  C
  C20      1.0000 0.66530  0.57880  0.30660  Biso   1.000  C
  C21      1.0000 0.16530  0.92120  0.80660  Biso   1.000  C
  C22      1.0000 0.83470  0.92120  0.69340  Biso   1.000  C
  C23      1.0000 0.66530  0.42120  0.80660  Biso   1.000  C
  C24      1.0000 0.33470  0.42120  0.69340  Biso   1.000  C
  C25      1.0000 0.88750  0.07640  0.20020  Biso   1.000  C
  C26      1.0000 0.11250  0.07640  0.29980  Biso   1.000  C
  C27      1.0000 0.38750  0.57640  0.20020  Biso   1.000  C
  C28      1.0000 0.61250  0.57640  0.29980  Biso   1.000  C
  C29      1.0000 0.11250  0.92360  0.79980  Biso   1.000  C
  C30      1.0000 0.88750  0.92360  0.70020  Biso   1.000  C
  C31      1.0000 0.61250  0.42360  0.79980  Biso   1.000  C
  C32      1.0000 0.38750  0.42360  0.70020  Biso   1.000  C
  H65      1.0000 0.89900  0.18800  0.17520  Biso   1.000  H
  H66      1.0000 0.10100  0.18800  0.32480  Biso   1.000  H
  H67      1.0000 0.39900  0.68800  0.17520  Biso   1.000  H
  H68      1.0000 0.60100  0.68800  0.32480  Biso   1.000  H
  H69      1.0000 0.10100  0.81200  0.82480  Biso   1.000  H
  H70      1.0000 0.89900  0.81200  0.67520  Biso   1.000  H
  H71      1.0000 0.60100  0.31200  0.82480  Biso   1.000  H
  H72      1.0000 0.39900  0.31200  0.67520  Biso   1.000  H
  C33      1.0000 0.90560  0.76080  0.27580  Biso   1.000  C
  C34      1.0000 0.09440  0.76080  0.22420  Biso   1.000  C
  C35      1.0000 0.40560  0.26080  0.27580  Biso   1.000  C
  C36      1.0000 0.59440  0.26080  0.22420  Biso   1.000  C
  C37      1.0000 0.09440  0.23920  0.72420  Biso   1.000  C
  C38      1.0000 0.90560  0.23920  0.77580  Biso   1.000  C
  C39      1.0000 0.59440  0.73920  0.72420  Biso   1.000  C
  C40      1.0000 0.40560  0.73920  0.77580  Biso   1.000  C
  H73      1.0000 0.92960  0.64990  0.30300  Biso   1.000  H
  H74      1.0000 0.07040  0.64990  0.19700  Biso   1.000  H
  H75      1.0000 0.42960  0.14990  0.30300  Biso   1.000  H
  H76      1.0000 0.57040  0.14990  0.19700  Biso   1.000  H
  H77      1.0000 0.07040  0.35010  0.69700  Biso   1.000  H
  H78      1.0000 0.92960  0.35010  0.80300  Biso   1.000  H
  H79      1.0000 0.57040  0.85010  0.69700  Biso   1.000  H
  H80      1.0000 0.42960  0.85010  0.80300  Biso   1.000  H
  C41      1.0000 0.85340  0.75310  0.27270  Biso   1.000  C
  C42      1.0000 0.14660  0.75310  0.22730  Biso   1.000  C
  C43      1.0000 0.35340  0.25310  0.27270  Biso   1.000  C
  C44      1.0000 0.64660  0.25310  0.22730  Biso   1.000  C
  C45      1.0000 0.14660  0.24690  0.72730  Biso   1.000  C
  C46      1.0000 0.85340  0.24690  0.77270  Biso   1.000  C
  C47      1.0000 0.64660  0.74690  0.72730  Biso   1.000  C
  C48      1.0000 0.35340  0.74690  0.77270  Biso   1.000  C
  H81      1.0000 0.84250  0.64000  0.29790  Biso   1.000  H
  H82      1.0000 0.15750  0.64000  0.20210  Biso   1.000  H
  H83      1.0000 0.34250  0.14000  0.29790  Biso   1.000  H
  H84      1.0000 0.65750  0.14000  0.20210  Biso   1.000  H
  H85      1.0000 0.15750  0.36000  0.70210  Biso   1.000  H
  H86      1.0000 0.84250  0.36000  0.79790  Biso   1.000  H
  H87      1.0000 0.65750  0.86000  0.70210  Biso   1.000  H
  H88      1.0000 0.34250  0.86000  0.79790  Biso   1.000  H
  C49      1.0000 0.81780  0.91630  0.23160  Biso   1.000  C
  C50      1.0000 0.18220  0.91630  0.26840  Biso   1.000  C
  C51      1.0000 0.31780  0.41630  0.23160  Biso   1.000  C
  C52      1.0000 0.68220  0.41630  0.26840  Biso   1.000  C
  C53      1.0000 0.18220  0.08370  0.76840  Biso   1.000  C
  C54      1.0000 0.81780  0.08370  0.73160  Biso   1.000  C
  C55      1.0000 0.68220  0.58370  0.76840  Biso   1.000  C
  C56      1.0000 0.31780  0.58370  0.73160  Biso   1.000  C
  H89      1.0000 0.78270  0.91650  0.22970  Biso   1.000  H
  H90      1.0000 0.21730  0.91650  0.27030  Biso   1.000  H
  H91      1.0000 0.28270  0.41650  0.22970  Biso   1.000  H
  H92      1.0000 0.71730  0.41650  0.27030  Biso   1.000  H
  H93      1.0000 0.21730  0.08350  0.77030  Biso   1.000  H
  H94      1.0000 0.78270  0.08350  0.72970  Biso   1.000  H
  H95      1.0000 0.71730  0.58350  0.77030  Biso   1.000  H
  H96      1.0000 0.28270  0.58350  0.72970  Biso   1.000  H
  C57      1.0000 0.79540  0.25730  0.15030  Biso   1.000  C
  C58      1.0000 0.20460  0.25730  0.34970  Biso   1.000  C
  C59      1.0000 0.29540  0.75730  0.15030  Biso   1.000  C
  C60      1.0000 0.70460  0.75730  0.34970  Biso   1.000  C
  C61      1.0000 0.20460  0.74270  0.84970  Biso   1.000  C
  C62      1.0000 0.79540  0.74270  0.65030  Biso   1.000  C
  C63      1.0000 0.70460  0.24270  0.84970  Biso   1.000  C
  C64      1.0000 0.29540  0.24270  0.65030  Biso   1.000  C
  C65      1.0000 0.77510  0.56360  0.04390  Biso   1.000  C
  C66      1.0000 0.22490  0.56360  0.45610  Biso   1.000  C
  C67      1.0000 0.27510  0.06360  0.04390  Biso   1.000  C
  C68      1.0000 0.72490  0.06360  0.45610  Biso   1.000  C
  C69      1.0000 0.22490  0.43640  0.95610  Biso   1.000  C
  C70      1.0000 0.77510  0.43640  0.54390  Biso   1.000  C
  C71      1.0000 0.72490  0.93640  0.95610  Biso   1.000  C
  C72      1.0000 0.27510  0.93640  0.54390  Biso   1.000  C
  C73      1.0000 0.72730  0.62870  0.04810  Biso   1.000  C
  C74      1.0000 0.27270  0.62870  0.45190  Biso   1.000  C
  C75      1.0000 0.22730  0.12870  0.04810  Biso   1.000  C
  C76      1.0000 0.77270  0.12870  0.45190  Biso   1.000  C
  C77      1.0000 0.27270  0.37130  0.95190  Biso   1.000  C
  C78      1.0000 0.72730  0.37130  0.54810  Biso   1.000  C
  C79      1.0000 0.77270  0.87130  0.95190  Biso   1.000  C
  C80      1.0000 0.22730  0.87130  0.54810  Biso   1.000  C
  H97      1.0000 0.71170  0.54880  0.08000  Biso   1.000  H
  H98      1.0000 0.28830  0.54880  0.42000  Biso   1.000  H
  H99      1.0000 0.21170  0.04880  0.08000  Biso   1.000  H
  H100     1.0000 0.78830  0.04880  0.42000  Biso   1.000  H
  H101     1.0000 0.28830  0.45120  0.92000  Biso   1.000  H
  H102     1.0000 0.71170  0.45120  0.58000  Biso   1.000  H
  H103     1.0000 0.78830  0.95120  0.92000  Biso   1.000  H
  H104     1.0000 0.21170  0.95120  0.58000  Biso   1.000  H
  C81      1.0000 0.79730  0.68680  0.99540  Biso   1.000  C
  C82      1.0000 0.20270  0.68680  0.50460  Biso   1.000  C
  C83      1.0000 0.29730  0.18680  0.99540  Biso   1.000  C
  C84      1.0000 0.70270  0.18680  0.50460  Biso   1.000  C
  C85      1.0000 0.20270  0.31320  0.00460  Biso   1.000  C
  C86      1.0000 0.79730  0.31320  0.49540  Biso   1.000  C
  C87      1.0000 0.70270  0.81320  0.00460  Biso   1.000  C
  C88      1.0000 0.29730  0.81320  0.49540  Biso   1.000  C
  H105     1.0000 0.82960  0.64400  0.99210  Biso   1.000  H
  H106     1.0000 0.17040  0.64400  0.50790  Biso   1.000  H
  H107     1.0000 0.32960  0.14400  0.99210  Biso   1.000  H
  H108     1.0000 0.67040  0.14400  0.50790  Biso   1.000  H
  H109     1.0000 0.17040  0.35600  0.00790  Biso   1.000  H
  H110     1.0000 0.82960  0.35600  0.49210  Biso   1.000  H
  H111     1.0000 0.67040  0.85600  0.00790  Biso   1.000  H
  H112     1.0000 0.32960  0.85600  0.49210  Biso   1.000  H
