data_image0
_cell_length_a       35.565
_cell_length_b       26.508
_cell_length_c       9.4862
_cell_angle_alpha    90
_cell_angle_beta     90
_cell_angle_gamma    90

_symmetry_space_group_name_H-M    "P 1"
_symmetry_int_tables_number       1

loop_
  _symmetry_equiv_pos_as_xyz
  'x, y, z'

loop_
  _atom_site_label
  _atom_site_occupancy
  _atom_site_fract_x
  _atom_site_fract_y
  _atom_site_fract_z
  _atom_site_thermal_displace_type
  _atom_site_B_iso_or_equiv
  _atom_site_type_symbol
  Cu1      1.0000 0.12456  0.45464  0.96760  Biso   1.000  Cu
  Cu2      1.0000 0.87544  0.54536  0.96760  Biso   1.000  Cu
  Cu3      1.0000 0.62456  0.04536  0.96760  Biso   1.000  Cu
  Cu4      1.0000 0.37544  0.95464  0.96760  Biso   1.000  Cu
  Cu5      1.0000 0.12456  0.95464  0.46760  Biso   1.000  Cu
  Cu6      1.0000 0.87544  0.04536  0.46760  Biso   1.000  Cu
  Cu7      1.0000 0.62456  0.54536  0.46760  Biso   1.000  Cu
  Cu8      1.0000 0.37544  0.45464  0.46760  Biso   1.000  Cu
  N1       1.0000 0.08740  0.39850  0.95150  Biso   1.000  N
  N2       1.0000 0.91260  0.60150  0.95150  Biso   1.000  N
  N3       1.0000 0.58740  0.10150  0.95150  Biso   1.000  N
  N4       1.0000 0.41260  0.89850  0.95150  Biso   1.000  N
  N5       1.0000 0.08740  0.89850  0.45150  Biso   1.000  N
  N6       1.0000 0.91260  0.10150  0.45150  Biso   1.000  N
  N7       1.0000 0.58740  0.60150  0.45150  Biso   1.000  N
  N8       1.0000 0.41260  0.39850  0.45150  Biso   1.000  N
  N9       1.0000 0.00740  0.28390  0.90310  Biso   1.000  N
  N10      1.0000 0.99260  0.71610  0.90310  Biso   1.000  N
  N11      1.0000 0.50740  0.21610  0.90310  Biso   1.000  N
  N12      1.0000 0.49260  0.78390  0.90310  Biso   1.000  N
  N13      1.0000 0.00740  0.78390  0.40310  Biso   1.000  N
  N14      1.0000 0.99260  0.21610  0.40310  Biso   1.000  N
  N15      1.0000 0.50740  0.71610  0.40310  Biso   1.000  N
  N16      1.0000 0.49260  0.28390  0.40310  Biso   1.000  N
  H1       1.0000 0.98910  0.29160  0.84800  Biso   1.000  H
  H2       1.0000 0.01090  0.70840  0.84800  Biso   1.000  H
  H3       1.0000 0.48910  0.20840  0.84800  Biso   1.000  H
  H4       1.0000 0.51090  0.79160  0.84800  Biso   1.000  H
  H5       1.0000 0.98910  0.79160  0.34800  Biso   1.000  H
  H6       1.0000 0.01090  0.20840  0.34800  Biso   1.000  H
  H7       1.0000 0.48910  0.70840  0.34800  Biso   1.000  H
  H8       1.0000 0.51090  0.29160  0.34800  Biso   1.000  H
  C1       1.0000 0.05380  0.40610  0.89870  Biso   1.000  C
  C2       1.0000 0.94620  0.59390  0.89870  Biso   1.000  C
  C3       1.0000 0.55380  0.09390  0.89870  Biso   1.000  C
  C4       1.0000 0.44620  0.90610  0.89870  Biso   1.000  C
  C5       1.0000 0.05380  0.90610  0.39870  Biso   1.000  C
  C6       1.0000 0.94620  0.09390  0.39870  Biso   1.000  C
  C7       1.0000 0.55380  0.59390  0.39870  Biso   1.000  C
  C8       1.0000 0.44620  0.40610  0.39870  Biso   1.000  C
  H9       1.0000 0.04690  0.43910  0.87750  Biso   1.000  H
  H10      1.0000 0.95310  0.56090  0.87750  Biso   1.000  H
  H11      1.0000 0.54690  0.06090  0.87750  Biso   1.000  H
  H12      1.0000 0.45310  0.93910  0.87750  Biso   1.000  H
  H13      1.0000 0.04690  0.93910  0.37750  Biso   1.000  H
  H14      1.0000 0.95310  0.06090  0.37750  Biso   1.000  H
  H15      1.0000 0.54690  0.56090  0.37750  Biso   1.000  H
  H16      1.0000 0.45310  0.43910  0.37750  Biso   1.000  H
  C9       1.0000 0.02810  0.36860  0.87250  Biso   1.000  C
  C10      1.0000 0.97190  0.63140  0.87250  Biso   1.000  C
  C11      1.0000 0.52810  0.13140  0.87250  Biso   1.000  C
  C12      1.0000 0.47190  0.86860  0.87250  Biso   1.000  C
  C13      1.0000 0.02810  0.86860  0.37250  Biso   1.000  C
  C14      1.0000 0.97190  0.13140  0.37250  Biso   1.000  C
  C15      1.0000 0.52810  0.63140  0.37250  Biso   1.000  C
  C16      1.0000 0.47190  0.36860  0.37250  Biso   1.000  C
  H17      1.0000 0.00650  0.37540  0.82120  Biso   1.000  H
  H18      1.0000 0.99350  0.62460  0.82120  Biso   1.000  H
  H19      1.0000 0.50650  0.12460  0.82120  Biso   1.000  H
  H20      1.0000 0.49350  0.87540  0.82120  Biso   1.000  H
  H21      1.0000 0.00650  0.87540  0.32120  Biso   1.000  H
  H22      1.0000 0.99350  0.12460  0.32120  Biso   1.000  H
  H23      1.0000 0.50650  0.62460  0.32120  Biso   1.000  H
  H24      1.0000 0.49350  0.37540  0.32120  Biso   1.000  H
  C17      1.0000 0.03500  0.32020  0.92390  Biso   1.000  C
  C18      1.0000 0.96500  0.67980  0.92390  Biso   1.000  C
  C19      1.0000 0.53500  0.17980  0.92390  Biso   1.000  C
  C20      1.0000 0.46500  0.82020  0.92390  Biso   1.000  C
  C21      1.0000 0.03500  0.82020  0.42390  Biso   1.000  C
  C22      1.0000 0.96500  0.17980  0.42390  Biso   1.000  C
  C23      1.0000 0.53500  0.67980  0.42390  Biso   1.000  C
  C24      1.0000 0.46500  0.32020  0.42390  Biso   1.000  C
  C25      1.0000 0.06860  0.31210  0.99060  Biso   1.000  C
  C26      1.0000 0.93140  0.68790  0.99060  Biso   1.000  C
  C27      1.0000 0.56860  0.18790  0.99060  Biso   1.000  C
  C28      1.0000 0.43140  0.81210  0.99060  Biso   1.000  C
  C29      1.0000 0.06860  0.81210  0.49060  Biso   1.000  C
  C30      1.0000 0.93140  0.18790  0.49060  Biso   1.000  C
  C31      1.0000 0.56860  0.68790  0.49060  Biso   1.000  C
  C32      1.0000 0.43140  0.31210  0.49060  Biso   1.000  C
  H25      1.0000 0.07460  0.28050  0.02710  Biso   1.000  H
  H26      1.0000 0.92540  0.71950  0.02710  Biso   1.000  H
  H27      1.0000 0.57460  0.21950  0.02710  Biso   1.000  H
  H28      1.0000 0.42540  0.78050  0.02710  Biso   1.000  H
  H29      1.0000 0.07460  0.78050  0.52710  Biso   1.000  H
  H30      1.0000 0.92540  0.21950  0.52710  Biso   1.000  H
  H31      1.0000 0.57460  0.71950  0.52710  Biso   1.000  H
  H32      1.0000 0.42540  0.28050  0.52710  Biso   1.000  H
  C33      1.0000 0.09330  0.35130  0.00250  Biso   1.000  C
  C34      1.0000 0.90670  0.64870  0.00250  Biso   1.000  C
  C35      1.0000 0.59330  0.14870  0.00250  Biso   1.000  C
  C36      1.0000 0.40670  0.85130  0.00250  Biso   1.000  C
  C37      1.0000 0.09330  0.85130  0.50250  Biso   1.000  C
  C38      1.0000 0.90670  0.14870  0.50250  Biso   1.000  C
  C39      1.0000 0.59330  0.64870  0.50250  Biso   1.000  C
  C40      1.0000 0.40670  0.35130  0.50250  Biso   1.000  C
  H33      1.0000 0.11580  0.34520  0.04920  Biso   1.000  H
  H34      1.0000 0.88420  0.65480  0.04920  Biso   1.000  H
  H35      1.0000 0.61580  0.15480  0.04920  Biso   1.000  H
  H36      1.0000 0.38420  0.84520  0.04920  Biso   1.000  H
  H37      1.0000 0.11580  0.84520  0.54920  Biso   1.000  H
  H38      1.0000 0.88420  0.15480  0.54920  Biso   1.000  H
  H39      1.0000 0.61580  0.65480  0.54920  Biso   1.000  H
  H40      1.0000 0.38420  0.34520  0.54920  Biso   1.000  H
  N17      1.0000 0.08700  0.99710  0.56650  Biso   1.000  N
  N18      1.0000 0.91300  0.00290  0.56650  Biso   1.000  N
  N19      1.0000 0.58700  0.50290  0.56650  Biso   1.000  N
  N20      1.0000 0.41300  0.49710  0.56650  Biso   1.000  N
  N21      1.0000 0.08700  0.49710  0.06650  Biso   1.000  N
  N22      1.0000 0.91300  0.50290  0.06650  Biso   1.000  N
  N23      1.0000 0.58700  0.00290  0.06650  Biso   1.000  N
  N24      1.0000 0.41300  0.99710  0.06650  Biso   1.000  N
  N25      1.0000 0.01690  0.08810  0.82040  Biso   1.000  N
  N26      1.0000 0.98310  0.91190  0.82040  Biso   1.000  N
  N27      1.0000 0.51690  0.41190  0.82040  Biso   1.000  N
  N28      1.0000 0.48310  0.58810  0.82040  Biso   1.000  N
  N29      1.0000 0.01690  0.58810  0.32040  Biso   1.000  N
  N30      1.0000 0.98310  0.41190  0.32040  Biso   1.000  N
  N31      1.0000 0.51690  0.91190  0.32040  Biso   1.000  N
  N32      1.0000 0.48310  0.08810  0.32040  Biso   1.000  N
  H41      1.0000 0.00960  0.07330  0.89650  Biso   1.000  H
  H42      1.0000 0.99040  0.92670  0.89650  Biso   1.000  H
  H43      1.0000 0.50960  0.42670  0.89650  Biso   1.000  H
  H44      1.0000 0.49040  0.57330  0.89650  Biso   1.000  H
  H45      1.0000 0.00960  0.57330  0.39650  Biso   1.000  H
  H46      1.0000 0.99040  0.42670  0.39650  Biso   1.000  H
  H47      1.0000 0.50960  0.92670  0.39650  Biso   1.000  H
  H48      1.0000 0.49040  0.07330  0.39650  Biso   1.000  H
  C41      1.0000 0.07480  0.04200  0.52410  Biso   1.000  C
  C42      1.0000 0.92520  0.95800  0.52410  Biso   1.000  C
  C43      1.0000 0.57480  0.45800  0.52410  Biso   1.000  C
  C44      1.0000 0.42520  0.54200  0.52410  Biso   1.000  C
  C45      1.0000 0.07480  0.54200  0.02410  Biso   1.000  C
  C46      1.0000 0.92520  0.45800  0.02410  Biso   1.000  C
  C47      1.0000 0.57480  0.95800  0.02410  Biso   1.000  C
  C48      1.0000 0.42520  0.04200  0.02410  Biso   1.000  C
  H49      1.0000 0.08240  0.05380  0.43630  Biso   1.000  H
  H50      1.0000 0.91760  0.94620  0.43630  Biso   1.000  H
  H51      1.0000 0.58240  0.44620  0.43630  Biso   1.000  H
  H52      1.0000 0.41760  0.55380  0.43630  Biso   1.000  H
  H53      1.0000 0.08240  0.55380  0.93630  Biso   1.000  H
  H54      1.0000 0.91760  0.44620  0.93630  Biso   1.000  H
  H55      1.0000 0.58240  0.94620  0.93630  Biso   1.000  H
  H56      1.0000 0.41760  0.05380  0.93630  Biso   1.000  H
  C49      1.0000 0.05180  0.07140  0.60400  Biso   1.000  C
  C50      1.0000 0.94820  0.92860  0.60400  Biso   1.000  C
  C51      1.0000 0.55180  0.42860  0.60400  Biso   1.000  C
  C52      1.0000 0.44820  0.57140  0.60400  Biso   1.000  C
  C53      1.0000 0.05180  0.57140  0.10400  Biso   1.000  C
  C54      1.0000 0.94820  0.42860  0.10400  Biso   1.000  C
  C55      1.0000 0.55180  0.92860  0.10400  Biso   1.000  C
  C56      1.0000 0.44820  0.07140  0.10400  Biso   1.000  C
  H57      1.0000 0.04370  0.10210  0.56750  Biso   1.000  H
  H58      1.0000 0.95630  0.89790  0.56750  Biso   1.000  H
  H59      1.0000 0.54370  0.39790  0.56750  Biso   1.000  H
  H60      1.0000 0.45630  0.60210  0.56750  Biso   1.000  H
  H61      1.0000 0.04370  0.60210  0.06750  Biso   1.000  H
  H62      1.0000 0.95630  0.39790  0.06750  Biso   1.000  H
  H63      1.0000 0.54370  0.89790  0.06750  Biso   1.000  H
  H64      1.0000 0.45630  0.10210  0.06750  Biso   1.000  H
  C57      1.0000 0.04010  0.05770  0.73700  Biso   1.000  C
  C58      1.0000 0.95990  0.94230  0.73700  Biso   1.000  C
  C59      1.0000 0.54010  0.44230  0.73700  Biso   1.000  C
  C60      1.0000 0.45990  0.55770  0.73700  Biso   1.000  C
  C61      1.0000 0.04010  0.55770  0.23700  Biso   1.000  C
  C62      1.0000 0.95990  0.44230  0.23700  Biso   1.000  C
  C63      1.0000 0.54010  0.94230  0.23700  Biso   1.000  C
  C64      1.0000 0.45990  0.05770  0.23700  Biso   1.000  C
  C65      1.0000 0.05240  0.01170  0.77940  Biso   1.000  C
  C66      1.0000 0.94760  0.98830  0.77940  Biso   1.000  C
  C67      1.0000 0.55240  0.48830  0.77940  Biso   1.000  C
  C68      1.0000 0.44760  0.51170  0.77940  Biso   1.000  C
  C69      1.0000 0.05240  0.51170  0.27940  Biso   1.000  C
  C70      1.0000 0.94760  0.48830  0.27940  Biso   1.000  C
  C71      1.0000 0.55240  0.98830  0.27940  Biso   1.000  C
  C72      1.0000 0.44760  0.01170  0.27940  Biso   1.000  C
  H65      1.0000 0.04580  0.99900  0.86740  Biso   1.000  H
  H66      1.0000 0.95420  0.00100  0.86740  Biso   1.000  H
  H67      1.0000 0.54580  0.50100  0.86740  Biso   1.000  H
  H68      1.0000 0.45420  0.49900  0.86740  Biso   1.000  H
  H69      1.0000 0.04580  0.49900  0.36740  Biso   1.000  H
  H70      1.0000 0.95420  0.50100  0.36740  Biso   1.000  H
  H71      1.0000 0.54580  0.00100  0.36740  Biso   1.000  H
  H72      1.0000 0.45420  0.99900  0.36740  Biso   1.000  H
  C73      1.0000 0.07530  0.98370  0.68800  Biso   1.000  C
  C74      1.0000 0.92470  0.01630  0.68800  Biso   1.000  C
  C75      1.0000 0.57530  0.51630  0.68800  Biso   1.000  C
  C76      1.0000 0.42470  0.48370  0.68800  Biso   1.000  C
  C77      1.0000 0.07530  0.48370  0.18800  Biso   1.000  C
  C78      1.0000 0.92470  0.51630  0.18800  Biso   1.000  C
  C79      1.0000 0.57530  0.01630  0.18800  Biso   1.000  C
  C80      1.0000 0.42470  0.98370  0.18800  Biso   1.000  C
  H73      1.0000 0.08280  0.95200  0.71900  Biso   1.000  H
  H74      1.0000 0.91720  0.04800  0.71900  Biso   1.000  H
  H75      1.0000 0.58280  0.54800  0.71900  Biso   1.000  H
  H76      1.0000 0.41720  0.45200  0.71900  Biso   1.000  H
  H77      1.0000 0.08280  0.45200  0.21900  Biso   1.000  H
  H78      1.0000 0.91720  0.54800  0.21900  Biso   1.000  H
  H79      1.0000 0.58280  0.04800  0.21900  Biso   1.000  H
  H80      1.0000 0.41720  0.95200  0.21900  Biso   1.000  H
  O1       1.0000 0.03330  0.21740  0.01290  Biso   1.000  O
  O2       1.0000 0.96670  0.78260  0.01290  Biso   1.000  O
  O3       1.0000 0.53330  0.28260  0.01290  Biso   1.000  O
  O4       1.0000 0.46670  0.71740  0.01290  Biso   1.000  O
  O5       1.0000 0.03330  0.71740  0.51290  Biso   1.000  O
  O6       1.0000 0.96670  0.28260  0.51290  Biso   1.000  O
  O7       1.0000 0.53330  0.78260  0.51290  Biso   1.000  O
  O8       1.0000 0.46670  0.21740  0.51290  Biso   1.000  O
  O9       1.0000 0.01270  0.16070  0.70900  Biso   1.000  O
  O10      1.0000 0.98730  0.83930  0.70900  Biso   1.000  O
  O11      1.0000 0.51270  0.33930  0.70900  Biso   1.000  O
  O12      1.0000 0.48730  0.66070  0.70900  Biso   1.000  O
  O13      1.0000 0.01270  0.66070  0.20900  Biso   1.000  O
  O14      1.0000 0.98730  0.33930  0.20900  Biso   1.000  O
  O15      1.0000 0.51270  0.83930  0.20900  Biso   1.000  O
  O16      1.0000 0.48730  0.16070  0.20900  Biso   1.000  O
  C81      1.0000 0.00690  0.23430  0.96600  Biso   1.000  C
  C82      1.0000 0.99310  0.76570  0.96600  Biso   1.000  C
  C83      1.0000 0.50690  0.26570  0.96600  Biso   1.000  C
  C84      1.0000 0.49310  0.73430  0.96600  Biso   1.000  C
  C85      1.0000 0.00690  0.73430  0.46600  Biso   1.000  C
  C86      1.0000 0.99310  0.26570  0.46600  Biso   1.000  C
  C87      1.0000 0.50690  0.76570  0.46600  Biso   1.000  C
  C88      1.0000 0.49310  0.23430  0.46600  Biso   1.000  C
  C89      1.0000 0.97080  0.20710  0.91500  Biso   1.000  C
  C90      1.0000 0.02920  0.79290  0.91500  Biso   1.000  C
  C91      1.0000 0.47080  0.29290  0.91500  Biso   1.000  C
  C92      1.0000 0.52920  0.70710  0.91500  Biso   1.000  C
  C93      1.0000 0.97080  0.70710  0.41500  Biso   1.000  C
  C94      1.0000 0.02920  0.29290  0.41500  Biso   1.000  C
  C95      1.0000 0.47080  0.79290  0.41500  Biso   1.000  C
  C96      1.0000 0.52920  0.20710  0.41500  Biso   1.000  C
  H81      1.0000 0.96480  0.21780  0.81960  Biso   1.000  H
  H82      1.0000 0.03520  0.78220  0.81960  Biso   1.000  H
  H83      1.0000 0.46480  0.28220  0.81960  Biso   1.000  H
  H84      1.0000 0.53520  0.71780  0.81960  Biso   1.000  H
  H85      1.0000 0.96480  0.71780  0.31960  Biso   1.000  H
  H86      1.0000 0.03520  0.28220  0.31960  Biso   1.000  H
  H87      1.0000 0.46480  0.78220  0.31960  Biso   1.000  H
  H88      1.0000 0.53520  0.21780  0.31960  Biso   1.000  H
  H89      1.0000 0.94990  0.21590  0.97550  Biso   1.000  H
  H90      1.0000 0.05010  0.78410  0.97550  Biso   1.000  H
  H91      1.0000 0.44990  0.28410  0.97550  Biso   1.000  H
  H92      1.0000 0.55010  0.71590  0.97550  Biso   1.000  H
  H93      1.0000 0.94990  0.71590  0.47550  Biso   1.000  H
  H94      1.0000 0.05010  0.28410  0.47550  Biso   1.000  H
  H95      1.0000 0.44990  0.78410  0.47550  Biso   1.000  H
  H96      1.0000 0.55010  0.21590  0.47550  Biso   1.000  H
  C97      1.0000 0.97710  0.15040  0.91800  Biso   1.000  C
  C98      1.0000 0.02290  0.84960  0.91800  Biso   1.000  C
  C99      1.0000 0.47710  0.34960  0.91800  Biso   1.000  C
  C100     1.0000 0.52290  0.65040  0.91800  Biso   1.000  C
  C101     1.0000 0.97710  0.65040  0.41800  Biso   1.000  C
  C102     1.0000 0.02290  0.34960  0.41800  Biso   1.000  C
  C103     1.0000 0.47710  0.84960  0.41800  Biso   1.000  C
  C104     1.0000 0.52290  0.15040  0.41800  Biso   1.000  C
  H97      1.0000 0.98670  0.14080  0.00980  Biso   1.000  H
  H98      1.0000 0.01330  0.85920  0.00980  Biso   1.000  H
  H99      1.0000 0.48670  0.35920  0.00980  Biso   1.000  H
  H100     1.0000 0.51330  0.64080  0.00980  Biso   1.000  H
  H101     1.0000 0.98670  0.64080  0.50980  Biso   1.000  H
  H102     1.0000 0.01330  0.35920  0.50980  Biso   1.000  H
  H103     1.0000 0.48670  0.85920  0.50980  Biso   1.000  H
  H104     1.0000 0.51330  0.14080  0.50980  Biso   1.000  H
  H105     1.0000 0.95330  0.13330  0.90400  Biso   1.000  H
  H106     1.0000 0.04670  0.86670  0.90400  Biso   1.000  H
  H107     1.0000 0.45330  0.36670  0.90400  Biso   1.000  H
  H108     1.0000 0.54670  0.63330  0.90400  Biso   1.000  H
  H109     1.0000 0.95330  0.63330  0.40400  Biso   1.000  H
  H110     1.0000 0.04670  0.36670  0.40400  Biso   1.000  H
  H111     1.0000 0.45330  0.86670  0.40400  Biso   1.000  H
  H112     1.0000 0.54670  0.13330  0.40400  Biso   1.000  H
  C105     1.0000 0.00390  0.13390  0.80800  Biso   1.000  C
  C106     1.0000 0.99610  0.86610  0.80800  Biso   1.000  C
  C107     1.0000 0.50390  0.36610  0.80800  Biso   1.000  C
  C108     1.0000 0.49610  0.63390  0.80800  Biso   1.000  C
  C109     1.0000 0.00390  0.63390  0.30800  Biso   1.000  C
  C110     1.0000 0.99610  0.36610  0.30800  Biso   1.000  C
  C111     1.0000 0.50390  0.86610  0.30800  Biso   1.000  C
  C112     1.0000 0.49610  0.13390  0.30800  Biso   1.000  C
  N33      1.0000 0.16590  0.40830  0.89390  Biso   1.000  N
  N34      1.0000 0.83410  0.59170  0.89390  Biso   1.000  N
  N35      1.0000 0.66590  0.09170  0.89390  Biso   1.000  N
  N36      1.0000 0.33410  0.90830  0.89390  Biso   1.000  N
  N37      1.0000 0.16590  0.90830  0.39390  Biso   1.000  N
  N38      1.0000 0.83410  0.09170  0.39390  Biso   1.000  N
  N39      1.0000 0.66590  0.59170  0.39390  Biso   1.000  N
  N40      1.0000 0.33410  0.40830  0.39390  Biso   1.000  N
  N41      1.0000 0.25030  0.30830  0.77390  Biso   1.000  N
  N42      1.0000 0.74970  0.69170  0.77390  Biso   1.000  N
  N43      1.0000 0.75030  0.19170  0.77390  Biso   1.000  N
  N44      1.0000 0.24970  0.80830  0.77390  Biso   1.000  N
  N45      1.0000 0.25030  0.80830  0.27390  Biso   1.000  N
  N46      1.0000 0.74970  0.19170  0.27390  Biso   1.000  N
  N47      1.0000 0.75030  0.69170  0.27390  Biso   1.000  N
  N48      1.0000 0.24970  0.30830  0.27390  Biso   1.000  N
  H113     1.0000 0.26960  0.30850  0.82880  Biso   1.000  H
  H114     1.0000 0.73040  0.69150  0.82880  Biso   1.000  H
  H115     1.0000 0.76960  0.19150  0.82880  Biso   1.000  H
  H116     1.0000 0.23040  0.80850  0.82880  Biso   1.000  H
  H117     1.0000 0.26960  0.80850  0.32880  Biso   1.000  H
  H118     1.0000 0.73040  0.19150  0.32880  Biso   1.000  H
  H119     1.0000 0.76960  0.69150  0.32880  Biso   1.000  H
  H120     1.0000 0.23040  0.30850  0.32880  Biso   1.000  H
  C113     1.0000 0.16200  0.38060  0.77710  Biso   1.000  C
  C114     1.0000 0.83800  0.61940  0.77710  Biso   1.000  C
  C115     1.0000 0.66200  0.11940  0.77710  Biso   1.000  C
  C116     1.0000 0.33800  0.88060  0.77710  Biso   1.000  C
  C117     1.0000 0.16200  0.88060  0.27710  Biso   1.000  C
  C118     1.0000 0.83800  0.11940  0.27710  Biso   1.000  C
  C119     1.0000 0.66200  0.61940  0.27710  Biso   1.000  C
  C120     1.0000 0.33800  0.38060  0.27710  Biso   1.000  C
  H121     1.0000 0.14050  0.38530  0.72280  Biso   1.000  H
  H122     1.0000 0.85950  0.61470  0.72280  Biso   1.000  H
  H123     1.0000 0.64050  0.11470  0.72280  Biso   1.000  H
  H124     1.0000 0.35950  0.88530  0.72280  Biso   1.000  H
  H125     1.0000 0.14050  0.88530  0.22280  Biso   1.000  H
  H126     1.0000 0.85950  0.11470  0.22280  Biso   1.000  H
  H127     1.0000 0.64050  0.61470  0.22280  Biso   1.000  H
  H128     1.0000 0.35950  0.38530  0.22280  Biso   1.000  H
  C121     1.0000 0.18650  0.34760  0.73510  Biso   1.000  C
  C122     1.0000 0.81350  0.65240  0.73510  Biso   1.000  C
  C123     1.0000 0.68650  0.15240  0.73510  Biso   1.000  C
  C124     1.0000 0.31350  0.84760  0.73510  Biso   1.000  C
  C125     1.0000 0.18650  0.84760  0.23510  Biso   1.000  C
  C126     1.0000 0.81350  0.15240  0.23510  Biso   1.000  C
  C127     1.0000 0.68650  0.65240  0.23510  Biso   1.000  C
  C128     1.0000 0.31350  0.34760  0.23510  Biso   1.000  C
  H129     1.0000 0.18130  0.32720  0.65780  Biso   1.000  H
  H130     1.0000 0.81870  0.67280  0.65780  Biso   1.000  H
  H131     1.0000 0.68130  0.17280  0.65780  Biso   1.000  H
  H132     1.0000 0.31870  0.82720  0.65780  Biso   1.000  H
  H133     1.0000 0.18130  0.82720  0.15780  Biso   1.000  H
  H134     1.0000 0.81870  0.17280  0.15780  Biso   1.000  H
  H135     1.0000 0.68130  0.67280  0.15780  Biso   1.000  H
  H136     1.0000 0.31870  0.32720  0.15780  Biso   1.000  H
  C129     1.0000 0.22220  0.34250  0.80900  Biso   1.000  C
  C130     1.0000 0.77780  0.65750  0.80900  Biso   1.000  C
  C131     1.0000 0.72220  0.15750  0.80900  Biso   1.000  C
  C132     1.0000 0.27780  0.84250  0.80900  Biso   1.000  C
  C133     1.0000 0.22220  0.84250  0.30900  Biso   1.000  C
  C134     1.0000 0.77780  0.15750  0.30900  Biso   1.000  C
  C135     1.0000 0.72220  0.65750  0.30900  Biso   1.000  C
  C136     1.0000 0.27780  0.34250  0.30900  Biso   1.000  C
  C137     1.0000 0.22600  0.37350  0.92580  Biso   1.000  C
  C138     1.0000 0.77400  0.62650  0.92580  Biso   1.000  C
  C139     1.0000 0.72600  0.12650  0.92580  Biso   1.000  C
  C140     1.0000 0.27400  0.87350  0.92580  Biso   1.000  C
  C141     1.0000 0.22600  0.87350  0.42580  Biso   1.000  C
  C142     1.0000 0.77400  0.12650  0.42580  Biso   1.000  C
  C143     1.0000 0.72600  0.62650  0.42580  Biso   1.000  C
  C144     1.0000 0.27400  0.37350  0.42580  Biso   1.000  C
  H137     1.0000 0.24760  0.37280  0.98050  Biso   1.000  H
  H138     1.0000 0.75240  0.62720  0.98050  Biso   1.000  H
  H139     1.0000 0.74760  0.12720  0.98050  Biso   1.000  H
  H140     1.0000 0.25240  0.87280  0.98050  Biso   1.000  H
  H141     1.0000 0.24760  0.87280  0.48050  Biso   1.000  H
  H142     1.0000 0.75240  0.12720  0.48050  Biso   1.000  H
  H143     1.0000 0.74760  0.62720  0.48050  Biso   1.000  H
  H144     1.0000 0.25240  0.37280  0.48050  Biso   1.000  H
  C145     1.0000 0.19750  0.40450  0.95750  Biso   1.000  C
  C146     1.0000 0.80250  0.59550  0.95750  Biso   1.000  C
  C147     1.0000 0.69750  0.09550  0.95750  Biso   1.000  C
  C148     1.0000 0.30250  0.90450  0.95750  Biso   1.000  C
  C149     1.0000 0.19750  0.90450  0.45750  Biso   1.000  C
  C150     1.0000 0.80250  0.09550  0.45750  Biso   1.000  C
  C151     1.0000 0.69750  0.59550  0.45750  Biso   1.000  C
  C152     1.0000 0.30250  0.40450  0.45750  Biso   1.000  C
  H145     1.0000 0.20100  0.42560  0.03450  Biso   1.000  H
  H146     1.0000 0.79900  0.57440  0.03450  Biso   1.000  H
  H147     1.0000 0.70100  0.07440  0.03450  Biso   1.000  H
  H148     1.0000 0.29900  0.92560  0.03450  Biso   1.000  H
  H149     1.0000 0.20100  0.92560  0.53450  Biso   1.000  H
  H150     1.0000 0.79900  0.07440  0.53450  Biso   1.000  H
  H151     1.0000 0.70100  0.57440  0.53450  Biso   1.000  H
  H152     1.0000 0.29900  0.42560  0.53450  Biso   1.000  H
  N49      1.0000 0.16140  0.01410  0.48130  Biso   1.000  N
  N50      1.0000 0.83860  0.98590  0.48130  Biso   1.000  N
  N51      1.0000 0.66140  0.48590  0.48130  Biso   1.000  N
  N52      1.0000 0.33860  0.51410  0.48130  Biso   1.000  N
  N53      1.0000 0.16140  0.51410  0.98130  Biso   1.000  N
  N54      1.0000 0.83860  0.48590  0.98130  Biso   1.000  N
  N55      1.0000 0.66140  0.98590  0.98130  Biso   1.000  N
  N56      1.0000 0.33860  0.01410  0.98130  Biso   1.000  N
  N57      1.0000 0.23600  0.13380  0.49610  Biso   1.000  N
  N58      1.0000 0.76400  0.86620  0.49610  Biso   1.000  N
  N59      1.0000 0.73600  0.36620  0.49610  Biso   1.000  N
  N60      1.0000 0.26400  0.63380  0.49610  Biso   1.000  N
  N61      1.0000 0.23600  0.63380  0.99610  Biso   1.000  N
  N62      1.0000 0.76400  0.36620  0.99610  Biso   1.000  N
  N63      1.0000 0.73600  0.86620  0.99610  Biso   1.000  N
  N64      1.0000 0.26400  0.13380  0.99610  Biso   1.000  N
  H153     1.0000 0.24350  0.14240  0.41340  Biso   1.000  H
  H154     1.0000 0.75650  0.85760  0.41340  Biso   1.000  H
  H155     1.0000 0.74350  0.35760  0.41340  Biso   1.000  H
  H156     1.0000 0.25650  0.64240  0.41340  Biso   1.000  H
  H157     1.0000 0.24350  0.64240  0.91340  Biso   1.000  H
  H158     1.0000 0.75650  0.35760  0.91340  Biso   1.000  H
  H159     1.0000 0.74350  0.85760  0.91340  Biso   1.000  H
  H160     1.0000 0.25650  0.14240  0.91340  Biso   1.000  H
  C153     1.0000 0.18040  0.02760  0.36770  Biso   1.000  C
  C154     1.0000 0.81960  0.97240  0.36770  Biso   1.000  C
  C155     1.0000 0.68040  0.47240  0.36770  Biso   1.000  C
  C156     1.0000 0.31960  0.52760  0.36770  Biso   1.000  C
  C157     1.0000 0.18040  0.52760  0.86770  Biso   1.000  C
  C158     1.0000 0.81960  0.47240  0.86770  Biso   1.000  C
  C159     1.0000 0.68040  0.97240  0.86770  Biso   1.000  C
  C160     1.0000 0.31960  0.02760  0.86770  Biso   1.000  C
  C161     1.0000 0.20520  0.06700  0.36970  Biso   1.000  C
  C162     1.0000 0.79480  0.93300  0.36970  Biso   1.000  C
  C163     1.0000 0.70520  0.43300  0.36970  Biso   1.000  C
  C164     1.0000 0.29480  0.56700  0.36970  Biso   1.000  C
  C165     1.0000 0.20520  0.56700  0.86970  Biso   1.000  C
  C166     1.0000 0.79480  0.43300  0.86970  Biso   1.000  C
  C167     1.0000 0.70520  0.93300  0.86970  Biso   1.000  C
  C168     1.0000 0.29480  0.06700  0.86970  Biso   1.000  C
  C169     1.0000 0.21030  0.09210  0.49510  Biso   1.000  C
  C170     1.0000 0.78970  0.90790  0.49510  Biso   1.000  C
  C171     1.0000 0.71030  0.40790  0.49510  Biso   1.000  C
  C172     1.0000 0.28970  0.59210  0.49510  Biso   1.000  C
  C173     1.0000 0.21030  0.59210  0.99510  Biso   1.000  C
  C174     1.0000 0.78970  0.40790  0.99510  Biso   1.000  C
  C175     1.0000 0.71030  0.90790  0.99510  Biso   1.000  C
  C176     1.0000 0.28970  0.09210  0.99510  Biso   1.000  C
  C177     1.0000 0.19060  0.07800  0.61390  Biso   1.000  C
  C178     1.0000 0.80940  0.92200  0.61390  Biso   1.000  C
  C179     1.0000 0.69060  0.42200  0.61390  Biso   1.000  C
  C180     1.0000 0.30940  0.57800  0.61390  Biso   1.000  C
  C181     1.0000 0.19060  0.57800  0.11390  Biso   1.000  C
  C182     1.0000 0.80940  0.42200  0.11390  Biso   1.000  C
  C183     1.0000 0.69060  0.92200  0.11390  Biso   1.000  C
  C184     1.0000 0.30940  0.07800  0.11390  Biso   1.000  C
  C185     1.0000 0.16660  0.03750  0.60650  Biso   1.000  C
  C186     1.0000 0.83340  0.96250  0.60650  Biso   1.000  C
  C187     1.0000 0.66660  0.46250  0.60650  Biso   1.000  C
  C188     1.0000 0.33340  0.53750  0.60650  Biso   1.000  C
  C189     1.0000 0.16660  0.53750  0.10650  Biso   1.000  C
  C190     1.0000 0.83340  0.46250  0.10650  Biso   1.000  C
  C191     1.0000 0.66660  0.96250  0.10650  Biso   1.000  C
  C192     1.0000 0.33340  0.03750  0.10650  Biso   1.000  C
  O17      1.0000 0.23780  0.15860  0.71880  Biso   1.000  O
  O18      1.0000 0.76220  0.84140  0.71880  Biso   1.000  O
  O19      1.0000 0.73780  0.34140  0.71880  Biso   1.000  O
  O20      1.0000 0.26220  0.65860  0.71880  Biso   1.000  O
  O21      1.0000 0.23780  0.65860  0.21880  Biso   1.000  O
  O22      1.0000 0.76220  0.34140  0.21880  Biso   1.000  O
  O23      1.0000 0.73780  0.84140  0.21880  Biso   1.000  O
  O24      1.0000 0.26220  0.15860  0.21880  Biso   1.000  O
  O25      1.0000 0.22640  0.27140  0.57480  Biso   1.000  O
  O26      1.0000 0.77360  0.72860  0.57480  Biso   1.000  O
  O27      1.0000 0.72640  0.22860  0.57480  Biso   1.000  O
  O28      1.0000 0.27360  0.77140  0.57480  Biso   1.000  O
  O29      1.0000 0.22640  0.77140  0.07480  Biso   1.000  O
  O30      1.0000 0.77360  0.22860  0.07480  Biso   1.000  O
  O31      1.0000 0.72640  0.72860  0.07480  Biso   1.000  O
  O32      1.0000 0.27360  0.27140  0.07480  Biso   1.000  O
  C193     1.0000 0.25220  0.27410  0.66400  Biso   1.000  C
  C194     1.0000 0.74780  0.72590  0.66400  Biso   1.000  C
  C195     1.0000 0.75220  0.22590  0.66400  Biso   1.000  C
  C196     1.0000 0.24780  0.77410  0.66400  Biso   1.000  C
  C197     1.0000 0.25220  0.77410  0.16400  Biso   1.000  C
  C198     1.0000 0.74780  0.22590  0.16400  Biso   1.000  C
  C199     1.0000 0.75220  0.72590  0.16400  Biso   1.000  C
  C200     1.0000 0.24780  0.27410  0.16400  Biso   1.000  C
  C201     1.0000 0.28450  0.24150  0.66410  Biso   1.000  C
  C202     1.0000 0.71550  0.75850  0.66410  Biso   1.000  C
  C203     1.0000 0.78450  0.25850  0.66410  Biso   1.000  C
  C204     1.0000 0.21550  0.74150  0.66410  Biso   1.000  C
  C205     1.0000 0.28450  0.74150  0.16410  Biso   1.000  C
  C206     1.0000 0.71550  0.25850  0.16410  Biso   1.000  C
  C207     1.0000 0.78450  0.75850  0.16410  Biso   1.000  C
  C208     1.0000 0.21550  0.24150  0.16410  Biso   1.000  C
  H161     1.0000 0.28830  0.22810  0.75810  Biso   1.000  H
  H162     1.0000 0.71170  0.77190  0.75810  Biso   1.000  H
  H163     1.0000 0.78830  0.27190  0.75810  Biso   1.000  H
  H164     1.0000 0.21170  0.72810  0.75810  Biso   1.000  H
  H165     1.0000 0.28830  0.72810  0.25810  Biso   1.000  H
  H166     1.0000 0.71170  0.27190  0.25810  Biso   1.000  H
  H167     1.0000 0.78830  0.77190  0.25810  Biso   1.000  H
  H168     1.0000 0.21170  0.22810  0.25810  Biso   1.000  H
  H169     1.0000 0.30670  0.26080  0.63860  Biso   1.000  H
  H170     1.0000 0.69330  0.73920  0.63860  Biso   1.000  H
  H171     1.0000 0.80670  0.23920  0.63860  Biso   1.000  H
  H172     1.0000 0.19330  0.76080  0.63860  Biso   1.000  H
  H173     1.0000 0.30670  0.76080  0.13860  Biso   1.000  H
  H174     1.0000 0.69330  0.23920  0.13860  Biso   1.000  H
  H175     1.0000 0.80670  0.73920  0.13860  Biso   1.000  H
  H176     1.0000 0.19330  0.26080  0.13860  Biso   1.000  H
  C209     1.0000 0.27950  0.19910  0.56240  Biso   1.000  C
  C210     1.0000 0.72050  0.80090  0.56240  Biso   1.000  C
  C211     1.0000 0.77950  0.30090  0.56240  Biso   1.000  C
  C212     1.0000 0.22050  0.69910  0.56240  Biso   1.000  C
  C213     1.0000 0.27950  0.69910  0.06240  Biso   1.000  C
  C214     1.0000 0.72050  0.30090  0.06240  Biso   1.000  C
  C215     1.0000 0.77950  0.80090  0.06240  Biso   1.000  C
  C216     1.0000 0.22050  0.19910  0.06240  Biso   1.000  C
  H177     1.0000 0.27340  0.21310  0.47090  Biso   1.000  H
  H178     1.0000 0.72660  0.78690  0.47090  Biso   1.000  H
  H179     1.0000 0.77340  0.28690  0.47090  Biso   1.000  H
  H180     1.0000 0.22660  0.71310  0.47090  Biso   1.000  H
  H181     1.0000 0.27340  0.71310  0.97090  Biso   1.000  H
  H182     1.0000 0.72660  0.28690  0.97090  Biso   1.000  H
  H183     1.0000 0.77340  0.78690  0.97090  Biso   1.000  H
  H184     1.0000 0.22660  0.21310  0.97090  Biso   1.000  H
  H185     1.0000 0.30340  0.18160  0.55300  Biso   1.000  H
  H186     1.0000 0.69660  0.81840  0.55300  Biso   1.000  H
  H187     1.0000 0.80340  0.31840  0.55300  Biso   1.000  H
  H188     1.0000 0.19660  0.68160  0.55300  Biso   1.000  H
  H189     1.0000 0.30340  0.68160  0.05300  Biso   1.000  H
  H190     1.0000 0.69660  0.31840  0.05300  Biso   1.000  H
  H191     1.0000 0.80340  0.81840  0.05300  Biso   1.000  H
  H192     1.0000 0.19660  0.18160  0.05300  Biso   1.000  H
  C217     1.0000 0.25060  0.16200  0.60000  Biso   1.000  C
  C218     1.0000 0.74940  0.83800  0.60000  Biso   1.000  C
  C219     1.0000 0.75060  0.33800  0.60000  Biso   1.000  C
  C220     1.0000 0.24940  0.66200  0.60000  Biso   1.000  C
  C221     1.0000 0.25060  0.66200  0.10000  Biso   1.000  C
  C222     1.0000 0.74940  0.33800  0.10000  Biso   1.000  C
  C223     1.0000 0.75060  0.83800  0.10000  Biso   1.000  C
  C224     1.0000 0.24940  0.16200  0.10000  Biso   1.000  C
  O33      1.0000 0.10740  0.48180  0.72690  Biso   1.000  O
  O34      1.0000 0.89260  0.51820  0.72690  Biso   1.000  O
  O35      1.0000 0.60740  0.01820  0.72690  Biso   1.000  O
  O36      1.0000 0.39260  0.98180  0.72690  Biso   1.000  O
  O37      1.0000 0.10740  0.98180  0.22690  Biso   1.000  O
  O38      1.0000 0.89260  0.01820  0.22690  Biso   1.000  O
  O39      1.0000 0.60740  0.51820  0.22690  Biso   1.000  O
  O40      1.0000 0.39260  0.48180  0.22690  Biso   1.000  O
  Cl1      1.0000 0.14950  0.37500  0.33410  Biso   1.000  Cl
  Cl2      1.0000 0.85050  0.62500  0.33410  Biso   1.000  Cl
  Cl3      1.0000 0.64950  0.12500  0.33410  Biso   1.000  Cl
  Cl4      1.0000 0.35050  0.87500  0.33410  Biso   1.000  Cl
  Cl5      1.0000 0.14950  0.87500  0.83410  Biso   1.000  Cl
  Cl6      1.0000 0.85050  0.12500  0.83410  Biso   1.000  Cl
  Cl7      1.0000 0.64950  0.62500  0.83410  Biso   1.000  Cl
  Cl8      1.0000 0.35050  0.37500  0.83410  Biso   1.000  Cl
  O41      1.0000 0.12700  0.31080  0.37200  Biso   1.000  O
  O42      1.0000 0.87300  0.68920  0.37200  Biso   1.000  O
  O43      1.0000 0.62700  0.18920  0.37200  Biso   1.000  O
  O44      1.0000 0.37300  0.81080  0.37200  Biso   1.000  O
  O45      1.0000 0.12700  0.81080  0.87200  Biso   1.000  O
  O46      1.0000 0.87300  0.18920  0.87200  Biso   1.000  O
  O47      1.0000 0.62700  0.68920  0.87200  Biso   1.000  O
  O48      1.0000 0.37300  0.31080  0.87200  Biso   1.000  O
  O49      1.0000 0.17980  0.34750  0.38200  Biso   1.000  O
  O50      1.0000 0.82020  0.65250  0.38200  Biso   1.000  O
  O51      1.0000 0.67980  0.15250  0.38200  Biso   1.000  O
  O52      1.0000 0.32020  0.84750  0.38200  Biso   1.000  O
  O53      1.0000 0.17980  0.84750  0.88200  Biso   1.000  O
  O54      1.0000 0.82020  0.15250  0.88200  Biso   1.000  O
  O55      1.0000 0.67980  0.65250  0.88200  Biso   1.000  O
  O56      1.0000 0.32020  0.34750  0.88200  Biso   1.000  O
  O57      1.0000 0.11810  0.38390  0.43300  Biso   1.000  O
  O58      1.0000 0.88190  0.61610  0.43300  Biso   1.000  O
  O59      1.0000 0.61810  0.11610  0.43300  Biso   1.000  O
  O60      1.0000 0.38190  0.88390  0.43300  Biso   1.000  O
  O61      1.0000 0.11810  0.88390  0.93300  Biso   1.000  O
  O62      1.0000 0.88190  0.11610  0.93300  Biso   1.000  O
  O63      1.0000 0.61810  0.61610  0.93300  Biso   1.000  O
  O64      1.0000 0.38190  0.38390  0.93300  Biso   1.000  O
  O65      1.0000 0.14760  0.41900  0.22860  Biso   1.000  O
  O66      1.0000 0.85240  0.58100  0.22860  Biso   1.000  O
  O67      1.0000 0.64760  0.08100  0.22860  Biso   1.000  O
  O68      1.0000 0.35240  0.91900  0.22860  Biso   1.000  O
  O69      1.0000 0.14760  0.91900  0.72860  Biso   1.000  O
  O70      1.0000 0.85240  0.08100  0.72860  Biso   1.000  O
  O71      1.0000 0.64760  0.58100  0.72860  Biso   1.000  O
  O72      1.0000 0.35240  0.41900  0.72860  Biso   1.000  O
  Cl9      1.0000 0.50000  0.00000  0.66020  Biso   1.000  Cl
  Cl10     1.0000 0.00000  0.50000  0.66020  Biso   1.000  Cl
  Cl11     1.0000 0.50000  0.50000  0.16020  Biso   1.000  Cl
  Cl12     1.0000 0.00000  0.00000  0.16020  Biso   1.000  Cl
  O73      1.0000 0.48140  0.96190  0.58540  Biso   1.000  O
  O74      1.0000 0.51860  0.03810  0.58540  Biso   1.000  O
  O75      1.0000 0.98140  0.53810  0.58540  Biso   1.000  O
  O76      1.0000 0.01860  0.46190  0.58540  Biso   1.000  O
  O77      1.0000 0.48140  0.46190  0.08540  Biso   1.000  O
  O78      1.0000 0.51860  0.53810  0.08540  Biso   1.000  O
  O79      1.0000 0.98140  0.03810  0.08540  Biso   1.000  O
  O80      1.0000 0.01860  0.96190  0.08540  Biso   1.000  O
  O81      1.0000 0.53420  0.97320  0.68300  Biso   1.000  O
  O82      1.0000 0.46580  0.02680  0.68300  Biso   1.000  O
  O83      1.0000 0.03420  0.52680  0.68300  Biso   1.000  O
  O84      1.0000 0.96580  0.47320  0.68300  Biso   1.000  O
  O85      1.0000 0.53420  0.47320  0.18300  Biso   1.000  O
  O86      1.0000 0.46580  0.52680  0.18300  Biso   1.000  O
  O87      1.0000 0.03420  0.02680  0.18300  Biso   1.000  O
  O88      1.0000 0.96580  0.97320  0.18300  Biso   1.000  O
  O89      1.0000 0.50000  0.00000  0.81300  Biso   1.000  O
  O90      1.0000 0.00000  0.50000  0.81300  Biso   1.000  O
  O91      1.0000 0.50000  0.50000  0.31300  Biso   1.000  O
  O92      1.0000 0.00000  0.00000  0.31300  Biso   1.000  O
  Cl13     1.0000 0.29630  0.50140  0.99140  Biso   1.000  Cl
  Cl14     1.0000 0.70370  0.49860  0.99140  Biso   1.000  Cl
  Cl15     1.0000 0.79630  0.99860  0.99140  Biso   1.000  Cl
  Cl16     1.0000 0.20370  0.00140  0.99140  Biso   1.000  Cl
  Cl17     1.0000 0.29630  0.00140  0.49140  Biso   1.000  Cl
  Cl18     1.0000 0.70370  0.99860  0.49140  Biso   1.000  Cl
  Cl19     1.0000 0.79630  0.49860  0.49140  Biso   1.000  Cl
  Cl20     1.0000 0.20370  0.50140  0.49140  Biso   1.000  Cl
  O93      1.0000 0.27840  0.48010  0.85300  Biso   1.000  O
  O94      1.0000 0.72160  0.51990  0.85300  Biso   1.000  O
  O95      1.0000 0.77840  0.01990  0.85300  Biso   1.000  O
  O96      1.0000 0.22160  0.98010  0.85300  Biso   1.000  O
  O97      1.0000 0.27840  0.98010  0.35300  Biso   1.000  O
  O98      1.0000 0.72160  0.01990  0.35300  Biso   1.000  O
  O99      1.0000 0.77840  0.51990  0.35300  Biso   1.000  O
  O100     1.0000 0.22160  0.48010  0.35300  Biso   1.000  O
  O101     1.0000 0.31250  0.56500  0.99900  Biso   1.000  O
  O102     1.0000 0.68750  0.43500  0.99900  Biso   1.000  O
  O103     1.0000 0.81250  0.93500  0.99900  Biso   1.000  O
  O104     1.0000 0.18750  0.06500  0.99900  Biso   1.000  O
  O105     1.0000 0.31250  0.06500  0.49900  Biso   1.000  O
  O106     1.0000 0.68750  0.93500  0.49900  Biso   1.000  O
  O107     1.0000 0.81250  0.43500  0.49900  Biso   1.000  O
  O108     1.0000 0.18750  0.56500  0.49900  Biso   1.000  O
  O109     1.0000 0.26840  0.47560  0.12000  Biso   1.000  O
  O110     1.0000 0.73160  0.52440  0.12000  Biso   1.000  O
  O111     1.0000 0.76840  0.02440  0.12000  Biso   1.000  O
  O112     1.0000 0.23160  0.97560  0.12000  Biso   1.000  O
  O113     1.0000 0.26840  0.97560  0.62000  Biso   1.000  O
  O114     1.0000 0.73160  0.02440  0.62000  Biso   1.000  O
  O115     1.0000 0.76840  0.52440  0.62000  Biso   1.000  O
  O116     1.0000 0.23160  0.47560  0.62000  Biso   1.000  O
  O117     1.0000 0.33740  0.48760  0.02600  Biso   1.000  O
  O118     1.0000 0.66260  0.51240  0.02600  Biso   1.000  O
  O119     1.0000 0.83740  0.01240  0.02600  Biso   1.000  O
  O120     1.0000 0.16260  0.98760  0.02600  Biso   1.000  O
  O121     1.0000 0.33740  0.98760  0.52600  Biso   1.000  O
  O122     1.0000 0.66260  0.01240  0.52600  Biso   1.000  O
  O123     1.0000 0.83740  0.51240  0.52600  Biso   1.000  O
  O124     1.0000 0.16260  0.48760  0.52600  Biso   1.000  O
