data_image0
_cell_length_a       13.1933
_cell_length_b       7.93
_cell_length_c       25.363
_cell_angle_alpha    90
_cell_angle_beta     115.413
_cell_angle_gamma    90

_symmetry_space_group_name_H-M    "P 1"
_symmetry_int_tables_number       1

loop_
  _symmetry_equiv_pos_as_xyz
  'x, y, z'

loop_
  _atom_site_label
  _atom_site_occupancy
  _atom_site_fract_x
  _atom_site_fract_y
  _atom_site_fract_z
  _atom_site_thermal_displace_type
  _atom_site_B_iso_or_equiv
  _atom_site_type_symbol
  Cu1      1.0000 0.19957  0.58865  0.07451  Biso   1.000  Cu
  Cu2      1.0000 0.80043  0.58865  0.42549  Biso   1.000  Cu
  Cu3      1.0000 0.80043  0.41135  0.92549  Biso   1.000  Cu
  Cu4      1.0000 0.19957  0.41135  0.57451  Biso   1.000  Cu
  S1       1.0000 0.17118  0.65974  0.94345  Biso   1.000  S
  S2       1.0000 0.82882  0.65974  0.55655  Biso   1.000  S
  S3       1.0000 0.82882  0.34026  0.05655  Biso   1.000  S
  S4       1.0000 0.17118  0.34026  0.44345  Biso   1.000  S
  O1       1.0000 0.28400  0.89670  0.07635  Biso   1.000  O
  O2       1.0000 0.71600  0.89670  0.42365  Biso   1.000  O
  O3       1.0000 0.71600  0.10330  0.92365  Biso   1.000  O
  O4       1.0000 0.28400  0.10330  0.57635  Biso   1.000  O
  O5       1.0000 0.48290  0.88540  0.36261  Biso   1.000  O
  O6       1.0000 0.51710  0.88540  0.13739  Biso   1.000  O
  O7       1.0000 0.51710  0.11460  0.63739  Biso   1.000  O
  O8       1.0000 0.48290  0.11460  0.86261  Biso   1.000  O
  O9       1.0000 0.72240  0.18850  0.24872  Biso   1.000  O
  O10      1.0000 0.27760  0.18850  0.25128  Biso   1.000  O
  O11      1.0000 0.27760  0.81150  0.75128  Biso   1.000  O
  O12      1.0000 0.72240  0.81150  0.74872  Biso   1.000  O
  O13      1.0000 0.25930  0.59820  0.92886  Biso   1.000  O
  O14      1.0000 0.74070  0.59820  0.57114  Biso   1.000  O
  O15      1.0000 0.74070  0.40180  0.07114  Biso   1.000  O
  O16      1.0000 0.25930  0.40180  0.42886  Biso   1.000  O
  O17      1.0000 0.18650  0.83740  0.95961  Biso   1.000  O
  O18      1.0000 0.81350  0.83740  0.54039  Biso   1.000  O
  O19      1.0000 0.81350  0.16260  0.04039  Biso   1.000  O
  O20      1.0000 0.18650  0.16260  0.45961  Biso   1.000  O
  O21      1.0000 0.06400  0.63400  0.89354  Biso   1.000  O
  O22      1.0000 0.93600  0.63400  0.60646  Biso   1.000  O
  O23      1.0000 0.93600  0.36600  0.10646  Biso   1.000  O
  O24      1.0000 0.06400  0.36600  0.39354  Biso   1.000  O
  O25      1.0000 0.17300  0.55760  0.99295  Biso   1.000  O
  O26      1.0000 0.82700  0.55760  0.50705  Biso   1.000  O
  O27      1.0000 0.82700  0.44240  0.00705  Biso   1.000  O
  O28      1.0000 0.17300  0.44240  0.49295  Biso   1.000  O
  O29      1.0000 0.09960  0.34880  0.06942  Biso   1.000  O
  O30      1.0000 0.90040  0.34880  0.43058  Biso   1.000  O
  O31      1.0000 0.90040  0.65120  0.93058  Biso   1.000  O
  O32      1.0000 0.09960  0.65120  0.56942  Biso   1.000  O
  O33      1.0000 0.05230  0.70530  0.04601  Biso   1.000  O
  O34      1.0000 0.94770  0.70530  0.45399  Biso   1.000  O
  O35      1.0000 0.94770  0.29470  0.95399  Biso   1.000  O
  O36      1.0000 0.05230  0.29470  0.54601  Biso   1.000  O
  N1       1.0000 0.30330  0.79280  0.32876  Biso   1.000  N
  N2       1.0000 0.69670  0.79280  0.17124  Biso   1.000  N
  N3       1.0000 0.69670  0.20720  0.67124  Biso   1.000  N
  N4       1.0000 0.30330  0.20720  0.82876  Biso   1.000  N
  H1       1.0000 0.24890  0.77810  0.33840  Biso   1.000  H
  H2       1.0000 0.75110  0.77810  0.16160  Biso   1.000  H
  H3       1.0000 0.75110  0.22190  0.66160  Biso   1.000  H
  H4       1.0000 0.24890  0.22190  0.83840  Biso   1.000  H
  N5       1.0000 0.68180  0.30230  0.16006  Biso   1.000  N
  N6       1.0000 0.31820  0.30230  0.33994  Biso   1.000  N
  N7       1.0000 0.31820  0.69770  0.83994  Biso   1.000  N
  N8       1.0000 0.68180  0.69770  0.66006  Biso   1.000  N
  H5       1.0000 0.70950  0.31870  0.13530  Biso   1.000  H
  H6       1.0000 0.29050  0.31870  0.36470  Biso   1.000  H
  H7       1.0000 0.29050  0.68130  0.86470  Biso   1.000  H
  H8       1.0000 0.70950  0.68130  0.63530  Biso   1.000  H
  N9       1.0000 0.23270  0.64620  0.15771  Biso   1.000  N
  N10      1.0000 0.76730  0.64620  0.34229  Biso   1.000  N
  N11      1.0000 0.76730  0.35380  0.84229  Biso   1.000  N
  N12      1.0000 0.23270  0.35380  0.65771  Biso   1.000  N
  N13      1.0000 0.35070  0.47390  0.10095  Biso   1.000  N
  N14      1.0000 0.64930  0.47390  0.39905  Biso   1.000  N
  N15      1.0000 0.64930  0.52610  0.89905  Biso   1.000  N
  N16      1.0000 0.35070  0.52610  0.60095  Biso   1.000  N
  C1       1.0000 0.40010  0.86040  0.37036  Biso   1.000  C
  C2       1.0000 0.59990  0.86040  0.12964  Biso   1.000  C
  C3       1.0000 0.59990  0.13960  0.62964  Biso   1.000  C
  C4       1.0000 0.40010  0.13960  0.87036  Biso   1.000  C
  C5       1.0000 0.39450  0.90230  0.42742  Biso   1.000  C
  C6       1.0000 0.60550  0.90230  0.07258  Biso   1.000  C
  C7       1.0000 0.60550  0.09770  0.57258  Biso   1.000  C
  C8       1.0000 0.39450  0.09770  0.92742  Biso   1.000  C
  H9       1.0000 0.33600  0.98530  0.42020  Biso   1.000  H
  H10      1.0000 0.66400  0.98530  0.07980  Biso   1.000  H
  H11      1.0000 0.66400  0.01470  0.57980  Biso   1.000  H
  H12      1.0000 0.33600  0.01470  0.92020  Biso   1.000  H
  H13      1.0000 0.37480  0.80150  0.44260  Biso   1.000  H
  H14      1.0000 0.62520  0.80150  0.05740  Biso   1.000  H
  H15      1.0000 0.62520  0.19850  0.55740  Biso   1.000  H
  H16      1.0000 0.37480  0.19850  0.94260  Biso   1.000  H
  C9       1.0000 0.50480  0.97060  0.47260  Biso   1.000  C
  C10      1.0000 0.49520  0.97060  0.02740  Biso   1.000  C
  C11      1.0000 0.49520  0.02940  0.52740  Biso   1.000  C
  C12      1.0000 0.50480  0.02940  0.97260  Biso   1.000  C
  H17      1.0000 0.52840  0.06440  0.45600  Biso   1.000  H
  H18      1.0000 0.47160  0.06440  0.04400  Biso   1.000  H
  H19      1.0000 0.47160  0.93560  0.54400  Biso   1.000  H
  H20      1.0000 0.52840  0.93560  0.95600  Biso   1.000  H
  H21      1.0000 0.56160  0.88340  0.48290  Biso   1.000  H
  H22      1.0000 0.43840  0.88340  0.01710  Biso   1.000  H
  H23      1.0000 0.43840  0.11660  0.51710  Biso   1.000  H
  H24      1.0000 0.56160  0.11660  0.98290  Biso   1.000  H
  C13      1.0000 0.28420  0.74570  0.27250  Biso   1.000  C
  C14      1.0000 0.71580  0.74570  0.22750  Biso   1.000  C
  C15      1.0000 0.71580  0.25430  0.72750  Biso   1.000  C
  C16      1.0000 0.28420  0.25430  0.77250  Biso   1.000  C
  C17      1.0000 0.35830  0.77270  0.24790  Biso   1.000  C
  C18      1.0000 0.64170  0.77270  0.25210  Biso   1.000  C
  C19      1.0000 0.64170  0.22730  0.75210  Biso   1.000  C
  C20      1.0000 0.35830  0.22730  0.74790  Biso   1.000  C
  H25      1.0000 0.42690  0.82500  0.26940  Biso   1.000  H
  H26      1.0000 0.57310  0.82500  0.23060  Biso   1.000  H
  H27      1.0000 0.57310  0.17500  0.73060  Biso   1.000  H
  H28      1.0000 0.42690  0.17500  0.76940  Biso   1.000  H
  C21      1.0000 0.33010  0.72210  0.19157  Biso   1.000  C
  C22      1.0000 0.66990  0.72210  0.30843  Biso   1.000  C
  C23      1.0000 0.66990  0.27790  0.80843  Biso   1.000  C
  C24      1.0000 0.33010  0.27790  0.69157  Biso   1.000  C
  H29      1.0000 0.38140  0.74130  0.17600  Biso   1.000  H
  H30      1.0000 0.61860  0.74130  0.32400  Biso   1.000  H
  H31      1.0000 0.61860  0.25870  0.82400  Biso   1.000  H
  H32      1.0000 0.38140  0.25870  0.67600  Biso   1.000  H
  C25      1.0000 0.16100  0.62190  0.18137  Biso   1.000  C
  C26      1.0000 0.83900  0.62190  0.31863  Biso   1.000  C
  C27      1.0000 0.83900  0.37810  0.81863  Biso   1.000  C
  C28      1.0000 0.16100  0.37810  0.68137  Biso   1.000  C
  H33      1.0000 0.09280  0.56990  0.15890  Biso   1.000  H
  H34      1.0000 0.90720  0.56990  0.34110  Biso   1.000  H
  H35      1.0000 0.90720  0.43010  0.84110  Biso   1.000  H
  H36      1.0000 0.09280  0.43010  0.65890  Biso   1.000  H
  C29      1.0000 0.18270  0.66970  0.23727  Biso   1.000  C
  C30      1.0000 0.81730  0.66970  0.26273  Biso   1.000  C
  C31      1.0000 0.81730  0.33030  0.76273  Biso   1.000  C
  C32      1.0000 0.18270  0.33030  0.73727  Biso   1.000  C
  H37      1.0000 0.12940  0.65110  0.25150  Biso   1.000  H
  H38      1.0000 0.87060  0.65110  0.24850  Biso   1.000  H
  H39      1.0000 0.87060  0.34890  0.74850  Biso   1.000  H
  H40      1.0000 0.12940  0.34890  0.75150  Biso   1.000  H
  C33      1.0000 0.75280  0.23350  0.21208  Biso   1.000  C
  C34      1.0000 0.24720  0.23350  0.28792  Biso   1.000  C
  C35      1.0000 0.24720  0.76650  0.78792  Biso   1.000  C
  C36      1.0000 0.75280  0.76650  0.71208  Biso   1.000  C
  C37      1.0000 0.88060  0.26410  0.23090  Biso   1.000  C
  C38      1.0000 0.11940  0.26410  0.26910  Biso   1.000  C
  C39      1.0000 0.11940  0.73590  0.76910  Biso   1.000  C
  C40      1.0000 0.88060  0.73590  0.73090  Biso   1.000  C
  H41      1.0000 0.89120  0.34180  0.20420  Biso   1.000  H
  H42      1.0000 0.10880  0.34180  0.29580  Biso   1.000  H
  H43      1.0000 0.10880  0.65820  0.79580  Biso   1.000  H
  H44      1.0000 0.89120  0.65820  0.70420  Biso   1.000  H
  H45      1.0000 0.91510  0.31200  0.26980  Biso   1.000  H
  H46      1.0000 0.08490  0.31200  0.23020  Biso   1.000  H
  H47      1.0000 0.08490  0.68800  0.73020  Biso   1.000  H
  H48      1.0000 0.91510  0.68800  0.76980  Biso   1.000  H
  C41      1.0000 0.93180  0.09890  0.22990  Biso   1.000  C
  C42      1.0000 0.06820  0.09890  0.27010  Biso   1.000  C
  C43      1.0000 0.06820  0.90110  0.77010  Biso   1.000  C
  C44      1.0000 0.93180  0.90110  0.72990  Biso   1.000  C
  H49      1.0000 0.91660  0.07100  0.19000  Biso   1.000  H
  H50      1.0000 0.08340  0.07100  0.31000  Biso   1.000  H
  H51      1.0000 0.08340  0.92900  0.81000  Biso   1.000  H
  H52      1.0000 0.91660  0.92900  0.69000  Biso   1.000  H
  H53      1.0000 0.89770  0.01260  0.24410  Biso   1.000  H
  H54      1.0000 0.10230  0.01260  0.25590  Biso   1.000  H
  H55      1.0000 0.10230  0.98740  0.75590  Biso   1.000  H
  H56      1.0000 0.89770  0.98740  0.74410  Biso   1.000  H
  C45      1.0000 0.39800  0.38040  0.14953  Biso   1.000  C
  C46      1.0000 0.60200  0.38040  0.35047  Biso   1.000  C
  C47      1.0000 0.60200  0.61960  0.85047  Biso   1.000  C
  C48      1.0000 0.39800  0.61960  0.64953  Biso   1.000  C
  H57      1.0000 0.35520  0.35700  0.16980  Biso   1.000  H
  H58      1.0000 0.64480  0.35700  0.33020  Biso   1.000  H
  H59      1.0000 0.64480  0.64300  0.83020  Biso   1.000  H
  H60      1.0000 0.35520  0.64300  0.66980  Biso   1.000  H
  C49      1.0000 0.50520  0.31660  0.17161  Biso   1.000  C
  C50      1.0000 0.49480  0.31660  0.32839  Biso   1.000  C
  C51      1.0000 0.49480  0.68340  0.82839  Biso   1.000  C
  C52      1.0000 0.50520  0.68340  0.67161  Biso   1.000  C
  H61      1.0000 0.53370  0.25290  0.20570  Biso   1.000  H
  H62      1.0000 0.46630  0.25290  0.29430  Biso   1.000  H
  H63      1.0000 0.46630  0.74710  0.79430  Biso   1.000  H
  H64      1.0000 0.53370  0.74710  0.70570  Biso   1.000  H
  C53      1.0000 0.56990  0.34970  0.14173  Biso   1.000  C
  C54      1.0000 0.43010  0.34970  0.35827  Biso   1.000  C
  C55      1.0000 0.43010  0.65030  0.85827  Biso   1.000  C
  C56      1.0000 0.56990  0.65030  0.64173  Biso   1.000  C
  C57      1.0000 0.52010  0.44020  0.08979  Biso   1.000  C
  C58      1.0000 0.47990  0.44020  0.41021  Biso   1.000  C
  C59      1.0000 0.47990  0.55980  0.91021  Biso   1.000  C
  C60      1.0000 0.52010  0.55980  0.58979  Biso   1.000  C
  H65      1.0000 0.55990  0.46060  0.06780  Biso   1.000  H
  H66      1.0000 0.44010  0.46060  0.43220  Biso   1.000  H
  H67      1.0000 0.44010  0.53940  0.93220  Biso   1.000  H
  H68      1.0000 0.55990  0.53940  0.56780  Biso   1.000  H
  C61      1.0000 0.41330  0.49900  0.07118  Biso   1.000  C
  C62      1.0000 0.58670  0.49900  0.42882  Biso   1.000  C
  C63      1.0000 0.58670  0.50100  0.92882  Biso   1.000  C
  C64      1.0000 0.41330  0.50100  0.57118  Biso   1.000  C
  H69      1.0000 0.38190  0.55920  0.03640  Biso   1.000  H
  H70      1.0000 0.61810  0.55920  0.46360  Biso   1.000  H
  H71      1.0000 0.61810  0.44080  0.96360  Biso   1.000  H
  H72      1.0000 0.38190  0.44080  0.53640  Biso   1.000  H
  O37      1.0000 0.18660  0.07080  0.13694  Biso   1.000  O
  O38      1.0000 0.81340  0.07080  0.36306  Biso   1.000  O
  O39      1.0000 0.81340  0.92920  0.86306  Biso   1.000  O
  O40      1.0000 0.18660  0.92920  0.63694  Biso   1.000  O
  O41      1.0000 0.97500  0.93070  0.10070  Biso   1.000  O
  O42      1.0000 0.02500  0.93070  0.39930  Biso   1.000  O
  O43      1.0000 0.02500  0.06930  0.89930  Biso   1.000  O
  O44      1.0000 0.97500  0.06930  0.60070  Biso   1.000  O
  O45      1.0000 0.11810  0.70220  0.34900  Biso   1.000  O
  O46      1.0000 0.88190  0.70220  0.15100  Biso   1.000  O
  O47      1.0000 0.88190  0.29780  0.65100  Biso   1.000  O
  O48      1.0000 0.11810  0.29780  0.84900  Biso   1.000  O
  C65      1.0000 0.94830  0.11450  0.26680  Biso   1.000  C
  C66      1.0000 0.05170  0.11450  0.23320  Biso   1.000  C
  C67      1.0000 0.05170  0.88550  0.73320  Biso   1.000  C
  C68      1.0000 0.94830  0.88550  0.76680  Biso   1.000  C
  C69      1.0000 0.86390  0.18340  0.20930  Biso   1.000  C
  C70      1.0000 0.13610  0.18340  0.29070  Biso   1.000  C
  C71      1.0000 0.13610  0.81660  0.79070  Biso   1.000  C
  C72      1.0000 0.86390  0.81660  0.70930  Biso   1.000  C
  H73      1.0000 0.93030  0.00320  0.27620  Biso   1.000  H
  H74      1.0000 0.06970  0.00320  0.22380  Biso   1.000  H
  H75      1.0000 0.06970  0.99680  0.72380  Biso   1.000  H
  H76      1.0000 0.93030  0.99680  0.77620  Biso   1.000  H
  H77      1.0000 0.96740  0.19150  0.29940  Biso   1.000  H
  H78      1.0000 0.03260  0.19150  0.20060  Biso   1.000  H
  H79      1.0000 0.03260  0.80850  0.70060  Biso   1.000  H
  H80      1.0000 0.96740  0.80850  0.79940  Biso   1.000  H
  H81      1.0000 0.84850  0.09880  0.17920  Biso   1.000  H
  H82      1.0000 0.15150  0.09880  0.32080  Biso   1.000  H
  H83      1.0000 0.15150  0.90120  0.82080  Biso   1.000  H
  H84      1.0000 0.84850  0.90120  0.67920  Biso   1.000  H
  H85      1.0000 0.89540  0.28140  0.19890  Biso   1.000  H
  H86      1.0000 0.10460  0.28140  0.30110  Biso   1.000  H
  H87      1.0000 0.10460  0.71860  0.80110  Biso   1.000  H
  H88      1.0000 0.89540  0.71860  0.69890  Biso   1.000  H
