data_image0
_cell_length_a       11.8971
_cell_length_b       14.8682
_cell_length_c       16.4846
_cell_angle_alpha    90
_cell_angle_beta     92.979
_cell_angle_gamma    90

_symmetry_space_group_name_H-M    "P 1"
_symmetry_int_tables_number       1

loop_
  _symmetry_equiv_pos_as_xyz
  'x, y, z'

loop_
  _atom_site_label
  _atom_site_occupancy
  _atom_site_fract_x
  _atom_site_fract_y
  _atom_site_fract_z
  _atom_site_thermal_displace_type
  _atom_site_B_iso_or_equiv
  _atom_site_type_symbol
  Cu1      1.0000 0.50000  0.50000  0.00000  Biso   1.000  Cu
  Cu2      1.0000 0.00000  0.00000  0.50000  Biso   1.000  Cu
  Cu3      1.0000 0.50000  0.50000  0.50000  Biso   1.000  Cu
  Cu4      1.0000 0.00000  0.00000  0.00000  Biso   1.000  Cu
  S1       1.0000 0.27870  0.72305  0.11794  Biso   1.000  S
  S2       1.0000 0.22130  0.22305  0.38206  Biso   1.000  S
  S3       1.0000 0.72130  0.27695  0.88206  Biso   1.000  S
  S4       1.0000 0.77870  0.77695  0.61794  Biso   1.000  S
  C1       1.0000 0.35080  0.64310  0.07570  Biso   1.000  C
  C2       1.0000 0.14920  0.14310  0.42430  Biso   1.000  C
  C3       1.0000 0.64920  0.35690  0.92430  Biso   1.000  C
  C4       1.0000 0.85080  0.85690  0.57570  Biso   1.000  C
  N1       1.0000 0.39920  0.58740  0.04520  Biso   1.000  N
  N2       1.0000 0.10080  0.08740  0.45480  Biso   1.000  N
  N3       1.0000 0.60080  0.41260  0.95480  Biso   1.000  N
  N4       1.0000 0.89920  0.91260  0.54520  Biso   1.000  N
  S5       1.0000 0.62700  0.26085  0.34675  Biso   1.000  S
  S6       1.0000 0.87300  0.76085  0.15325  Biso   1.000  S
  S7       1.0000 0.37300  0.73915  0.65325  Biso   1.000  S
  S8       1.0000 0.12700  0.23915  0.84675  Biso   1.000  S
  C5       1.0000 0.60020  0.34320  0.40710  Biso   1.000  C
  C6       1.0000 0.89980  0.84320  0.09290  Biso   1.000  C
  C7       1.0000 0.39980  0.65680  0.59290  Biso   1.000  C
  C8       1.0000 0.10020  0.15680  0.90710  Biso   1.000  C
  N5       1.0000 0.58090  0.40120  0.44980  Biso   1.000  N
  N6       1.0000 0.91910  0.90120  0.05020  Biso   1.000  N
  N7       1.0000 0.41910  0.59880  0.55020  Biso   1.000  N
  N8       1.0000 0.08090  0.09880  0.94980  Biso   1.000  N
  N9       1.0000 0.59610  0.50220  0.10460  Biso   1.000  N
  N10      1.0000 0.90390  0.00220  0.39540  Biso   1.000  N
  N11      1.0000 0.40390  0.49780  0.89540  Biso   1.000  N
  N12      1.0000 0.09610  0.99780  0.60460  Biso   1.000  N
  O1       1.0000 0.96350  0.48170  0.28110  Biso   1.000  O
  O2       1.0000 0.53650  0.98170  0.21890  Biso   1.000  O
  O3       1.0000 0.03650  0.51830  0.71890  Biso   1.000  O
  O4       1.0000 0.46350  0.01830  0.78110  Biso   1.000  O
  N13      1.0000 0.79010  0.50620  0.32270  Biso   1.000  N
  N14      1.0000 0.70990  0.00620  0.17730  Biso   1.000  N
  N15      1.0000 0.20990  0.49380  0.67730  Biso   1.000  N
  N16      1.0000 0.29010  0.99380  0.82270  Biso   1.000  N
  H1       1.0000 0.75230  0.51540  0.36500  Biso   1.000  H
  H2       1.0000 0.74770  0.01540  0.13500  Biso   1.000  H
  H3       1.0000 0.24770  0.48460  0.63500  Biso   1.000  H
  H4       1.0000 0.25230  0.98460  0.86500  Biso   1.000  H
  C9       1.0000 0.55210  0.49150  0.17640  Biso   1.000  C
  C10      1.0000 0.94790  0.99150  0.32360  Biso   1.000  C
  C11      1.0000 0.44790  0.50850  0.82360  Biso   1.000  C
  C12      1.0000 0.05210  0.00850  0.67640  Biso   1.000  C
  H5       1.0000 0.47490  0.48230  0.17800  Biso   1.000  H
  H6       1.0000 0.02510  0.98230  0.32200  Biso   1.000  H
  H7       1.0000 0.52510  0.51770  0.82200  Biso   1.000  H
  H8       1.0000 0.97490  0.01770  0.67800  Biso   1.000  H
  C13      1.0000 0.61400  0.49320  0.24670  Biso   1.000  C
  C14      1.0000 0.88600  0.99320  0.25330  Biso   1.000  C
  C15      1.0000 0.38600  0.50680  0.75330  Biso   1.000  C
  C16      1.0000 0.11400  0.00680  0.74670  Biso   1.000  C
  H9       1.0000 0.57880  0.48640  0.29540  Biso   1.000  H
  H10      1.0000 0.92120  0.98640  0.20460  Biso   1.000  H
  H11      1.0000 0.42120  0.51360  0.70460  Biso   1.000  H
  H12      1.0000 0.07880  0.01360  0.79540  Biso   1.000  H
  C17      1.0000 0.72970  0.50510  0.24780  Biso   1.000  C
  C18      1.0000 0.77030  0.00510  0.25220  Biso   1.000  C
  C19      1.0000 0.27030  0.49490  0.75220  Biso   1.000  C
  C20      1.0000 0.22970  0.99490  0.74780  Biso   1.000  C
  C21      1.0000 0.77580  0.51420  0.17310  Biso   1.000  C
  C22      1.0000 0.72420  0.01420  0.32690  Biso   1.000  C
  C23      1.0000 0.22420  0.48580  0.82690  Biso   1.000  C
  C24      1.0000 0.27580  0.98580  0.67310  Biso   1.000  C
  H13      1.0000 0.85320  0.52060  0.16960  Biso   1.000  H
  H14      1.0000 0.64680  0.02060  0.33040  Biso   1.000  H
  H15      1.0000 0.14680  0.47940  0.83040  Biso   1.000  H
  H16      1.0000 0.35320  0.97940  0.66960  Biso   1.000  H
  C25      1.0000 0.70730  0.51360  0.10500  Biso   1.000  C
  C26      1.0000 0.79270  0.01360  0.39500  Biso   1.000  C
  C27      1.0000 0.29270  0.48640  0.89500  Biso   1.000  C
  C28      1.0000 0.20730  0.98640  0.60500  Biso   1.000  C
  H17      1.0000 0.73970  0.52170  0.05540  Biso   1.000  H
  H18      1.0000 0.76030  0.02170  0.44460  Biso   1.000  H
  H19      1.0000 0.26030  0.47830  0.94460  Biso   1.000  H
  H20      1.0000 0.23970  0.97830  0.55540  Biso   1.000  H
  C29      1.0000 0.90300  0.49420  0.33520  Biso   1.000  C
  C30      1.0000 0.59700  0.99420  0.16480  Biso   1.000  C
  C31      1.0000 0.09700  0.50580  0.66480  Biso   1.000  C
  C32      1.0000 0.40300  0.00580  0.83520  Biso   1.000  C
  C33      1.0000 0.94780  0.49840  0.42160  Biso   1.000  C
  C34      1.0000 0.55220  0.99840  0.07840  Biso   1.000  C
  C35      1.0000 0.05220  0.50160  0.57840  Biso   1.000  C
  C36      1.0000 0.44780  0.00160  0.92160  Biso   1.000  C
  C37      1.0000 0.89180  0.53290  0.48570  Biso   1.000  C
  C38      1.0000 0.60820  0.03290  0.01430  Biso   1.000  C
  C39      1.0000 0.10820  0.46710  0.51430  Biso   1.000  C
  C40      1.0000 0.39180  0.96710  0.98570  Biso   1.000  C
  H21      1.0000 0.81950  0.55580  0.47670  Biso   1.000  H
  H22      1.0000 0.68050  0.05580  0.02330  Biso   1.000  H
  H23      1.0000 0.18050  0.44420  0.52330  Biso   1.000  H
  H24      1.0000 0.31950  0.94420  0.97670  Biso   1.000  H
  C41      1.0000 0.05810  0.46640  0.43690  Biso   1.000  C
  C42      1.0000 0.44190  0.96640  0.06310  Biso   1.000  C
  C43      1.0000 0.94190  0.53360  0.56310  Biso   1.000  C
  C44      1.0000 0.55810  0.03360  0.93690  Biso   1.000  C
  H25      1.0000 0.09800  0.44430  0.39410  Biso   1.000  H
  H26      1.0000 0.40200  0.94430  0.10590  Biso   1.000  H
  H27      1.0000 0.90200  0.55570  0.60590  Biso   1.000  H
  H28      1.0000 0.59800  0.05570  0.89410  Biso   1.000  H
  O5       1.0000 0.13980  0.36710  0.16160  Biso   1.000  O
  O6       1.0000 0.36020  0.86710  0.33840  Biso   1.000  O
  O7       1.0000 0.86020  0.63290  0.83840  Biso   1.000  O
  O8       1.0000 0.63980  0.13290  0.66160  Biso   1.000  O
  N17      1.0000 0.38570  0.49880  0.40430  Biso   1.000  N
  N18      1.0000 0.11430  0.99880  0.09570  Biso   1.000  N
  N19      1.0000 0.61430  0.50120  0.59570  Biso   1.000  N
  N20      1.0000 0.88570  0.00120  0.90430  Biso   1.000  N
  N21      1.0000 0.18870  0.51390  0.18720  Biso   1.000  N
  N22      1.0000 0.31130  0.01390  0.31280  Biso   1.000  N
  N23      1.0000 0.81130  0.48610  0.81280  Biso   1.000  N
  N24      1.0000 0.68870  0.98610  0.68720  Biso   1.000  N
  H29      1.0000 0.18310  0.56710  0.16720  Biso   1.000  H
  H30      1.0000 0.31690  0.06710  0.33280  Biso   1.000  H
  H31      1.0000 0.81690  0.43290  0.83280  Biso   1.000  H
  H32      1.0000 0.68310  0.93290  0.66720  Biso   1.000  H
  C45      1.0000 0.35100  0.57730  0.37190  Biso   1.000  C
  C46      1.0000 0.14900  0.07730  0.12810  Biso   1.000  C
  C47      1.0000 0.64900  0.42270  0.62810  Biso   1.000  C
  C48      1.0000 0.85100  0.92270  0.87190  Biso   1.000  C
  H33      1.0000 0.37050  0.63030  0.39920  Biso   1.000  H
  H34      1.0000 0.12950  0.13030  0.10080  Biso   1.000  H
  H35      1.0000 0.62950  0.36970  0.60080  Biso   1.000  H
  H36      1.0000 0.87050  0.86970  0.89920  Biso   1.000  H
  C49      1.0000 0.28730  0.58250  0.29950  Biso   1.000  C
  C50      1.0000 0.21270  0.08250  0.20050  Biso   1.000  C
  C51      1.0000 0.71270  0.41750  0.70050  Biso   1.000  C
  C52      1.0000 0.78730  0.91750  0.79950  Biso   1.000  C
  H37      1.0000 0.26880  0.63830  0.27710  Biso   1.000  H
  H38      1.0000 0.23120  0.13830  0.22290  Biso   1.000  H
  H39      1.0000 0.73120  0.36170  0.72290  Biso   1.000  H
  H40      1.0000 0.76880  0.86170  0.77710  Biso   1.000  H
  C53      1.0000 0.25080  0.50410  0.26030  Biso   1.000  C
  C54      1.0000 0.24920  0.00410  0.23970  Biso   1.000  C
  C55      1.0000 0.74920  0.49590  0.73970  Biso   1.000  C
  C56      1.0000 0.75080  0.99590  0.76030  Biso   1.000  C
  C57      1.0000 0.28290  0.42500  0.29550  Biso   1.000  C
  C58      1.0000 0.21710  0.92500  0.20450  Biso   1.000  C
  C59      1.0000 0.71710  0.57500  0.70450  Biso   1.000  C
  C60      1.0000 0.78290  0.07500  0.79550  Biso   1.000  C
  H41      1.0000 0.25940  0.37100  0.27180  Biso   1.000  H
  H42      1.0000 0.24060  0.87100  0.22820  Biso   1.000  H
  H43      1.0000 0.74060  0.62900  0.72820  Biso   1.000  H
  H44      1.0000 0.75940  0.12900  0.77180  Biso   1.000  H
  C61      1.0000 0.35070  0.42440  0.36690  Biso   1.000  C
  C62      1.0000 0.14930  0.92440  0.13310  Biso   1.000  C
  C63      1.0000 0.64930  0.57560  0.63310  Biso   1.000  C
  C64      1.0000 0.85070  0.07560  0.86690  Biso   1.000  C
  H45      1.0000 0.37230  0.36930  0.38930  Biso   1.000  H
  H46      1.0000 0.12770  0.86930  0.11070  Biso   1.000  H
  H47      1.0000 0.62770  0.63070  0.61070  Biso   1.000  H
  H48      1.0000 0.87230  0.13070  0.88930  Biso   1.000  H
  C65      1.0000 0.13490  0.44490  0.14380  Biso   1.000  C
  C66      1.0000 0.36510  0.94490  0.35620  Biso   1.000  C
  C67      1.0000 0.86510  0.55510  0.85620  Biso   1.000  C
  C68      1.0000 0.63490  0.05510  0.64380  Biso   1.000  C
  C69      1.0000 0.06680  0.47670  0.06990  Biso   1.000  C
  C70      1.0000 0.43320  0.97670  0.43010  Biso   1.000  C
  C71      1.0000 0.93320  0.52330  0.93010  Biso   1.000  C
  C72      1.0000 0.56680  0.02330  0.56990  Biso   1.000  C
  C73      1.0000 0.02370  0.56480  0.05970  Biso   1.000  C
  C74      1.0000 0.47630  0.06480  0.44030  Biso   1.000  C
  C75      1.0000 0.97630  0.43520  0.94030  Biso   1.000  C
  C76      1.0000 0.52370  0.93520  0.55970  Biso   1.000  C
  H49      1.0000 0.03920  0.60810  0.09940  Biso   1.000  H
  H50      1.0000 0.46080  0.10810  0.40060  Biso   1.000  H
  H51      1.0000 0.96080  0.39190  0.90060  Biso   1.000  H
  H52      1.0000 0.53920  0.89190  0.59940  Biso   1.000  H
  C77      1.0000 0.04110  0.41390  0.00890  Biso   1.000  C
  C78      1.0000 0.45890  0.91390  0.49110  Biso   1.000  C
  C79      1.0000 0.95890  0.58610  0.99110  Biso   1.000  C
  C80      1.0000 0.54110  0.08610  0.50890  Biso   1.000  C
  H53      1.0000 0.06880  0.35570  0.01500  Biso   1.000  H
  H54      1.0000 0.43120  0.85570  0.48500  Biso   1.000  H
  H55      1.0000 0.93120  0.64430  0.98500  Biso   1.000  H
  H56      1.0000 0.56880  0.14430  0.51500  Biso   1.000  H
  O9       1.0000 0.62460  0.61300  0.94230  Biso   1.000  O
  O10      1.0000 0.87540  0.11300  0.55770  Biso   1.000  O
  O11      1.0000 0.37540  0.38700  0.05770  Biso   1.000  O
  O12      1.0000 0.12460  0.88700  0.44230  Biso   1.000  O
  O13      1.0000 0.62300  0.61420  0.41300  Biso   1.000  O
  O14      1.0000 0.87700  0.11420  0.08700  Biso   1.000  O
  O15      1.0000 0.37700  0.38580  0.58700  Biso   1.000  O
  O16      1.0000 0.12300  0.88580  0.91300  Biso   1.000  O
  S9       1.0000 0.60650  0.71190  0.39775  Biso   1.000  S
  S10      1.0000 0.89350  0.21190  0.10225  Biso   1.000  S
  S11      1.0000 0.39350  0.28810  0.60225  Biso   1.000  S
  S12      1.0000 0.10650  0.78810  0.89775  Biso   1.000  S
  C81      1.0000 0.74230  0.75790  0.39240  Biso   1.000  C
  C82      1.0000 0.75770  0.25790  0.10760  Biso   1.000  C
  C83      1.0000 0.25770  0.24210  0.60760  Biso   1.000  C
  C84      1.0000 0.24230  0.74210  0.89240  Biso   1.000  C
  H57      1.0000 0.78010  0.75640  0.44520  Biso   1.000  H
  H58      1.0000 0.71990  0.25640  0.05480  Biso   1.000  H
  H59      1.0000 0.21990  0.24360  0.55480  Biso   1.000  H
  H60      1.0000 0.28010  0.74360  0.94520  Biso   1.000  H
  H61      1.0000 0.73650  0.81900  0.37380  Biso   1.000  H
  H62      1.0000 0.76350  0.31900  0.12620  Biso   1.000  H
  H63      1.0000 0.26350  0.18100  0.62620  Biso   1.000  H
  H64      1.0000 0.23650  0.68100  0.87380  Biso   1.000  H
  H65      1.0000 0.78430  0.72340  0.35510  Biso   1.000  H
  H66      1.0000 0.71570  0.22340  0.14490  Biso   1.000  H
  H67      1.0000 0.21570  0.27660  0.64490  Biso   1.000  H
  H68      1.0000 0.28430  0.77660  0.85510  Biso   1.000  H
  C85      1.0000 0.56780  0.72730  0.29160  Biso   1.000  C
  C86      1.0000 0.93220  0.22730  0.20840  Biso   1.000  C
  C87      1.0000 0.43220  0.27270  0.70840  Biso   1.000  C
  C88      1.0000 0.06780  0.77270  0.79160  Biso   1.000  C
  H69      1.0000 0.49230  0.70610  0.28040  Biso   1.000  H
  H70      1.0000 0.00770  0.20610  0.21960  Biso   1.000  H
  H71      1.0000 0.50770  0.29390  0.71960  Biso   1.000  H
  H72      1.0000 0.99230  0.79390  0.78040  Biso   1.000  H
  H73      1.0000 0.61850  0.69410  0.25950  Biso   1.000  H
  H74      1.0000 0.88150  0.19410  0.24050  Biso   1.000  H
  H75      1.0000 0.38150  0.30590  0.74050  Biso   1.000  H
  H76      1.0000 0.11850  0.80590  0.75950  Biso   1.000  H
  H77      1.0000 0.57180  0.79010  0.27820  Biso   1.000  H
  H78      1.0000 0.92820  0.29010  0.22180  Biso   1.000  H
  H79      1.0000 0.42820  0.20990  0.72180  Biso   1.000  H
  H80      1.0000 0.07180  0.70990  0.77820  Biso   1.000  H
  C89      1.0000 0.56610  0.75140  0.85210  Biso   1.000  C
  C90      1.0000 0.93390  0.25140  0.64790  Biso   1.000  C
  C91      1.0000 0.43390  0.24860  0.14790  Biso   1.000  C
  C92      1.0000 0.06610  0.74860  0.35210  Biso   1.000  C
  H81      1.0000 0.58480  0.72450  0.80160  Biso   1.000  H
  H82      1.0000 0.91520  0.22450  0.69840  Biso   1.000  H
  H83      1.0000 0.41520  0.27550  0.19840  Biso   1.000  H
  H84      1.0000 0.08480  0.77550  0.30160  Biso   1.000  H
  H85      1.0000 0.57290  0.81560  0.84820  Biso   1.000  H
  H86      1.0000 0.92710  0.31560  0.65180  Biso   1.000  H
  H87      1.0000 0.42710  0.18440  0.15180  Biso   1.000  H
  H88      1.0000 0.07290  0.68440  0.34820  Biso   1.000  H
  H89      1.0000 0.49020  0.73600  0.86360  Biso   1.000  H
  H90      1.0000 0.00980  0.23600  0.63640  Biso   1.000  H
  H91      1.0000 0.50980  0.26400  0.13640  Biso   1.000  H
  H92      1.0000 0.99020  0.76400  0.36360  Biso   1.000  H
  C93      1.0000 0.61690  0.76650  0.01330  Biso   1.000  C
  C94      1.0000 0.88310  0.26650  0.48670  Biso   1.000  C
  C95      1.0000 0.38310  0.23350  0.98670  Biso   1.000  C
  C96      1.0000 0.11690  0.73350  0.51330  Biso   1.000  C
  H93      1.0000 0.66410  0.74970  0.05980  Biso   1.000  H
  H94      1.0000 0.83590  0.24970  0.44020  Biso   1.000  H
  H95      1.0000 0.33590  0.25030  0.94020  Biso   1.000  H
  H96      1.0000 0.16410  0.75030  0.55980  Biso   1.000  H
  H97      1.0000 0.54030  0.75090  0.02250  Biso   1.000  H
  H98      1.0000 0.95970  0.25090  0.47750  Biso   1.000  H
  H99      1.0000 0.45970  0.24910  0.97750  Biso   1.000  H
  H100     1.0000 0.04030  0.74910  0.52250  Biso   1.000  H
  H101     1.0000 0.62240  0.83010  0.00470  Biso   1.000  H
  H102     1.0000 0.87760  0.33010  0.49530  Biso   1.000  H
  H103     1.0000 0.37760  0.16990  0.99530  Biso   1.000  H
  H104     1.0000 0.12240  0.66990  0.50470  Biso   1.000  H
  S13      1.0000 0.65880  0.71140  0.93070  Biso   1.000  S
  S14      1.0000 0.84120  0.21140  0.56930  Biso   1.000  S
  S15      1.0000 0.34120  0.28860  0.06930  Biso   1.000  S
  S16      1.0000 0.15880  0.78860  0.43070  Biso   1.000  S
  S17      1.0000 0.56320  0.70700  0.94150  Biso   1.000  S
  S18      1.0000 0.93680  0.20700  0.55850  Biso   1.000  S
  S19      1.0000 0.43680  0.29300  0.05850  Biso   1.000  S
  S20      1.0000 0.06320  0.79300  0.44150  Biso   1.000  S
