data_image0
_cell_length_a       9.173
_cell_length_b       10.374
_cell_length_c       11.217
_cell_angle_alpha    90
_cell_angle_beta     124.869
_cell_angle_gamma    90

_symmetry_space_group_name_H-M    "P 1"
_symmetry_int_tables_number       1

loop_
  _symmetry_equiv_pos_as_xyz
  'x, y, z'

loop_
  _atom_site_label
  _atom_site_occupancy
  _atom_site_fract_x
  _atom_site_fract_y
  _atom_site_fract_z
  _atom_site_thermal_displace_type
  _atom_site_B_iso_or_equiv
  _atom_site_type_symbol
  Cu1      1.0000 0.24317  0.61297  0.25886  Biso   1.000  Cu
  Cu2      1.0000 0.75683  0.11297  0.24114  Biso   1.000  Cu
  Cu3      1.0000 0.75683  0.38703  0.74114  Biso   1.000  Cu
  Cu4      1.0000 0.24317  0.88703  0.75886  Biso   1.000  Cu
  N1       1.0000 0.48400  0.64410  0.41700  Biso   1.000  N
  N2       1.0000 0.51600  0.14410  0.08300  Biso   1.000  N
  N3       1.0000 0.51600  0.35590  0.58300  Biso   1.000  N
  N4       1.0000 0.48400  0.85590  0.91700  Biso   1.000  N
  N5       1.0000 0.25460  0.80200  0.20730  Biso   1.000  N
  N6       1.0000 0.74540  0.30200  0.29270  Biso   1.000  N
  N7       1.0000 0.74540  0.19800  0.79270  Biso   1.000  N
  N8       1.0000 0.25460  0.69800  0.70730  Biso   1.000  N
  O1       1.0000 0.71800  0.55320  0.63000  Biso   1.000  O
  O2       1.0000 0.28200  0.05320  0.87000  Biso   1.000  O
  O3       1.0000 0.28200  0.44680  0.37000  Biso   1.000  O
  O4       1.0000 0.71800  0.94680  0.13000  Biso   1.000  O
  O5       1.0000 0.98700  0.58770  0.12790  Biso   1.000  O
  O6       1.0000 0.01300  0.08770  0.37210  Biso   1.000  O
  O7       1.0000 0.01300  0.41230  0.87210  Biso   1.000  O
  O8       1.0000 0.98700  0.91230  0.62790  Biso   1.000  O
  O9       1.0000 0.15240  0.20970  0.21870  Biso   1.000  O
  O10      1.0000 0.84760  0.70970  0.28130  Biso   1.000  O
  O11      1.0000 0.84760  0.79030  0.78130  Biso   1.000  O
  O12      1.0000 0.15240  0.29030  0.71870  Biso   1.000  O
  H1       1.0000 0.12610  0.16040  0.27670  Biso   1.000  H
  H2       1.0000 0.87390  0.66040  0.22330  Biso   1.000  H
  H3       1.0000 0.87390  0.83960  0.72330  Biso   1.000  H
  H4       1.0000 0.12610  0.33960  0.77670  Biso   1.000  H
  H5       1.0000 0.21620  0.28590  0.27850  Biso   1.000  H
  H6       1.0000 0.78380  0.78590  0.22150  Biso   1.000  H
  H7       1.0000 0.78380  0.71410  0.72150  Biso   1.000  H
  H8       1.0000 0.21620  0.21410  0.77850  Biso   1.000  H
  O13      1.0000 0.77470  0.48530  0.92780  Biso   1.000  O
  O14      1.0000 0.22530  0.98530  0.57220  Biso   1.000  O
  O15      1.0000 0.22530  0.51470  0.07220  Biso   1.000  O
  O16      1.0000 0.77470  0.01470  0.42780  Biso   1.000  O
  C1       1.0000 0.56190  0.55660  0.51640  Biso   1.000  C
  C2       1.0000 0.43810  0.05660  0.98360  Biso   1.000  C
  C3       1.0000 0.43810  0.44340  0.48360  Biso   1.000  C
  C4       1.0000 0.56190  0.94340  0.01640  Biso   1.000  C
  C5       1.0000 0.56340  0.76650  0.41840  Biso   1.000  C
  C6       1.0000 0.43660  0.26650  0.08160  Biso   1.000  C
  C7       1.0000 0.43660  0.23350  0.58160  Biso   1.000  C
  C8       1.0000 0.56340  0.73350  0.91840  Biso   1.000  C
  H9       1.0000 0.68630  0.75490  0.45200  Biso   1.000  H
  H10      1.0000 0.31370  0.25490  0.04800  Biso   1.000  H
  H11      1.0000 0.31370  0.24510  0.54800  Biso   1.000  H
  H12      1.0000 0.68630  0.74510  0.95200  Biso   1.000  H
  H13      1.0000 0.55830  0.82880  0.48030  Biso   1.000  H
  H14      1.0000 0.44170  0.32880  0.01970  Biso   1.000  H
  H15      1.0000 0.44170  0.17120  0.51970  Biso   1.000  H
  H16      1.0000 0.55830  0.67120  0.98030  Biso   1.000  H
  C9       1.0000 0.44360  0.81190  0.25150  Biso   1.000  C
  C10      1.0000 0.55640  0.31190  0.24850  Biso   1.000  C
  C11      1.0000 0.55640  0.18810  0.74850  Biso   1.000  C
  C12      1.0000 0.44360  0.68810  0.75150  Biso   1.000  C
  H17      1.0000 0.47170  0.89990  0.24210  Biso   1.000  H
  H18      1.0000 0.52830  0.39990  0.25790  Biso   1.000  H
  H19      1.0000 0.52830  0.10010  0.75790  Biso   1.000  H
  H20      1.0000 0.47170  0.60010  0.74210  Biso   1.000  H
  H21      1.0000 0.46220  0.75620  0.19190  Biso   1.000  H
  H22      1.0000 0.53780  0.25620  0.30810  Biso   1.000  H
  H23      1.0000 0.53780  0.24380  0.80810  Biso   1.000  H
  H24      1.0000 0.46220  0.74380  0.69190  Biso   1.000  H
  C13      1.0000 0.14490  0.82340  0.04780  Biso   1.000  C
  C14      1.0000 0.85510  0.32340  0.45220  Biso   1.000  C
  C15      1.0000 0.85510  0.17660  0.95220  Biso   1.000  C
  C16      1.0000 0.14490  0.67660  0.54780  Biso   1.000  C
  H25      1.0000 0.17960  0.76350  0.00310  Biso   1.000  H
  H26      1.0000 0.82040  0.26350  0.49690  Biso   1.000  H
  H27      1.0000 0.82040  0.23650  0.99690  Biso   1.000  H
  H28      1.0000 0.17960  0.73650  0.50310  Biso   1.000  H
  H29      1.0000 0.16220  0.90990  0.02780  Biso   1.000  H
  H30      1.0000 0.83780  0.40990  0.47220  Biso   1.000  H
  H31      1.0000 0.83780  0.09010  0.97220  Biso   1.000  H
  H32      1.0000 0.16220  0.59010  0.52780  Biso   1.000  H
  H33      1.0000 0.02180  0.81070  0.00950  Biso   1.000  H
  H34      1.0000 0.97820  0.31070  0.49050  Biso   1.000  H
  H35      1.0000 0.97820  0.18930  0.99050  Biso   1.000  H
  H36      1.0000 0.02180  0.68930  0.50950  Biso   1.000  H
  C17      1.0000 0.19870  0.89350  0.27120  Biso   1.000  C
  C18      1.0000 0.80130  0.39350  0.22880  Biso   1.000  C
  C19      1.0000 0.80130  0.10650  0.72880  Biso   1.000  C
  C20      1.0000 0.19870  0.60650  0.77120  Biso   1.000  C
  H37      1.0000 0.07710  0.87720  0.23530  Biso   1.000  H
  H38      1.0000 0.92290  0.37720  0.26470  Biso   1.000  H
  H39      1.0000 0.92290  0.12280  0.76470  Biso   1.000  H
  H40      1.0000 0.07710  0.62280  0.73530  Biso   1.000  H
  H41      1.0000 0.20970  0.97950  0.24560  Biso   1.000  H
  H42      1.0000 0.79030  0.47950  0.25440  Biso   1.000  H
  H43      1.0000 0.79030  0.02050  0.75440  Biso   1.000  H
  H44      1.0000 0.20970  0.52050  0.74560  Biso   1.000  H
  H45      1.0000 0.27220  0.88430  0.37500  Biso   1.000  H
  H46      1.0000 0.72780  0.38430  0.12500  Biso   1.000  H
  H47      1.0000 0.72780  0.11570  0.62500  Biso   1.000  H
  H48      1.0000 0.27220  0.61570  0.87500  Biso   1.000  H
  C21      1.0000 0.92960  0.52070  0.01470  Biso   1.000  C
  C22      1.0000 0.07040  0.02070  0.48530  Biso   1.000  C
  C23      1.0000 0.07040  0.47930  0.98530  Biso   1.000  C
  C24      1.0000 0.92960  0.97930  0.51470  Biso   1.000  C
  C25      1.0000 0.40090  0.86280  0.35290  Biso   1.000  C
  C26      1.0000 0.59910  0.36280  0.14710  Biso   1.000  C
  C27      1.0000 0.59910  0.13720  0.64710  Biso   1.000  C
  C28      1.0000 0.40090  0.63720  0.85290  Biso   1.000  C
  C29      1.0000 0.29910  0.81910  0.10360  Biso   1.000  C
  C30      1.0000 0.70090  0.31910  0.39640  Biso   1.000  C
  C31      1.0000 0.70090  0.18090  0.89640  Biso   1.000  C
  C32      1.0000 0.29910  0.68090  0.60360  Biso   1.000  C
  C33      1.0000 0.09910  0.87550  0.17360  Biso   1.000  C
  C34      1.0000 0.90090  0.37550  0.32640  Biso   1.000  C
  C35      1.0000 0.90090  0.12450  0.82640  Biso   1.000  C
  C36      1.0000 0.09910  0.62450  0.67360  Biso   1.000  C
  H49      1.0000 0.60810  0.76260  0.35820  Biso   1.000  H
  H50      1.0000 0.39190  0.26260  0.14180  Biso   1.000  H
  H51      1.0000 0.39190  0.23740  0.64180  Biso   1.000  H
  H52      1.0000 0.60810  0.73740  0.85820  Biso   1.000  H
  H53      1.0000 0.65930  0.79100  0.51630  Biso   1.000  H
  H54      1.0000 0.34070  0.29100  0.98370  Biso   1.000  H
  H55      1.0000 0.34070  0.20900  0.48370  Biso   1.000  H
  H56      1.0000 0.65930  0.70900  0.01630  Biso   1.000  H
  H57      1.0000 0.36230  0.87080  0.41700  Biso   1.000  H
  H58      1.0000 0.63770  0.37080  0.08300  Biso   1.000  H
  H59      1.0000 0.63770  0.12920  0.58300  Biso   1.000  H
  H60      1.0000 0.36230  0.62920  0.91700  Biso   1.000  H
  H61      1.0000 0.43280  0.94750  0.33800  Biso   1.000  H
  H62      1.0000 0.56720  0.44750  0.16200  Biso   1.000  H
  H63      1.0000 0.56720  0.05250  0.66200  Biso   1.000  H
  H64      1.0000 0.43280  0.55250  0.83800  Biso   1.000  H
  H65      1.0000 0.40380  0.77020  0.13410  Biso   1.000  H
  H66      1.0000 0.59620  0.27020  0.36590  Biso   1.000  H
  H67      1.0000 0.59620  0.22980  0.86590  Biso   1.000  H
  H68      1.0000 0.40380  0.72980  0.63410  Biso   1.000  H
  H69      1.0000 0.32080  0.90870  0.09830  Biso   1.000  H
  H70      1.0000 0.67920  0.40870  0.40170  Biso   1.000  H
  H71      1.0000 0.67920  0.09130  0.90170  Biso   1.000  H
  H72      1.0000 0.32080  0.59130  0.59830  Biso   1.000  H
  H73      1.0000 0.20210  0.78980  0.00970  Biso   1.000  H
  H74      1.0000 0.79790  0.28980  0.49030  Biso   1.000  H
  H75      1.0000 0.79790  0.21020  0.99030  Biso   1.000  H
  H76      1.0000 0.20210  0.71020  0.50970  Biso   1.000  H
  H77      1.0000 0.07880  0.86040  0.24750  Biso   1.000  H
  H78      1.0000 0.92120  0.36040  0.25250  Biso   1.000  H
  H79      1.0000 0.92120  0.13960  0.75250  Biso   1.000  H
  H80      1.0000 0.07880  0.63960  0.74750  Biso   1.000  H
  H81      1.0000 0.99680  0.84870  0.08110  Biso   1.000  H
  H82      1.0000 0.00320  0.34870  0.41890  Biso   1.000  H
  H83      1.0000 0.00320  0.15130  0.91890  Biso   1.000  H
  H84      1.0000 0.99680  0.65130  0.58110  Biso   1.000  H
  H85      1.0000 0.11970  0.96580  0.17030  Biso   1.000  H
  H86      1.0000 0.88030  0.46580  0.32970  Biso   1.000  H
  H87      1.0000 0.88030  0.03420  0.82970  Biso   1.000  H
  H88      1.0000 0.11970  0.53420  0.67030  Biso   1.000  H
