data_image0
_cell_length_a       6.8693
_cell_length_b       19.4875
_cell_length_c       12.7217
_cell_angle_alpha    90
_cell_angle_beta     105.212
_cell_angle_gamma    90

_symmetry_space_group_name_H-M    "P 1"
_symmetry_int_tables_number       1

loop_
  _symmetry_equiv_pos_as_xyz
  'x, y, z'

loop_
  _atom_site_label
  _atom_site_occupancy
  _atom_site_fract_x
  _atom_site_fract_y
  _atom_site_fract_z
  _atom_site_thermal_displace_type
  _atom_site_B_iso_or_equiv
  _atom_site_type_symbol
  Cu1      1.0000 0.10227  0.36579  0.32144  Biso   1.000  Cu
  Cu2      1.0000 0.60227  0.13421  0.82144  Biso   1.000  Cu
  Cu3      1.0000 0.89773  0.63421  0.67856  Biso   1.000  Cu
  Cu4      1.0000 0.39773  0.86579  0.17856  Biso   1.000  Cu
  S1       1.0000 0.60113  0.31919  0.29553  Biso   1.000  S
  S2       1.0000 0.10113  0.18081  0.79553  Biso   1.000  S
  S3       1.0000 0.39887  0.68081  0.70447  Biso   1.000  S
  S4       1.0000 0.89887  0.81919  0.20447  Biso   1.000  S
  O1       1.0000 0.43314  0.36873  0.27941  Biso   1.000  O
  O2       1.0000 0.93314  0.13127  0.77941  Biso   1.000  O
  O3       1.0000 0.56686  0.63127  0.72059  Biso   1.000  O
  O4       1.0000 0.06686  0.86873  0.22059  Biso   1.000  O
  O5       1.0000 0.79144  0.35040  0.35624  Biso   1.000  O
  O6       1.0000 0.29144  0.14960  0.85624  Biso   1.000  O
  O7       1.0000 0.20856  0.64960  0.64376  Biso   1.000  O
  O8       1.0000 0.70856  0.85040  0.14376  Biso   1.000  O
  O9       1.0000 0.55515  0.25903  0.35737  Biso   1.000  O
  O10      1.0000 0.05515  0.24097  0.85737  Biso   1.000  O
  O11      1.0000 0.44485  0.74097  0.64263  Biso   1.000  O
  O12      1.0000 0.94485  0.75903  0.14263  Biso   1.000  O
  O13      1.0000 0.61923  0.29456  0.18763  Biso   1.000  O
  O14      1.0000 0.11923  0.20544  0.68763  Biso   1.000  O
  O15      1.0000 0.38077  0.70544  0.81237  Biso   1.000  O
  O16      1.0000 0.88077  0.79456  0.31237  Biso   1.000  O
  N1       1.0000 0.09240  0.46778  0.29714  Biso   1.000  N
  N2       1.0000 0.59240  0.03222  0.79714  Biso   1.000  N
  N3       1.0000 0.90760  0.53222  0.70286  Biso   1.000  N
  N4       1.0000 0.40760  0.96778  0.20286  Biso   1.000  N
  C1       1.0000 0.17180  0.50411  0.38848  Biso   1.000  C
  C2       1.0000 0.67180  0.99589  0.88848  Biso   1.000  C
  C3       1.0000 0.82820  0.49589  0.61152  Biso   1.000  C
  C4       1.0000 0.32820  0.00411  0.11152  Biso   1.000  C
  C5       1.0000 0.18510  0.57515  0.38566  Biso   1.000  C
  C6       1.0000 0.68510  0.92485  0.88566  Biso   1.000  C
  C7       1.0000 0.81490  0.42485  0.61434  Biso   1.000  C
  C8       1.0000 0.31490  0.07515  0.11434  Biso   1.000  C
  H1       1.0000 0.23900  0.60160  0.44900  Biso   1.000  H
  H2       1.0000 0.73900  0.89840  0.94900  Biso   1.000  H
  H3       1.0000 0.76100  0.39840  0.55100  Biso   1.000  H
  H4       1.0000 0.26100  0.10160  0.05100  Biso   1.000  H
  C9       1.0000 0.11840  0.60901  0.28725  Biso   1.000  C
  C10      1.0000 0.61840  0.89099  0.78725  Biso   1.000  C
  C11      1.0000 0.88160  0.39099  0.71275  Biso   1.000  C
  C12      1.0000 0.38160  0.10901  0.21275  Biso   1.000  C
  H5       1.0000 0.12700  0.65470  0.28300  Biso   1.000  H
  H6       1.0000 0.62700  0.84530  0.78300  Biso   1.000  H
  H7       1.0000 0.87300  0.34530  0.71700  Biso   1.000  H
  H8       1.0000 0.37300  0.15470  0.21700  Biso   1.000  H
  C13      1.0000 0.03490  0.57156  0.19234  Biso   1.000  C
  C14      1.0000 0.53490  0.92844  0.69234  Biso   1.000  C
  C15      1.0000 0.96510  0.42844  0.80766  Biso   1.000  C
  C16      1.0000 0.46510  0.07156  0.30766  Biso   1.000  C
  N5       1.0000 0.97390  0.60433  0.09165  Biso   1.000  N
  N6       1.0000 0.47390  0.89567  0.59165  Biso   1.000  N
  N7       1.0000 0.02610  0.39567  0.90835  Biso   1.000  N
  N8       1.0000 0.52610  0.10433  0.40835  Biso   1.000  N
  H9       1.0000 0.87700  0.57930  0.04400  Biso   1.000  H
  H10      1.0000 0.37700  0.92070  0.54400  Biso   1.000  H
  H11      1.0000 0.12300  0.42070  0.95600  Biso   1.000  H
  H12      1.0000 0.62300  0.07930  0.45600  Biso   1.000  H
  H13      1.0000 0.94900  0.64450  0.10300  Biso   1.000  H
  H14      1.0000 0.44900  0.85550  0.60300  Biso   1.000  H
  H15      1.0000 0.05100  0.35550  0.89700  Biso   1.000  H
  H16      1.0000 0.55100  0.14450  0.39700  Biso   1.000  H
  C17      1.0000 0.02490  0.50049  0.20155  Biso   1.000  C
  C18      1.0000 0.52490  0.99951  0.70155  Biso   1.000  C
  C19      1.0000 0.97510  0.49951  0.79845  Biso   1.000  C
  C20      1.0000 0.47510  0.00049  0.29845  Biso   1.000  C
  H17      1.0000 0.96800  0.47560  0.13900  Biso   1.000  H
  H18      1.0000 0.46800  0.02440  0.63900  Biso   1.000  H
  H19      1.0000 0.03200  0.52440  0.86100  Biso   1.000  H
  H20      1.0000 0.53200  0.97560  0.36100  Biso   1.000  H
  N9       1.0000 0.21580  0.39450  0.47571  Biso   1.000  N
  N10      1.0000 0.71580  0.10550  0.97571  Biso   1.000  N
  N11      1.0000 0.78420  0.60550  0.52429  Biso   1.000  N
  N12      1.0000 0.28420  0.89450  0.02429  Biso   1.000  N
  C21      1.0000 0.23930  0.46302  0.48893  Biso   1.000  C
  C22      1.0000 0.73930  0.03698  0.98893  Biso   1.000  C
  C23      1.0000 0.76070  0.53698  0.51107  Biso   1.000  C
  C24      1.0000 0.26070  0.96302  0.01107  Biso   1.000  C
  C25      1.0000 0.31890  0.49118  0.59183  Biso   1.000  C
  C26      1.0000 0.81890  0.00882  0.09183  Biso   1.000  C
  C27      1.0000 0.68110  0.50882  0.40817  Biso   1.000  C
  C28      1.0000 0.18110  0.99118  0.90817  Biso   1.000  C
  H21      1.0000 0.33900  0.53760  0.60000  Biso   1.000  H
  H22      1.0000 0.83900  0.96240  0.10000  Biso   1.000  H
  H23      1.0000 0.66100  0.46240  0.40000  Biso   1.000  H
  H24      1.0000 0.16100  0.03760  0.90000  Biso   1.000  H
  C29      1.0000 0.36860  0.44833  0.68147  Biso   1.000  C
  C30      1.0000 0.86860  0.05167  0.18147  Biso   1.000  C
  C31      1.0000 0.63140  0.55167  0.31853  Biso   1.000  C
  C32      1.0000 0.13140  0.94833  0.81853  Biso   1.000  C
  H25      1.0000 0.43000  0.46860  0.75600  Biso   1.000  H
  H26      1.0000 0.93000  0.03140  0.25600  Biso   1.000  H
  H27      1.0000 0.57000  0.53140  0.24400  Biso   1.000  H
  H28      1.0000 0.07000  0.96860  0.74400  Biso   1.000  H
  C33      1.0000 0.33720  0.37802  0.66802  Biso   1.000  C
  C34      1.0000 0.83720  0.12198  0.16802  Biso   1.000  C
  C35      1.0000 0.66280  0.62198  0.33198  Biso   1.000  C
  C36      1.0000 0.16280  0.87802  0.83198  Biso   1.000  C
  N13      1.0000 0.37970  0.33265  0.75694  Biso   1.000  N
  N14      1.0000 0.87970  0.16735  0.25694  Biso   1.000  N
  N15      1.0000 0.62030  0.66735  0.24306  Biso   1.000  N
  N16      1.0000 0.12030  0.83265  0.74306  Biso   1.000  N
  H29      1.0000 0.29000  0.30200  0.75200  Biso   1.000  H
  H30      1.0000 0.79000  0.19800  0.25200  Biso   1.000  H
  H31      1.0000 0.71000  0.69800  0.24800  Biso   1.000  H
  H32      1.0000 0.21000  0.80200  0.74800  Biso   1.000  H
  H33      1.0000 0.39500  0.35150  0.81600  Biso   1.000  H
  H34      1.0000 0.89500  0.14850  0.31600  Biso   1.000  H
  H35      1.0000 0.60500  0.64850  0.18400  Biso   1.000  H
  H36      1.0000 0.10500  0.85150  0.68400  Biso   1.000  H
  C37      1.0000 0.26190  0.35280  0.56237  Biso   1.000  C
  C38      1.0000 0.76190  0.14720  0.06237  Biso   1.000  C
  C39      1.0000 0.73810  0.64720  0.43763  Biso   1.000  C
  C40      1.0000 0.23810  0.85280  0.93763  Biso   1.000  C
  H37      1.0000 0.23900  0.30800  0.54770  Biso   1.000  H
  H38      1.0000 0.73900  0.19200  0.04770  Biso   1.000  H
  H39      1.0000 0.76100  0.69200  0.45230  Biso   1.000  H
  H40      1.0000 0.26100  0.80800  0.95230  Biso   1.000  H
  O17      1.0000 0.16960  0.26695  0.35762  Biso   1.000  O
  O18      1.0000 0.66960  0.23305  0.85762  Biso   1.000  O
  O19      1.0000 0.83040  0.73305  0.64238  Biso   1.000  O
  O20      1.0000 0.33040  0.76695  0.14238  Biso   1.000  O
  H41      1.0000 0.28900  0.26180  0.35600  Biso   1.000  H
  H42      1.0000 0.78900  0.23820  0.85600  Biso   1.000  H
  H43      1.0000 0.71100  0.73820  0.64400  Biso   1.000  H
  H44      1.0000 0.21100  0.76180  0.14400  Biso   1.000  H
  H45      1.0000 0.10000  0.24030  0.32200  Biso   1.000  H
  H46      1.0000 0.60000  0.25970  0.82200  Biso   1.000  H
  H47      1.0000 0.90000  0.75970  0.67800  Biso   1.000  H
  H48      1.0000 0.40000  0.74030  0.17800  Biso   1.000  H
  O21      1.0000 0.87860  0.05619  0.58814  Biso   1.000  O
  O22      1.0000 0.37860  0.44381  0.08814  Biso   1.000  O
  O23      1.0000 0.12140  0.94381  0.41186  Biso   1.000  O
  O24      1.0000 0.62140  0.55619  0.91186  Biso   1.000  O
  H49      1.0000 0.97200  0.07070  0.56100  Biso   1.000  H
  H50      1.0000 0.47200  0.42930  0.06100  Biso   1.000  H
  H51      1.0000 0.02800  0.92930  0.43900  Biso   1.000  H
  H52      1.0000 0.52800  0.57070  0.93900  Biso   1.000  H
  H53      1.0000 0.88700  0.07590  0.64800  Biso   1.000  H
  H54      1.0000 0.38700  0.42410  0.14800  Biso   1.000  H
  H55      1.0000 0.11300  0.92410  0.35200  Biso   1.000  H
  H56      1.0000 0.61300  0.57590  0.85200  Biso   1.000  H
  O25      1.0000 0.97660  0.34481  0.16503  Biso   1.000  O
  O26      1.0000 0.47660  0.15519  0.66503  Biso   1.000  O
  O27      1.0000 0.02340  0.65519  0.83497  Biso   1.000  O
  O28      1.0000 0.52340  0.84481  0.33497  Biso   1.000  O
  H57      1.0000 0.03700  0.32490  0.13800  Biso   1.000  H
  H58      1.0000 0.53700  0.17510  0.63800  Biso   1.000  H
  H59      1.0000 0.96300  0.67510  0.86200  Biso   1.000  H
  H60      1.0000 0.46300  0.82490  0.36200  Biso   1.000  H
  H61      1.0000 0.86100  0.33090  0.16400  Biso   1.000  H
  H62      1.0000 0.36100  0.16910  0.66400  Biso   1.000  H
  H63      1.0000 0.13900  0.66910  0.83600  Biso   1.000  H
  H64      1.0000 0.63900  0.83090  0.33600  Biso   1.000  H
  O29      1.0000 0.12210  0.08232  0.45356  Biso   1.000  O
  O30      1.0000 0.62210  0.41768  0.95356  Biso   1.000  O
  O31      1.0000 0.87790  0.91768  0.54644  Biso   1.000  O
  O32      1.0000 0.37790  0.58232  0.04644  Biso   1.000  O
  H65      1.0000 0.22400  0.09500  0.44900  Biso   1.000  H
  H66      1.0000 0.72400  0.40500  0.94900  Biso   1.000  H
  H67      1.0000 0.77600  0.90500  0.55100  Biso   1.000  H
  H68      1.0000 0.27600  0.59500  0.05100  Biso   1.000  H
  H69      1.0000 0.12400  0.04400  0.43900  Biso   1.000  H
  H70      1.0000 0.62400  0.45600  0.93900  Biso   1.000  H
  H71      1.0000 0.87600  0.95600  0.56100  Biso   1.000  H
  H72      1.0000 0.37600  0.54400  0.06100  Biso   1.000  H
  O33      1.0000 0.20960  0.26084  0.08195  Biso   1.000  O
  O34      1.0000 0.70960  0.23916  0.58195  Biso   1.000  O
  O35      1.0000 0.79040  0.73916  0.91805  Biso   1.000  O
  O36      1.0000 0.29040  0.76084  0.41805  Biso   1.000  O
  H73      1.0000 0.33200  0.27250  0.10000  Biso   1.000  H
  H74      1.0000 0.83200  0.22750  0.60000  Biso   1.000  H
  H75      1.0000 0.66800  0.72750  0.90000  Biso   1.000  H
  H76      1.0000 0.16800  0.77250  0.40000  Biso   1.000  H
  H77      1.0000 0.19500  0.25400  0.02200  Biso   1.000  H
  H78      1.0000 0.69500  0.24600  0.52200  Biso   1.000  H
  H79      1.0000 0.80500  0.74600  0.97800  Biso   1.000  H
  H80      1.0000 0.30500  0.75400  0.47800  Biso   1.000  H
