data_image0
_cell_length_a       7.6851
_cell_length_b       7.7598
_cell_length_c       8.7365
_cell_angle_alpha    97.538
_cell_angle_beta     103.163
_cell_angle_gamma    115.855

_symmetry_space_group_name_H-M    "P 1"
_symmetry_int_tables_number       1

loop_
  _symmetry_equiv_pos_as_xyz
  'x, y, z'

loop_
  _atom_site_label
  _atom_site_occupancy
  _atom_site_fract_x
  _atom_site_fract_y
  _atom_site_fract_z
  _atom_site_thermal_displace_type
  _atom_site_B_iso_or_equiv
  _atom_site_type_symbol
  C1       1.0000 0.36470  0.13030  0.23110  Biso   1.000  C
  C2       1.0000 0.63530  0.86970  0.76890  Biso   1.000  C
  H1       1.0000 0.40620  0.07710  0.31240  Biso   1.000  H
  H2       1.0000 0.59380  0.92290  0.68760  Biso   1.000  H
  C3       1.0000 0.29670  0.02510  0.07140  Biso   1.000  C
  C4       1.0000 0.70330  0.97490  0.92860  Biso   1.000  C
  H3       1.0000 0.29300  0.90320  0.04500  Biso   1.000  H
  H4       1.0000 0.70700  0.09680  0.95500  Biso   1.000  H
  C5       1.0000 0.23440  0.10240  0.95160  Biso   1.000  C
  C6       1.0000 0.76560  0.89760  0.04840  Biso   1.000  C
  H5       1.0000 0.18750  0.03360  0.84250  Biso   1.000  H
  H6       1.0000 0.81250  0.96640  0.15750  Biso   1.000  H
  C7       1.0000 0.24200  0.28370  0.99460  Biso   1.000  C
  C8       1.0000 0.75800  0.71630  0.00540  Biso   1.000  C
  H7       1.0000 0.20080  0.33880  0.91490  Biso   1.000  H
  H8       1.0000 0.79920  0.66120  0.08510  Biso   1.000  H
  C9       1.0000 0.31130  0.38200  0.15680  Biso   1.000  C
  C10      1.0000 0.68870  0.61800  0.84320  Biso   1.000  C
  C11      1.0000 0.32770  0.58140  0.21200  Biso   1.000  C
  C12      1.0000 0.67230  0.41860  0.78800  Biso   1.000  C
  H9       1.0000 0.44170  0.68170  0.18890  Biso   1.000  H
  H10      1.0000 0.55830  0.31830  0.81110  Biso   1.000  H
  H11      1.0000 0.20430  0.58060  0.15210  Biso   1.000  H
  H12      1.0000 0.79570  0.41940  0.84790  Biso   1.000  H
  C13      1.0000 0.09670  0.15130  0.54320  Biso   1.000  C
  C14      1.0000 0.90330  0.84870  0.45680  Biso   1.000  C
  C15      1.0000 0.87560  0.02480  0.47567  Biso   1.000  C
  C16      1.0000 0.12440  0.97520  0.52433  Biso   1.000  C
  N1       1.0000 0.37350  0.30760  0.27439  Biso   1.000  N
  N2       1.0000 0.62650  0.69240  0.72561  Biso   1.000  N
  N3       1.0000 0.35710  0.63060  0.38506  Biso   1.000  N
  N4       1.0000 0.64290  0.36940  0.61494  Biso   1.000  N
  H13      1.0000 0.23520  0.59040  0.40090  Biso   1.000  H
  H14      1.0000 0.76480  0.40960  0.59910  Biso   1.000  H
  H15      1.0000 0.43130  0.76300  0.42650  Biso   1.000  H
  H16      1.0000 0.56870  0.23700  0.57350  Biso   1.000  H
  O1       1.0000 0.21471  0.33417  0.59732  Biso   1.000  O
  O2       1.0000 0.78529  0.66583  0.40268  Biso   1.000  O
  O3       1.0000 0.72561  0.05432  0.44321  Biso   1.000  O
  O4       1.0000 0.27439  0.94568  0.55679  Biso   1.000  O
  Cu1      1.0000 0.50000  0.50000  0.50000  Biso   1.000  Cu
  O5       1.0000 0.11420  0.61340  0.72340  Biso   1.000  O
  O6       1.0000 0.88580  0.38660  0.27660  Biso   1.000  O
  H17      1.0000 0.13800  0.52600  0.68800  Biso   1.000  H
  H18      1.0000 0.86200  0.47400  0.31200  Biso   1.000  H
  H19      1.0000 0.16300  0.70200  0.67800  Biso   1.000  H
  H20      1.0000 0.83700  0.29800  0.32200  Biso   1.000  H
