data_image0
_cell_length_a       21.6256
_cell_length_b       25.3751
_cell_length_c       7.123
_cell_angle_alpha    90
_cell_angle_beta     90
_cell_angle_gamma    90

_symmetry_space_group_name_H-M    "P 1"
_symmetry_int_tables_number       1

loop_
  _symmetry_equiv_pos_as_xyz
  'x, y, z'

loop_
  _atom_site_label
  _atom_site_occupancy
  _atom_site_fract_x
  _atom_site_fract_y
  _atom_site_fract_z
  _atom_site_thermal_displace_type
  _atom_site_B_iso_or_equiv
  _atom_site_type_symbol
  Cu1      1.0000 0.75310  0.96268  0.25835  Biso   1.000  Cu
  Cu2      1.0000 0.74690  0.53732  0.25835  Biso   1.000  Cu
  Cu3      1.0000 0.25310  0.03732  0.24165  Biso   1.000  Cu
  Cu4      1.0000 0.24690  0.46268  0.24165  Biso   1.000  Cu
  Cu5      1.0000 0.24690  0.03732  0.74165  Biso   1.000  Cu
  Cu6      1.0000 0.25310  0.46268  0.74165  Biso   1.000  Cu
  Cu7      1.0000 0.74690  0.96268  0.75835  Biso   1.000  Cu
  Cu8      1.0000 0.75310  0.53732  0.75835  Biso   1.000  Cu
  S1       1.0000 0.60090  0.11100  0.97110  Biso   1.000  S
  S2       1.0000 0.89910  0.38900  0.97110  Biso   1.000  S
  S3       1.0000 0.10090  0.88900  0.52890  Biso   1.000  S
  S4       1.0000 0.39910  0.61100  0.52890  Biso   1.000  S
  S5       1.0000 0.39910  0.88900  0.02890  Biso   1.000  S
  S6       1.0000 0.10090  0.61100  0.02890  Biso   1.000  S
  S7       1.0000 0.89910  0.11100  0.47110  Biso   1.000  S
  S8       1.0000 0.60090  0.38900  0.47110  Biso   1.000  S
  S9       1.0000 0.53776  0.21393  0.90781  Biso   1.000  S
  S10      1.0000 0.96224  0.28607  0.90781  Biso   1.000  S
  S11      1.0000 0.03776  0.78607  0.59219  Biso   1.000  S
  S12      1.0000 0.46224  0.71393  0.59219  Biso   1.000  S
  S13      1.0000 0.46224  0.78607  0.09219  Biso   1.000  S
  S14      1.0000 0.03776  0.71393  0.09219  Biso   1.000  S
  S15      1.0000 0.96224  0.21393  0.40781  Biso   1.000  S
  S16      1.0000 0.53776  0.28607  0.40781  Biso   1.000  S
  N1       1.0000 0.66488  0.96952  0.24270  Biso   1.000  N
  N2       1.0000 0.83512  0.53048  0.24270  Biso   1.000  N
  N3       1.0000 0.16488  0.03048  0.25730  Biso   1.000  N
  N4       1.0000 0.33512  0.46952  0.25730  Biso   1.000  N
  N5       1.0000 0.33512  0.03048  0.75730  Biso   1.000  N
  N6       1.0000 0.16488  0.46952  0.75730  Biso   1.000  N
  N7       1.0000 0.83512  0.96952  0.74270  Biso   1.000  N
  N8       1.0000 0.66488  0.53048  0.74270  Biso   1.000  N
  N9       1.0000 0.64317  0.01688  0.16480  Biso   1.000  N
  N10      1.0000 0.85683  0.48312  0.16480  Biso   1.000  N
  N11      1.0000 0.14317  0.98312  0.33520  Biso   1.000  N
  N12      1.0000 0.35683  0.51688  0.33520  Biso   1.000  N
  N13      1.0000 0.35683  0.98312  0.83520  Biso   1.000  N
  N14      1.0000 0.14317  0.51688  0.83520  Biso   1.000  N
  N15      1.0000 0.85683  0.01688  0.66480  Biso   1.000  N
  N16      1.0000 0.64317  0.48312  0.66480  Biso   1.000  N
  N17      1.0000 0.65432  0.20772  0.99900  Biso   1.000  N
  N18      1.0000 0.84568  0.29228  0.99900  Biso   1.000  N
  N19      1.0000 0.15432  0.79228  0.50100  Biso   1.000  N
  N20      1.0000 0.34568  0.70772  0.50100  Biso   1.000  N
  N21      1.0000 0.34568  0.79228  0.00100  Biso   1.000  N
  N22      1.0000 0.15432  0.70772  0.00100  Biso   1.000  N
  N23      1.0000 0.84568  0.20772  0.49900  Biso   1.000  N
  N24      1.0000 0.65432  0.29228  0.49900  Biso   1.000  N
  N25      1.0000 0.84545  0.95943  0.25690  Biso   1.000  N
  N26      1.0000 0.65455  0.54057  0.25690  Biso   1.000  N
  N27      1.0000 0.34545  0.04057  0.24310  Biso   1.000  N
  N28      1.0000 0.15455  0.45943  0.24310  Biso   1.000  N
  N29      1.0000 0.15455  0.04057  0.74310  Biso   1.000  N
  N30      1.0000 0.34545  0.45943  0.74310  Biso   1.000  N
  N31      1.0000 0.65455  0.95943  0.75690  Biso   1.000  N
  N32      1.0000 0.84545  0.54057  0.75690  Biso   1.000  N
  O1       1.0000 0.74669  0.90619  0.43380  Biso   1.000  O
  O2       1.0000 0.75331  0.59381  0.43380  Biso   1.000  O
  O3       1.0000 0.24669  0.09381  0.06620  Biso   1.000  O
  O4       1.0000 0.25331  0.40619  0.06620  Biso   1.000  O
  O5       1.0000 0.25331  0.09381  0.56620  Biso   1.000  O
  O6       1.0000 0.24669  0.40619  0.56620  Biso   1.000  O
  O7       1.0000 0.75331  0.90619  0.93380  Biso   1.000  O
  O8       1.0000 0.74669  0.59381  0.93380  Biso   1.000  O
  O9       1.0000 0.74812  0.02913  0.11990  Biso   1.000  O
  O10      1.0000 0.75188  0.47087  0.11990  Biso   1.000  O
  O11      1.0000 0.24812  0.97087  0.38010  Biso   1.000  O
  O12      1.0000 0.25188  0.52913  0.38010  Biso   1.000  O
  O13      1.0000 0.25188  0.97087  0.88010  Biso   1.000  O
  O14      1.0000 0.24812  0.52913  0.88010  Biso   1.000  O
  O15      1.0000 0.75188  0.02913  0.61990  Biso   1.000  O
  O16      1.0000 0.74812  0.47087  0.61990  Biso   1.000  O
  C1       1.0000 0.69993  0.87265  0.43910  Biso   1.000  C
  C2       1.0000 0.80007  0.62735  0.43910  Biso   1.000  C
  C3       1.0000 0.19993  0.12735  0.06090  Biso   1.000  C
  C4       1.0000 0.30007  0.37265  0.06090  Biso   1.000  C
  C5       1.0000 0.30007  0.12735  0.56090  Biso   1.000  C
  C6       1.0000 0.19993  0.37265  0.56090  Biso   1.000  C
  C7       1.0000 0.80007  0.87265  0.93910  Biso   1.000  C
  C8       1.0000 0.69993  0.62735  0.93910  Biso   1.000  C
  C9       1.0000 0.64019  0.88379  0.36520  Biso   1.000  C
  C10      1.0000 0.85981  0.61621  0.36520  Biso   1.000  C
  C11      1.0000 0.14019  0.11621  0.13480  Biso   1.000  C
  C12      1.0000 0.35981  0.38379  0.13480  Biso   1.000  C
  C13      1.0000 0.35981  0.11621  0.63480  Biso   1.000  C
  C14      1.0000 0.14019  0.38379  0.63480  Biso   1.000  C
  C15      1.0000 0.85981  0.88379  0.86520  Biso   1.000  C
  C16      1.0000 0.64019  0.61621  0.86520  Biso   1.000  C
  C17      1.0000 0.62496  0.93378  0.28160  Biso   1.000  C
  C18      1.0000 0.87504  0.56622  0.28160  Biso   1.000  C
  C19      1.0000 0.12496  0.06622  0.21840  Biso   1.000  C
  C20      1.0000 0.37504  0.43378  0.21840  Biso   1.000  C
  C21      1.0000 0.37504  0.06622  0.71840  Biso   1.000  C
  C22      1.0000 0.12496  0.43378  0.71840  Biso   1.000  C
  C23      1.0000 0.87504  0.93378  0.78160  Biso   1.000  C
  C24      1.0000 0.62496  0.56622  0.78160  Biso   1.000  C
  H1       1.0000 0.58280  0.94070  0.25350  Biso   1.000  H
  H2       1.0000 0.91720  0.55930  0.25350  Biso   1.000  H
  H3       1.0000 0.08280  0.05930  0.24650  Biso   1.000  H
  H4       1.0000 0.41720  0.44070  0.24650  Biso   1.000  H
  H5       1.0000 0.41720  0.05930  0.74650  Biso   1.000  H
  H6       1.0000 0.08280  0.44070  0.74650  Biso   1.000  H
  H7       1.0000 0.91720  0.94070  0.75350  Biso   1.000  H
  H8       1.0000 0.58280  0.55930  0.75350  Biso   1.000  H
  C25      1.0000 0.69083  0.04394  0.10800  Biso   1.000  C
  C26      1.0000 0.80917  0.45606  0.10800  Biso   1.000  C
  C27      1.0000 0.19083  0.95606  0.39200  Biso   1.000  C
  C28      1.0000 0.30917  0.54394  0.39200  Biso   1.000  C
  C29      1.0000 0.30917  0.95606  0.89200  Biso   1.000  C
  C30      1.0000 0.19083  0.54394  0.89200  Biso   1.000  C
  C31      1.0000 0.80917  0.04394  0.60800  Biso   1.000  C
  C32      1.0000 0.69083  0.45606  0.60800  Biso   1.000  C
  C33      1.0000 0.68084  0.09696  0.02130  Biso   1.000  C
  C34      1.0000 0.81916  0.40304  0.02130  Biso   1.000  C
  C35      1.0000 0.18084  0.90304  0.47870  Biso   1.000  C
  C36      1.0000 0.31916  0.59696  0.47870  Biso   1.000  C
  C37      1.0000 0.31916  0.90304  0.97870  Biso   1.000  C
  C38      1.0000 0.18084  0.59696  0.97870  Biso   1.000  C
  C39      1.0000 0.81916  0.09696  0.52130  Biso   1.000  C
  C40      1.0000 0.68084  0.40304  0.52130  Biso   1.000  C
  H9       1.0000 0.70480  0.09900  0.90310  Biso   1.000  H
  H10      1.0000 0.79520  0.40100  0.90310  Biso   1.000  H
  H11      1.0000 0.20480  0.90100  0.59690  Biso   1.000  H
  H12      1.0000 0.29520  0.59900  0.59690  Biso   1.000  H
  H13      1.0000 0.29520  0.90100  0.09690  Biso   1.000  H
  H14      1.0000 0.20480  0.59900  0.09690  Biso   1.000  H
  H15      1.0000 0.79520  0.09900  0.40310  Biso   1.000  H
  H16      1.0000 0.70480  0.40100  0.40310  Biso   1.000  H
  H17      1.0000 0.69700  0.12430  0.10740  Biso   1.000  H
  H18      1.0000 0.80300  0.37570  0.10740  Biso   1.000  H
  H19      1.0000 0.19700  0.87570  0.39260  Biso   1.000  H
  H20      1.0000 0.30300  0.62430  0.39260  Biso   1.000  H
  H21      1.0000 0.30300  0.87570  0.89260  Biso   1.000  H
  H22      1.0000 0.19700  0.62430  0.89260  Biso   1.000  H
  H23      1.0000 0.80300  0.12430  0.60740  Biso   1.000  H
  H24      1.0000 0.69700  0.37570  0.60740  Biso   1.000  H
  C41      1.0000 0.60595  0.17951  0.96290  Biso   1.000  C
  C42      1.0000 0.89405  0.32049  0.96290  Biso   1.000  C
  C43      1.0000 0.10595  0.82049  0.53710  Biso   1.000  C
  C44      1.0000 0.39405  0.67951  0.53710  Biso   1.000  C
  C45      1.0000 0.39405  0.82049  0.03710  Biso   1.000  C
  C46      1.0000 0.10595  0.67951  0.03710  Biso   1.000  C
  C47      1.0000 0.89405  0.17951  0.46290  Biso   1.000  C
  C48      1.0000 0.60595  0.32049  0.46290  Biso   1.000  C
  C49      1.0000 0.57858  0.27236  0.93390  Biso   1.000  C
  C50      1.0000 0.92142  0.22764  0.93390  Biso   1.000  C
  C51      1.0000 0.07858  0.72764  0.56610  Biso   1.000  C
  C52      1.0000 0.42142  0.77236  0.56610  Biso   1.000  C
  C53      1.0000 0.42142  0.72764  0.06610  Biso   1.000  C
  C54      1.0000 0.07858  0.77236  0.06610  Biso   1.000  C
  C55      1.0000 0.92142  0.27236  0.43390  Biso   1.000  C
  C56      1.0000 0.57858  0.22764  0.43390  Biso   1.000  C
  C57      1.0000 0.63975  0.26134  0.98360  Biso   1.000  C
  C58      1.0000 0.86025  0.23866  0.98360  Biso   1.000  C
  C59      1.0000 0.13975  0.73866  0.51640  Biso   1.000  C
  C60      1.0000 0.36025  0.76134  0.51640  Biso   1.000  C
  C61      1.0000 0.36025  0.73866  0.01640  Biso   1.000  C
  C62      1.0000 0.13975  0.76134  0.01640  Biso   1.000  C
  C63      1.0000 0.86025  0.26134  0.48360  Biso   1.000  C
  C64      1.0000 0.63975  0.23866  0.48360  Biso   1.000  C
  C65      1.0000 0.68083  0.30265  0.01450  Biso   1.000  C
  C66      1.0000 0.81917  0.19735  0.01450  Biso   1.000  C
  C67      1.0000 0.18083  0.69735  0.48550  Biso   1.000  C
  C68      1.0000 0.31917  0.80265  0.48550  Biso   1.000  C
  C69      1.0000 0.31917  0.69735  0.98550  Biso   1.000  C
  C70      1.0000 0.18083  0.80265  0.98550  Biso   1.000  C
  C71      1.0000 0.81917  0.30265  0.51450  Biso   1.000  C
  C72      1.0000 0.68083  0.19735  0.51450  Biso   1.000  C
  H25      1.0000 0.72260  0.29580  0.04830  Biso   1.000  H
  H26      1.0000 0.77740  0.20420  0.04830  Biso   1.000  H
  H27      1.0000 0.22260  0.70420  0.45170  Biso   1.000  H
  H28      1.0000 0.27740  0.79580  0.45170  Biso   1.000  H
  H29      1.0000 0.27740  0.70420  0.95170  Biso   1.000  H
  H30      1.0000 0.22260  0.79580  0.95170  Biso   1.000  H
  H31      1.0000 0.77740  0.29580  0.54830  Biso   1.000  H
  H32      1.0000 0.72260  0.20420  0.54830  Biso   1.000  H
  C73      1.0000 0.65983  0.35356  0.99510  Biso   1.000  C
  C74      1.0000 0.84017  0.14644  0.99510  Biso   1.000  C
  C75      1.0000 0.15983  0.64644  0.50490  Biso   1.000  C
  C76      1.0000 0.34017  0.85356  0.50490  Biso   1.000  C
  C77      1.0000 0.34017  0.64644  0.00490  Biso   1.000  C
  C78      1.0000 0.15983  0.85356  0.00490  Biso   1.000  C
  C79      1.0000 0.84017  0.35356  0.49510  Biso   1.000  C
  C80      1.0000 0.65983  0.14644  0.49510  Biso   1.000  C
  H33      1.0000 0.68740  0.38210  0.01650  Biso   1.000  H
  H34      1.0000 0.81260  0.11790  0.01650  Biso   1.000  H
  H35      1.0000 0.18740  0.61790  0.48350  Biso   1.000  H
  H36      1.0000 0.31260  0.88210  0.48350  Biso   1.000  H
  H37      1.0000 0.31260  0.61790  0.98350  Biso   1.000  H
  H38      1.0000 0.18740  0.88210  0.98350  Biso   1.000  H
  H39      1.0000 0.81260  0.38210  0.51650  Biso   1.000  H
  H40      1.0000 0.68740  0.11790  0.51650  Biso   1.000  H
  C81      1.0000 0.59887  0.36401  0.94480  Biso   1.000  C
  C82      1.0000 0.90113  0.13599  0.94480  Biso   1.000  C
  C83      1.0000 0.09887  0.63599  0.55520  Biso   1.000  C
  C84      1.0000 0.40113  0.86401  0.55520  Biso   1.000  C
  C85      1.0000 0.40113  0.63599  0.05520  Biso   1.000  C
  C86      1.0000 0.09887  0.86401  0.05520  Biso   1.000  C
  C87      1.0000 0.90113  0.36401  0.44480  Biso   1.000  C
  C88      1.0000 0.59887  0.13599  0.44480  Biso   1.000  C
  H41      1.0000 0.58570  0.39950  0.93200  Biso   1.000  H
  H42      1.0000 0.91430  0.10050  0.93200  Biso   1.000  H
  H43      1.0000 0.08570  0.60050  0.56800  Biso   1.000  H
  H44      1.0000 0.41430  0.89950  0.56800  Biso   1.000  H
  H45      1.0000 0.41430  0.60050  0.06800  Biso   1.000  H
  H46      1.0000 0.08570  0.89950  0.06800  Biso   1.000  H
  H47      1.0000 0.91430  0.39950  0.43200  Biso   1.000  H
  H48      1.0000 0.58570  0.10050  0.43200  Biso   1.000  H
  C89      1.0000 0.55732  0.32394  0.91320  Biso   1.000  C
  C90      1.0000 0.94268  0.17606  0.91320  Biso   1.000  C
  C91      1.0000 0.05732  0.67606  0.58680  Biso   1.000  C
  C92      1.0000 0.44268  0.82394  0.58680  Biso   1.000  C
  C93      1.0000 0.44268  0.67606  0.08680  Biso   1.000  C
  C94      1.0000 0.05732  0.82394  0.08680  Biso   1.000  C
  C95      1.0000 0.94268  0.32394  0.41320  Biso   1.000  C
  C96      1.0000 0.55732  0.17606  0.41320  Biso   1.000  C
  H49      1.0000 0.51570  0.33110  0.87860  Biso   1.000  H
  H50      1.0000 0.98430  0.16890  0.87860  Biso   1.000  H
  H51      1.0000 0.01570  0.66890  0.62140  Biso   1.000  H
  H52      1.0000 0.48430  0.83110  0.62140  Biso   1.000  H
  H53      1.0000 0.48430  0.66890  0.12140  Biso   1.000  H
  H54      1.0000 0.01570  0.83110  0.12140  Biso   1.000  H
  H55      1.0000 0.98430  0.33110  0.37860  Biso   1.000  H
  H56      1.0000 0.51570  0.16890  0.37860  Biso   1.000  H
  C97      1.0000 0.59384  0.84529  0.37800  Biso   1.000  C
  C98      1.0000 0.90616  0.65471  0.37800  Biso   1.000  C
  C99      1.0000 0.09384  0.15471  0.12200  Biso   1.000  C
  C100     1.0000 0.40616  0.34529  0.12200  Biso   1.000  C
  C101     1.0000 0.40616  0.15471  0.62200  Biso   1.000  C
  C102     1.0000 0.09384  0.34529  0.62200  Biso   1.000  C
  C103     1.0000 0.90616  0.84529  0.87800  Biso   1.000  C
  C104     1.0000 0.59384  0.65471  0.87800  Biso   1.000  C
  H57      1.0000 0.55410  0.85250  0.32720  Biso   1.000  H
  H58      1.0000 0.94590  0.64750  0.32720  Biso   1.000  H
  H59      1.0000 0.05410  0.14750  0.17280  Biso   1.000  H
  H60      1.0000 0.44590  0.35250  0.17280  Biso   1.000  H
  H61      1.0000 0.44590  0.14750  0.67280  Biso   1.000  H
  H62      1.0000 0.05410  0.35250  0.67280  Biso   1.000  H
  H63      1.0000 0.94590  0.85250  0.82720  Biso   1.000  H
  H64      1.0000 0.55410  0.64750  0.82720  Biso   1.000  H
  C105     1.0000 0.60447  0.79764  0.46190  Biso   1.000  C
  C106     1.0000 0.89553  0.70236  0.46190  Biso   1.000  C
  C107     1.0000 0.10447  0.20236  0.03810  Biso   1.000  C
  C108     1.0000 0.39553  0.29764  0.03810  Biso   1.000  C
  C109     1.0000 0.39553  0.20236  0.53810  Biso   1.000  C
  C110     1.0000 0.10447  0.29764  0.53810  Biso   1.000  C
  C111     1.0000 0.89553  0.79764  0.96190  Biso   1.000  C
  C112     1.0000 0.60447  0.70236  0.96190  Biso   1.000  C
  H65      1.0000 0.57270  0.77180  0.46660  Biso   1.000  H
  H66      1.0000 0.92730  0.72820  0.46660  Biso   1.000  H
  H67      1.0000 0.07270  0.22820  0.03340  Biso   1.000  H
  H68      1.0000 0.42730  0.27180  0.03340  Biso   1.000  H
  H69      1.0000 0.42730  0.22820  0.53340  Biso   1.000  H
  H70      1.0000 0.07270  0.27180  0.53340  Biso   1.000  H
  H71      1.0000 0.92730  0.77180  0.96660  Biso   1.000  H
  H72      1.0000 0.57270  0.72820  0.96660  Biso   1.000  H
  C113     1.0000 0.66156  0.78742  0.53950  Biso   1.000  C
  C114     1.0000 0.83844  0.71258  0.53950  Biso   1.000  C
  C115     1.0000 0.16156  0.21258  0.96050  Biso   1.000  C
  C116     1.0000 0.33844  0.28742  0.96050  Biso   1.000  C
  C117     1.0000 0.33844  0.21258  0.46050  Biso   1.000  C
  C118     1.0000 0.16156  0.28742  0.46050  Biso   1.000  C
  C119     1.0000 0.83844  0.78742  0.03950  Biso   1.000  C
  C120     1.0000 0.66156  0.71258  0.03950  Biso   1.000  C
  H73      1.0000 0.66880  0.75470  0.60020  Biso   1.000  H
  H74      1.0000 0.83120  0.74530  0.60020  Biso   1.000  H
  H75      1.0000 0.16880  0.24530  0.89980  Biso   1.000  H
  H76      1.0000 0.33120  0.25470  0.89980  Biso   1.000  H
  H77      1.0000 0.33120  0.24530  0.39980  Biso   1.000  H
  H78      1.0000 0.16880  0.25470  0.39980  Biso   1.000  H
  H79      1.0000 0.83120  0.75470  0.10020  Biso   1.000  H
  H80      1.0000 0.66880  0.74530  0.10020  Biso   1.000  H
  C121     1.0000 0.70815  0.82412  0.53000  Biso   1.000  C
  C122     1.0000 0.79185  0.67588  0.53000  Biso   1.000  C
  C123     1.0000 0.20815  0.17588  0.97000  Biso   1.000  C
  C124     1.0000 0.29185  0.32412  0.97000  Biso   1.000  C
  C125     1.0000 0.29185  0.17588  0.47000  Biso   1.000  C
  C126     1.0000 0.20815  0.32412  0.47000  Biso   1.000  C
  C127     1.0000 0.79185  0.82412  0.03000  Biso   1.000  C
  C128     1.0000 0.70815  0.67588  0.03000  Biso   1.000  C
  H81      1.0000 0.74690  0.81640  0.58650  Biso   1.000  H
  H82      1.0000 0.75310  0.68360  0.58650  Biso   1.000  H
  H83      1.0000 0.24690  0.18360  0.91350  Biso   1.000  H
  H84      1.0000 0.25310  0.31640  0.91350  Biso   1.000  H
  H85      1.0000 0.25310  0.18360  0.41350  Biso   1.000  H
  H86      1.0000 0.24690  0.31640  0.41350  Biso   1.000  H
  H87      1.0000 0.75310  0.81640  0.08650  Biso   1.000  H
  H88      1.0000 0.74690  0.68360  0.08650  Biso   1.000  H
  C129     1.0000 0.87917  0.99968  0.19050  Biso   1.000  C
  C130     1.0000 0.62083  0.50032  0.19050  Biso   1.000  C
  C131     1.0000 0.37917  0.00032  0.30950  Biso   1.000  C
  C132     1.0000 0.12083  0.49968  0.30950  Biso   1.000  C
  C133     1.0000 0.12083  0.00032  0.80950  Biso   1.000  C
  C134     1.0000 0.37917  0.49968  0.80950  Biso   1.000  C
  C135     1.0000 0.62083  0.99968  0.69050  Biso   1.000  C
  C136     1.0000 0.87917  0.50032  0.69050  Biso   1.000  C
  H89      1.0000 0.85840  0.02930  0.13840  Biso   1.000  H
  H90      1.0000 0.64160  0.47070  0.13840  Biso   1.000  H
  H91      1.0000 0.35840  0.97070  0.36160  Biso   1.000  H
  H92      1.0000 0.14160  0.52930  0.36160  Biso   1.000  H
  H93      1.0000 0.14160  0.97070  0.86160  Biso   1.000  H
  H94      1.0000 0.35840  0.52930  0.86160  Biso   1.000  H
  H95      1.0000 0.64160  0.02930  0.63840  Biso   1.000  H
  H96      1.0000 0.85840  0.47070  0.63840  Biso   1.000  H
  C137     1.0000 0.94300  0.99958  0.19530  Biso   1.000  C
  C138     1.0000 0.55700  0.50042  0.19530  Biso   1.000  C
  C139     1.0000 0.44300  0.00042  0.30470  Biso   1.000  C
  C140     1.0000 0.05700  0.49958  0.30470  Biso   1.000  C
  C141     1.0000 0.05700  0.00042  0.80470  Biso   1.000  C
  C142     1.0000 0.44300  0.49958  0.80470  Biso   1.000  C
  C143     1.0000 0.55700  0.99958  0.69530  Biso   1.000  C
  C144     1.0000 0.94300  0.50042  0.69530  Biso   1.000  C
  H97      1.0000 0.96540  0.02870  0.14630  Biso   1.000  H
  H98      1.0000 0.53460  0.47130  0.14630  Biso   1.000  H
  H99      1.0000 0.46540  0.97130  0.35370  Biso   1.000  H
  H100     1.0000 0.03460  0.52870  0.35370  Biso   1.000  H
  H101     1.0000 0.03460  0.97130  0.85370  Biso   1.000  H
  H102     1.0000 0.46540  0.52870  0.85370  Biso   1.000  H
  H103     1.0000 0.53460  0.02870  0.64630  Biso   1.000  H
  H104     1.0000 0.96540  0.47130  0.64630  Biso   1.000  H
  C145     1.0000 0.97394  0.95757  0.27080  Biso   1.000  C
  C146     1.0000 0.52606  0.54243  0.27080  Biso   1.000  C
  C147     1.0000 0.47394  0.04243  0.22920  Biso   1.000  C
  C148     1.0000 0.02606  0.45757  0.22920  Biso   1.000  C
  C149     1.0000 0.02606  0.04243  0.72920  Biso   1.000  C
  C150     1.0000 0.47394  0.45757  0.72920  Biso   1.000  C
  C151     1.0000 0.52606  0.95757  0.77080  Biso   1.000  C
  C152     1.0000 0.97394  0.54243  0.77080  Biso   1.000  C
  H105     1.0000 0.01780  0.95740  0.27880  Biso   1.000  H
  H106     1.0000 0.48220  0.54260  0.27880  Biso   1.000  H
  H107     1.0000 0.51780  0.04260  0.22120  Biso   1.000  H
  H108     1.0000 0.98220  0.45740  0.22120  Biso   1.000  H
  H109     1.0000 0.98220  0.04260  0.72120  Biso   1.000  H
  H110     1.0000 0.51780  0.45740  0.72120  Biso   1.000  H
  H111     1.0000 0.48220  0.95740  0.77880  Biso   1.000  H
  H112     1.0000 0.01780  0.54260  0.77880  Biso   1.000  H
  C153     1.0000 0.93942  0.91535  0.33520  Biso   1.000  C
  C154     1.0000 0.56058  0.58465  0.33520  Biso   1.000  C
  C155     1.0000 0.43942  0.08465  0.16480  Biso   1.000  C
  C156     1.0000 0.06058  0.41535  0.16480  Biso   1.000  C
  C157     1.0000 0.06058  0.08465  0.66480  Biso   1.000  C
  C158     1.0000 0.43942  0.41535  0.66480  Biso   1.000  C
  C159     1.0000 0.56058  0.91535  0.83520  Biso   1.000  C
  C160     1.0000 0.93942  0.58465  0.83520  Biso   1.000  C
  H113     1.0000 0.95940  0.88510  0.38500  Biso   1.000  H
  H114     1.0000 0.54060  0.61490  0.38500  Biso   1.000  H
  H115     1.0000 0.45940  0.11490  0.11500  Biso   1.000  H
  H116     1.0000 0.04060  0.38510  0.11500  Biso   1.000  H
  H117     1.0000 0.04060  0.11490  0.61500  Biso   1.000  H
  H118     1.0000 0.45940  0.38510  0.61500  Biso   1.000  H
  H119     1.0000 0.54060  0.88510  0.88500  Biso   1.000  H
  H120     1.0000 0.95940  0.61490  0.88500  Biso   1.000  H
  C161     1.0000 0.87554  0.91752  0.32660  Biso   1.000  C
  C162     1.0000 0.62446  0.58248  0.32660  Biso   1.000  C
  C163     1.0000 0.37554  0.08248  0.17340  Biso   1.000  C
  C164     1.0000 0.12446  0.41752  0.17340  Biso   1.000  C
  C165     1.0000 0.12446  0.08248  0.67340  Biso   1.000  C
  C166     1.0000 0.37554  0.41752  0.67340  Biso   1.000  C
  C167     1.0000 0.62446  0.91752  0.82660  Biso   1.000  C
  C168     1.0000 0.87554  0.58248  0.82660  Biso   1.000  C
  H121     1.0000 0.85220  0.88840  0.37150  Biso   1.000  H
  H122     1.0000 0.64780  0.61160  0.37150  Biso   1.000  H
  H123     1.0000 0.35220  0.11160  0.12850  Biso   1.000  H
  H124     1.0000 0.14780  0.38840  0.12850  Biso   1.000  H
  H125     1.0000 0.14780  0.11160  0.62850  Biso   1.000  H
  H126     1.0000 0.35220  0.38840  0.62850  Biso   1.000  H
  H127     1.0000 0.64780  0.88840  0.87150  Biso   1.000  H
  H128     1.0000 0.85220  0.61160  0.87150  Biso   1.000  H
