data_image0
_cell_length_a       14.208
_cell_length_b       6.5159
_cell_length_c       21.722
_cell_angle_alpha    90
_cell_angle_beta     90
_cell_angle_gamma    90

_symmetry_space_group_name_H-M    "P 1"
_symmetry_int_tables_number       1

loop_
  _symmetry_equiv_pos_as_xyz
  'x, y, z'

loop_
  _atom_site_label
  _atom_site_occupancy
  _atom_site_fract_x
  _atom_site_fract_y
  _atom_site_fract_z
  _atom_site_thermal_displace_type
  _atom_site_B_iso_or_equiv
  _atom_site_type_symbol
  Cu1      1.0000 0.35209  0.13735  0.24112  Biso   1.000  Cu
  Cu2      1.0000 0.14791  0.86265  0.74112  Biso   1.000  Cu
  Cu3      1.0000 0.64791  0.63735  0.25888  Biso   1.000  Cu
  Cu4      1.0000 0.85209  0.36265  0.75888  Biso   1.000  Cu
  Cu5      1.0000 0.64791  0.86265  0.75888  Biso   1.000  Cu
  Cu6      1.0000 0.85209  0.13735  0.25888  Biso   1.000  Cu
  Cu7      1.0000 0.35209  0.36265  0.74112  Biso   1.000  Cu
  Cu8      1.0000 0.14791  0.63735  0.24112  Biso   1.000  Cu
  O1       1.0000 0.44850  0.10480  0.30394  Biso   1.000  O
  O2       1.0000 0.05150  0.89520  0.80394  Biso   1.000  O
  O3       1.0000 0.55150  0.60480  0.19606  Biso   1.000  O
  O4       1.0000 0.94850  0.39520  0.69606  Biso   1.000  O
  O5       1.0000 0.55150  0.89520  0.69606  Biso   1.000  O
  O6       1.0000 0.94850  0.10480  0.19606  Biso   1.000  O
  O7       1.0000 0.44850  0.39520  0.80394  Biso   1.000  O
  O8       1.0000 0.05150  0.60480  0.30394  Biso   1.000  O
  O9       1.0000 0.42810  0.44010  0.31949  Biso   1.000  O
  O10      1.0000 0.07190  0.55990  0.81949  Biso   1.000  O
  O11      1.0000 0.57190  0.94010  0.18051  Biso   1.000  O
  O12      1.0000 0.92810  0.05990  0.68051  Biso   1.000  O
  O13      1.0000 0.57190  0.55990  0.68051  Biso   1.000  O
  O14      1.0000 0.92810  0.44010  0.18051  Biso   1.000  O
  O15      1.0000 0.42810  0.05990  0.81949  Biso   1.000  O
  O16      1.0000 0.07190  0.94010  0.31949  Biso   1.000  O
  O17      1.0000 0.63510  0.29640  0.27688  Biso   1.000  O
  O18      1.0000 0.86490  0.70360  0.77688  Biso   1.000  O
  O19      1.0000 0.36490  0.79640  0.22312  Biso   1.000  O
  O20      1.0000 0.13510  0.20360  0.72312  Biso   1.000  O
  O21      1.0000 0.36490  0.70360  0.72312  Biso   1.000  O
  O22      1.0000 0.13510  0.29640  0.22312  Biso   1.000  O
  O23      1.0000 0.63510  0.20360  0.77688  Biso   1.000  O
  O24      1.0000 0.86490  0.79640  0.27688  Biso   1.000  O
  O25      1.0000 0.75980  0.14910  0.32317  Biso   1.000  O
  O26      1.0000 0.74020  0.85090  0.82317  Biso   1.000  O
  O27      1.0000 0.24020  0.64910  0.17683  Biso   1.000  O
  O28      1.0000 0.25980  0.35090  0.67683  Biso   1.000  O
  O29      1.0000 0.24020  0.85090  0.67683  Biso   1.000  O
  O30      1.0000 0.25980  0.14910  0.17683  Biso   1.000  O
  O31      1.0000 0.75980  0.35090  0.82317  Biso   1.000  O
  O32      1.0000 0.74020  0.64910  0.32317  Biso   1.000  O
  N1       1.0000 0.68210  0.14440  0.54860  Biso   1.000  N
  N2       1.0000 0.81790  0.85560  0.04860  Biso   1.000  N
  N3       1.0000 0.31790  0.64440  0.95140  Biso   1.000  N
  N4       1.0000 0.18210  0.35560  0.45140  Biso   1.000  N
  N5       1.0000 0.31790  0.85560  0.45140  Biso   1.000  N
  N6       1.0000 0.18210  0.14440  0.95140  Biso   1.000  N
  N7       1.0000 0.68210  0.35560  0.04860  Biso   1.000  N
  N8       1.0000 0.81790  0.64440  0.54860  Biso   1.000  N
  O33      1.0000 0.76730  0.09950  0.54460  Biso   1.000  O
  O34      1.0000 0.73270  0.90050  0.04460  Biso   1.000  O
  O35      1.0000 0.23270  0.59950  0.95540  Biso   1.000  O
  O36      1.0000 0.26730  0.40050  0.45540  Biso   1.000  O
  O37      1.0000 0.23270  0.90050  0.45540  Biso   1.000  O
  O38      1.0000 0.26730  0.09950  0.95540  Biso   1.000  O
  O39      1.0000 0.76730  0.40050  0.04460  Biso   1.000  O
  O40      1.0000 0.73270  0.59950  0.54460  Biso   1.000  O
  O41      1.0000 0.63970  0.14870  0.59882  Biso   1.000  O
  O42      1.0000 0.86030  0.85130  0.09882  Biso   1.000  O
  O43      1.0000 0.36030  0.64870  0.90118  Biso   1.000  O
  O44      1.0000 0.13970  0.35130  0.40118  Biso   1.000  O
  O45      1.0000 0.36030  0.85130  0.40118  Biso   1.000  O
  O46      1.0000 0.13970  0.14870  0.90118  Biso   1.000  O
  O47      1.0000 0.63970  0.35130  0.09882  Biso   1.000  O
  O48      1.0000 0.86030  0.64870  0.59882  Biso   1.000  O
  C1       1.0000 0.46540  0.27310  0.33201  Biso   1.000  C
  C2       1.0000 0.03460  0.72690  0.83201  Biso   1.000  C
  C3       1.0000 0.53460  0.77310  0.16799  Biso   1.000  C
  C4       1.0000 0.96540  0.22690  0.66799  Biso   1.000  C
  C5       1.0000 0.53460  0.72690  0.66799  Biso   1.000  C
  C6       1.0000 0.96540  0.27310  0.16799  Biso   1.000  C
  C7       1.0000 0.46540  0.22690  0.83201  Biso   1.000  C
  C8       1.0000 0.03460  0.77310  0.33201  Biso   1.000  C
  C9       1.0000 0.52980  0.25570  0.38750  Biso   1.000  C
  C10      1.0000 0.97020  0.74430  0.88750  Biso   1.000  C
  C11      1.0000 0.47020  0.75570  0.11250  Biso   1.000  C
  C12      1.0000 0.02980  0.24430  0.61250  Biso   1.000  C
  C13      1.0000 0.47020  0.74430  0.61250  Biso   1.000  C
  C14      1.0000 0.02980  0.25570  0.11250  Biso   1.000  C
  C15      1.0000 0.52980  0.24430  0.88750  Biso   1.000  C
  C16      1.0000 0.97020  0.75570  0.38750  Biso   1.000  C
  C17      1.0000 0.48670  0.26770  0.44470  Biso   1.000  C
  C18      1.0000 0.01330  0.73230  0.94470  Biso   1.000  C
  C19      1.0000 0.51330  0.76770  0.05530  Biso   1.000  C
  C20      1.0000 0.98670  0.23230  0.55530  Biso   1.000  C
  C21      1.0000 0.51330  0.73230  0.55530  Biso   1.000  C
  C22      1.0000 0.98670  0.26770  0.05530  Biso   1.000  C
  C23      1.0000 0.48670  0.23230  0.94470  Biso   1.000  C
  C24      1.0000 0.01330  0.76770  0.44470  Biso   1.000  C
  H1       1.0000 0.42260  0.29640  0.44700  Biso   1.000  H
  H2       1.0000 0.07740  0.70360  0.94700  Biso   1.000  H
  H3       1.0000 0.57740  0.79640  0.05300  Biso   1.000  H
  H4       1.0000 0.92260  0.20360  0.55300  Biso   1.000  H
  H5       1.0000 0.57740  0.70360  0.55300  Biso   1.000  H
  H6       1.0000 0.92260  0.29640  0.05300  Biso   1.000  H
  H7       1.0000 0.42260  0.20360  0.94700  Biso   1.000  H
  H8       1.0000 0.07740  0.79640  0.44700  Biso   1.000  H
  C25      1.0000 0.53730  0.23750  0.49820  Biso   1.000  C
  C26      1.0000 0.96270  0.76250  0.99820  Biso   1.000  C
  C27      1.0000 0.46270  0.73750  0.00180  Biso   1.000  C
  C28      1.0000 0.03730  0.26250  0.50180  Biso   1.000  C
  C29      1.0000 0.46270  0.76250  0.50180  Biso   1.000  C
  C30      1.0000 0.03730  0.23750  0.00180  Biso   1.000  C
  C31      1.0000 0.53730  0.26250  0.99820  Biso   1.000  C
  C32      1.0000 0.96270  0.73750  0.49820  Biso   1.000  C
  H9       1.0000 0.50860  0.24750  0.53660  Biso   1.000  H
  H10      1.0000 0.99140  0.75250  0.03660  Biso   1.000  H
  H11      1.0000 0.49140  0.74750  0.96340  Biso   1.000  H
  H12      1.0000 0.00860  0.25250  0.46340  Biso   1.000  H
  H13      1.0000 0.49140  0.75250  0.46340  Biso   1.000  H
  H14      1.0000 0.00860  0.24750  0.96340  Biso   1.000  H
  H15      1.0000 0.50860  0.25250  0.03660  Biso   1.000  H
  H16      1.0000 0.99140  0.74750  0.53660  Biso   1.000  H
  C33      1.0000 0.63140  0.19230  0.49300  Biso   1.000  C
  C34      1.0000 0.86860  0.80770  0.99300  Biso   1.000  C
  C35      1.0000 0.36860  0.69230  0.00700  Biso   1.000  C
  C36      1.0000 0.13140  0.30770  0.50700  Biso   1.000  C
  C37      1.0000 0.36860  0.80770  0.50700  Biso   1.000  C
  C38      1.0000 0.13140  0.19230  0.00700  Biso   1.000  C
  C39      1.0000 0.63140  0.30770  0.99300  Biso   1.000  C
  C40      1.0000 0.86860  0.69230  0.49300  Biso   1.000  C
  C41      1.0000 0.67790  0.18730  0.43680  Biso   1.000  C
  C42      1.0000 0.82210  0.81270  0.93680  Biso   1.000  C
  C43      1.0000 0.32210  0.68730  0.06320  Biso   1.000  C
  C44      1.0000 0.17790  0.31270  0.56320  Biso   1.000  C
  C45      1.0000 0.32210  0.81270  0.56320  Biso   1.000  C
  C46      1.0000 0.17790  0.18730  0.06320  Biso   1.000  C
  C47      1.0000 0.67790  0.31270  0.93680  Biso   1.000  C
  C48      1.0000 0.82210  0.68730  0.43680  Biso   1.000  C
  H17      1.0000 0.74230  0.16340  0.43500  Biso   1.000  H
  H18      1.0000 0.75770  0.83660  0.93500  Biso   1.000  H
  H19      1.0000 0.25770  0.66340  0.06500  Biso   1.000  H
  H20      1.0000 0.24230  0.33660  0.56500  Biso   1.000  H
  H21      1.0000 0.25770  0.83660  0.56500  Biso   1.000  H
  H22      1.0000 0.24230  0.16340  0.06500  Biso   1.000  H
  H23      1.0000 0.74230  0.33660  0.93500  Biso   1.000  H
  H24      1.0000 0.75770  0.66340  0.43500  Biso   1.000  H
  C49      1.0000 0.62620  0.21850  0.38360  Biso   1.000  C
  C50      1.0000 0.87380  0.78150  0.88360  Biso   1.000  C
  C51      1.0000 0.37380  0.71850  0.11640  Biso   1.000  C
  C52      1.0000 0.12620  0.28150  0.61640  Biso   1.000  C
  C53      1.0000 0.37380  0.78150  0.61640  Biso   1.000  C
  C54      1.0000 0.12620  0.21850  0.11640  Biso   1.000  C
  C55      1.0000 0.62620  0.28150  0.88360  Biso   1.000  C
  C56      1.0000 0.87380  0.71850  0.38360  Biso   1.000  C
  C57      1.0000 0.67720  0.22180  0.32240  Biso   1.000  C
  C58      1.0000 0.82280  0.77820  0.82240  Biso   1.000  C
  C59      1.0000 0.32280  0.72180  0.17760  Biso   1.000  C
  C60      1.0000 0.17720  0.27820  0.67760  Biso   1.000  C
  C61      1.0000 0.32280  0.77820  0.67760  Biso   1.000  C
  C62      1.0000 0.17720  0.22180  0.17760  Biso   1.000  C
  C63      1.0000 0.67720  0.27820  0.82240  Biso   1.000  C
  C64      1.0000 0.82280  0.72180  0.32240  Biso   1.000  C
  O49      1.0000 0.25880  0.10020  0.30857  Biso   1.000  O
  O50      1.0000 0.24120  0.89980  0.80857  Biso   1.000  O
  O51      1.0000 0.74120  0.60020  0.19143  Biso   1.000  O
  O52      1.0000 0.75880  0.39980  0.69143  Biso   1.000  O
  O53      1.0000 0.74120  0.89980  0.69143  Biso   1.000  O
  O54      1.0000 0.75880  0.10020  0.19143  Biso   1.000  O
  O55      1.0000 0.25880  0.39980  0.80857  Biso   1.000  O
  O56      1.0000 0.24120  0.60020  0.30857  Biso   1.000  O
  H25      1.0000 0.20640  0.07480  0.29120  Biso   1.000  H
  H26      1.0000 0.29360  0.92520  0.79120  Biso   1.000  H
  H27      1.0000 0.79360  0.57480  0.20880  Biso   1.000  H
  H28      1.0000 0.70640  0.42520  0.70880  Biso   1.000  H
  H29      1.0000 0.79360  0.92520  0.70880  Biso   1.000  H
  H30      1.0000 0.70640  0.07480  0.20880  Biso   1.000  H
  H31      1.0000 0.20640  0.42520  0.79120  Biso   1.000  H
  H32      1.0000 0.29360  0.57480  0.29120  Biso   1.000  H
  H33      1.0000 0.27640  0.00510  0.33280  Biso   1.000  H
  H34      1.0000 0.22360  0.99490  0.83280  Biso   1.000  H
  H35      1.0000 0.72360  0.50510  0.16720  Biso   1.000  H
  H36      1.0000 0.77640  0.49490  0.66720  Biso   1.000  H
  H37      1.0000 0.72360  0.99490  0.66720  Biso   1.000  H
  H38      1.0000 0.77640  0.00510  0.16720  Biso   1.000  H
  H39      1.0000 0.27640  0.49490  0.83280  Biso   1.000  H
  H40      1.0000 0.22360  0.50510  0.33280  Biso   1.000  H
  O57      1.0000 0.44570  0.24810  0.18154  Biso   1.000  O
  O58      1.0000 0.05430  0.75190  0.68154  Biso   1.000  O
  O59      1.0000 0.55430  0.74810  0.31846  Biso   1.000  O
  O60      1.0000 0.94570  0.25190  0.81846  Biso   1.000  O
  O61      1.0000 0.55430  0.75190  0.81846  Biso   1.000  O
  O62      1.0000 0.94570  0.24810  0.31846  Biso   1.000  O
  O63      1.0000 0.44570  0.25190  0.68154  Biso   1.000  O
  O64      1.0000 0.05430  0.74810  0.18154  Biso   1.000  O
  H41      1.0000 0.46720  0.36420  0.19210  Biso   1.000  H
  H42      1.0000 0.03280  0.63580  0.69210  Biso   1.000  H
  H43      1.0000 0.53280  0.86420  0.30790  Biso   1.000  H
  H44      1.0000 0.96720  0.13580  0.80790  Biso   1.000  H
  H45      1.0000 0.53280  0.63580  0.80790  Biso   1.000  H
  H46      1.0000 0.96720  0.36420  0.30790  Biso   1.000  H
  H47      1.0000 0.46720  0.13580  0.69210  Biso   1.000  H
  H48      1.0000 0.03280  0.86420  0.19210  Biso   1.000  H
  H49      1.0000 0.48770  0.15670  0.17700  Biso   1.000  H
  H50      1.0000 0.01230  0.84330  0.67700  Biso   1.000  H
  H51      1.0000 0.51230  0.65670  0.32300  Biso   1.000  H
  H52      1.0000 0.98770  0.34330  0.82300  Biso   1.000  H
  H53      1.0000 0.51230  0.84330  0.82300  Biso   1.000  H
  H54      1.0000 0.98770  0.15670  0.32300  Biso   1.000  H
  H55      1.0000 0.48770  0.34330  0.67700  Biso   1.000  H
  H56      1.0000 0.01230  0.65670  0.17700  Biso   1.000  H
