data_image0
_cell_length_a       17.798
_cell_length_b       9.686
_cell_length_c       7.109
_cell_angle_alpha    90
_cell_angle_beta     97.59
_cell_angle_gamma    90

_symmetry_space_group_name_H-M    "P 1"
_symmetry_int_tables_number       1

loop_
  _symmetry_equiv_pos_as_xyz
  'x, y, z'

loop_
  _atom_site_label
  _atom_site_occupancy
  _atom_site_fract_x
  _atom_site_fract_y
  _atom_site_fract_z
  _atom_site_thermal_displace_type
  _atom_site_B_iso_or_equiv
  _atom_site_type_symbol
  Cu1      1.0000 0.29400  0.31770  0.47410  Biso   1.000  Cu
  Cu2      1.0000 0.70600  0.81770  0.02590  Biso   1.000  Cu
  Cu3      1.0000 0.70600  0.68230  0.52590  Biso   1.000  Cu
  Cu4      1.0000 0.29400  0.18230  0.97410  Biso   1.000  Cu
  S1       1.0000 0.21384  0.16000  0.57890  Biso   1.000  S
  S2       1.0000 0.78616  0.66000  0.92110  Biso   1.000  S
  S3       1.0000 0.78616  0.84000  0.42110  Biso   1.000  S
  S4       1.0000 0.21384  0.34000  0.07890  Biso   1.000  S
  N1       1.0000 0.34730  0.49440  0.41320  Biso   1.000  N
  N2       1.0000 0.65270  0.99440  0.08680  Biso   1.000  N
  N3       1.0000 0.65270  0.50560  0.58680  Biso   1.000  N
  N4       1.0000 0.34730  0.00560  0.91320  Biso   1.000  N
  N5       1.0000 0.22010  0.44980  0.54010  Biso   1.000  N
  N6       1.0000 0.77990  0.94980  0.95990  Biso   1.000  N
  N7       1.0000 0.77990  0.55020  0.45990  Biso   1.000  N
  N8       1.0000 0.22010  0.05020  0.04010  Biso   1.000  N
  N9       1.0000 0.15350  0.41000  0.60530  Biso   1.000  N
  N10      1.0000 0.84650  0.91000  0.89470  Biso   1.000  N
  N11      1.0000 0.84650  0.59000  0.39470  Biso   1.000  N
  N12      1.0000 0.15350  0.09000  0.10530  Biso   1.000  N
  N13      1.0000 0.08220  0.23420  0.68660  Biso   1.000  N
  N14      1.0000 0.91780  0.73420  0.81340  Biso   1.000  N
  N15      1.0000 0.91780  0.76580  0.31340  Biso   1.000  N
  N16      1.0000 0.08220  0.26580  0.18660  Biso   1.000  N
  H1       1.0000 0.04890  0.29490  0.71580  Biso   1.000  H
  H2       1.0000 0.95110  0.79490  0.78420  Biso   1.000  H
  H3       1.0000 0.95110  0.70510  0.28420  Biso   1.000  H
  H4       1.0000 0.04890  0.20510  0.21580  Biso   1.000  H
  H5       1.0000 0.07390  0.14540  0.70030  Biso   1.000  H
  H6       1.0000 0.92610  0.64540  0.79970  Biso   1.000  H
  H7       1.0000 0.92610  0.85460  0.29970  Biso   1.000  H
  H8       1.0000 0.07390  0.35460  0.20030  Biso   1.000  H
  N17      1.0000 0.29200  0.85910  0.45120  Biso   1.000  N
  N18      1.0000 0.70800  0.35910  0.04880  Biso   1.000  N
  N19      1.0000 0.70800  0.14090  0.54880  Biso   1.000  N
  N20      1.0000 0.29200  0.64090  0.95120  Biso   1.000  N
  H9       1.0000 0.24710  0.85160  0.48910  Biso   1.000  H
  H10      1.0000 0.75290  0.35160  0.01090  Biso   1.000  H
  H11      1.0000 0.75290  0.14840  0.51090  Biso   1.000  H
  H12      1.0000 0.24710  0.64840  0.98910  Biso   1.000  H
  H13      1.0000 0.31080  0.94120  0.43260  Biso   1.000  H
  H14      1.0000 0.68920  0.44120  0.06740  Biso   1.000  H
  H15      1.0000 0.68920  0.05880  0.56740  Biso   1.000  H
  H16      1.0000 0.31080  0.55880  0.93260  Biso   1.000  H
  C1       1.0000 0.41400  0.50680  0.35310  Biso   1.000  C
  C2       1.0000 0.58600  0.00680  0.14690  Biso   1.000  C
  C3       1.0000 0.58600  0.49320  0.64690  Biso   1.000  C
  C4       1.0000 0.41400  0.99320  0.85310  Biso   1.000  C
  H17      1.0000 0.44050  0.42680  0.32130  Biso   1.000  H
  H18      1.0000 0.55950  0.92680  0.17870  Biso   1.000  H
  H19      1.0000 0.55950  0.57320  0.67870  Biso   1.000  H
  H20      1.0000 0.44050  0.07320  0.82130  Biso   1.000  H
  C5       1.0000 0.44560  0.63730  0.33640  Biso   1.000  C
  C6       1.0000 0.55440  0.13730  0.16360  Biso   1.000  C
  C7       1.0000 0.55440  0.36270  0.66360  Biso   1.000  C
  C8       1.0000 0.44560  0.86270  0.83640  Biso   1.000  C
  H21      1.0000 0.49520  0.64420  0.30160  Biso   1.000  H
  H22      1.0000 0.50480  0.14420  0.19840  Biso   1.000  H
  H23      1.0000 0.50480  0.35580  0.69840  Biso   1.000  H
  H24      1.0000 0.49520  0.85580  0.80160  Biso   1.000  H
  C9       1.0000 0.40820  0.75340  0.36800  Biso   1.000  C
  C10      1.0000 0.59180  0.25340  0.13200  Biso   1.000  C
  C11      1.0000 0.59180  0.24660  0.63200  Biso   1.000  C
  C12      1.0000 0.40820  0.74660  0.86800  Biso   1.000  C
  H25      1.0000 0.43080  0.84110  0.35540  Biso   1.000  H
  H26      1.0000 0.56920  0.34110  0.14460  Biso   1.000  H
  H27      1.0000 0.56920  0.15890  0.64460  Biso   1.000  H
  H28      1.0000 0.43080  0.65890  0.85540  Biso   1.000  H
  C13      1.0000 0.33270  0.74290  0.42140  Biso   1.000  C
  C14      1.0000 0.66730  0.24290  0.07860  Biso   1.000  C
  C15      1.0000 0.66730  0.25710  0.57860  Biso   1.000  C
  C16      1.0000 0.33270  0.75710  0.92140  Biso   1.000  C
  C17      1.0000 0.30620  0.60920  0.44830  Biso   1.000  C
  C18      1.0000 0.69380  0.10920  0.05170  Biso   1.000  C
  C19      1.0000 0.69380  0.39080  0.55170  Biso   1.000  C
  C20      1.0000 0.30620  0.89080  0.94830  Biso   1.000  C
  C21      1.0000 0.23370  0.58170  0.51540  Biso   1.000  C
  C22      1.0000 0.76630  0.08170  0.98460  Biso   1.000  C
  C23      1.0000 0.76630  0.41830  0.48460  Biso   1.000  C
  C24      1.0000 0.23370  0.91830  0.01540  Biso   1.000  C
  H29      1.0000 0.19930  0.65270  0.53920  Biso   1.000  H
  H30      1.0000 0.80070  0.15270  0.96080  Biso   1.000  H
  H31      1.0000 0.80070  0.34730  0.46080  Biso   1.000  H
  H32      1.0000 0.19930  0.84730  0.03920  Biso   1.000  H
  C25      1.0000 0.14490  0.27630  0.62210  Biso   1.000  C
  C26      1.0000 0.85510  0.77630  0.87790  Biso   1.000  C
  C27      1.0000 0.85510  0.72370  0.37790  Biso   1.000  C
  C28      1.0000 0.14490  0.22370  0.12210  Biso   1.000  C
  Cl1      1.0000 0.37616  0.16330  0.38170  Biso   1.000  Cl
  Cl2      1.0000 0.62384  0.66330  0.11830  Biso   1.000  Cl
  Cl3      1.0000 0.62384  0.83670  0.61830  Biso   1.000  Cl
  Cl4      1.0000 0.37616  0.33670  0.88170  Biso   1.000  Cl
  Cl5      1.0000 0.05798  0.91320  0.73390  Biso   1.000  Cl
  Cl6      1.0000 0.94202  0.41320  0.76610  Biso   1.000  Cl
  Cl7      1.0000 0.94202  0.08680  0.26610  Biso   1.000  Cl
  Cl8      1.0000 0.05798  0.58680  0.23390  Biso   1.000  Cl
  O1       1.0000 0.12340  0.62570  0.84460  Biso   1.000  O
  O2       1.0000 0.87660  0.12570  0.65540  Biso   1.000  O
  O3       1.0000 0.87660  0.37430  0.15540  Biso   1.000  O
  O4       1.0000 0.12340  0.87430  0.34460  Biso   1.000  O
  H33      1.0000 0.10580  0.70410  0.81440  Biso   1.000  H
  H34      1.0000 0.89420  0.20410  0.68560  Biso   1.000  H
  H35      1.0000 0.89420  0.29590  0.18560  Biso   1.000  H
  H36      1.0000 0.10580  0.79590  0.31440  Biso   1.000  H
  H37      1.0000 0.10580  0.61530  0.95050  Biso   1.000  H
  H38      1.0000 0.89420  0.11530  0.54950  Biso   1.000  H
  H39      1.0000 0.89420  0.38470  0.04950  Biso   1.000  H
  H40      1.0000 0.10580  0.88470  0.45050  Biso   1.000  H
  H41      1.0000 0.13180  0.56700  0.77980  Biso   1.000  H
  H42      1.0000 0.86820  0.06700  0.72020  Biso   1.000  H
  H43      1.0000 0.86820  0.43300  0.22020  Biso   1.000  H
  H44      1.0000 0.13180  0.93300  0.27980  Biso   1.000  H
