data_image0
_cell_length_a       11.195
_cell_length_b       8.302
_cell_length_c       17.262
_cell_angle_alpha    90
_cell_angle_beta     91.14
_cell_angle_gamma    90

_symmetry_space_group_name_H-M    "P 1"
_symmetry_int_tables_number       1

loop_
  _symmetry_equiv_pos_as_xyz
  'x, y, z'

loop_
  _atom_site_label
  _atom_site_occupancy
  _atom_site_fract_x
  _atom_site_fract_y
  _atom_site_fract_z
  _atom_site_thermal_displace_type
  _atom_site_B_iso_or_equiv
  _atom_site_type_symbol
  Cu1      1.0000 0.66455  0.16908  0.62465  Biso   1.000  Cu
  Cu2      1.0000 0.16455  0.33092  0.12465  Biso   1.000  Cu
  Cu3      1.0000 0.33545  0.83092  0.37535  Biso   1.000  Cu
  Cu4      1.0000 0.83545  0.66908  0.87535  Biso   1.000  Cu
  O1       1.0000 0.50667  0.24090  0.64819  Biso   1.000  O
  O2       1.0000 0.00667  0.25910  0.14819  Biso   1.000  O
  O3       1.0000 0.49333  0.75910  0.35181  Biso   1.000  O
  O4       1.0000 0.99333  0.74090  0.85181  Biso   1.000  O
  N1       1.0000 0.68620  0.09990  0.73222  Biso   1.000  N
  N2       1.0000 0.18620  0.40010  0.23222  Biso   1.000  N
  N3       1.0000 0.31380  0.90010  0.26778  Biso   1.000  N
  N4       1.0000 0.81380  0.59990  0.76778  Biso   1.000  N
  S1       1.0000 0.73985  0.98122  0.88049  Biso   1.000  S
  S2       1.0000 0.23985  0.51878  0.38049  Biso   1.000  S
  S3       1.0000 0.26015  0.01878  0.11951  Biso   1.000  S
  S4       1.0000 0.76015  0.48122  0.61951  Biso   1.000  S
  C1       1.0000 0.70780  0.04850  0.79353  Biso   1.000  C
  C2       1.0000 0.20780  0.45150  0.29353  Biso   1.000  C
  C3       1.0000 0.29220  0.95150  0.20647  Biso   1.000  C
  C4       1.0000 0.79220  0.54850  0.70647  Biso   1.000  C
  C5       1.0000 0.43120  0.29990  0.59845  Biso   1.000  C
  C6       1.0000 0.93120  0.20010  0.09845  Biso   1.000  C
  C7       1.0000 0.56880  0.70010  0.40155  Biso   1.000  C
  C8       1.0000 0.06880  0.79990  0.90155  Biso   1.000  C
  C9       1.0000 0.32470  0.38100  0.63271  Biso   1.000  C
  C10      1.0000 0.82470  0.11900  0.13271  Biso   1.000  C
  C11      1.0000 0.67530  0.61900  0.36729  Biso   1.000  C
  C12      1.0000 0.17530  0.88100  0.86729  Biso   1.000  C
  C13      1.0000 0.33160  0.43190  0.70996  Biso   1.000  C
  C14      1.0000 0.83160  0.06810  0.20996  Biso   1.000  C
  C15      1.0000 0.66840  0.56810  0.29004  Biso   1.000  C
  C16      1.0000 0.16840  0.93190  0.79004  Biso   1.000  C
  H1       1.0000 0.40060  0.41190  0.73930  Biso   1.000  H
  H2       1.0000 0.90060  0.08810  0.23930  Biso   1.000  H
  H3       1.0000 0.59940  0.58810  0.26070  Biso   1.000  H
  H4       1.0000 0.09940  0.91190  0.76070  Biso   1.000  H
  C17      1.0000 0.23690  0.51180  0.74322  Biso   1.000  C
  C18      1.0000 0.73690  0.98820  0.24322  Biso   1.000  C
  C19      1.0000 0.76310  0.48820  0.25678  Biso   1.000  C
  C20      1.0000 0.26310  0.01180  0.75678  Biso   1.000  C
  H5       1.0000 0.24380  0.54650  0.79430  Biso   1.000  H
  H6       1.0000 0.74380  0.95350  0.29430  Biso   1.000  H
  H7       1.0000 0.75620  0.45350  0.20570  Biso   1.000  H
  H8       1.0000 0.25620  0.04650  0.70570  Biso   1.000  H
  C21      1.0000 0.13240  0.54080  0.70157  Biso   1.000  C
  C22      1.0000 0.63240  0.95920  0.20157  Biso   1.000  C
  C23      1.0000 0.86760  0.45920  0.29843  Biso   1.000  C
  C24      1.0000 0.36760  0.04080  0.79843  Biso   1.000  C
  H9       1.0000 0.06900  0.59400  0.72440  Biso   1.000  H
  H10      1.0000 0.56900  0.90600  0.22440  Biso   1.000  H
  H11      1.0000 0.93100  0.40600  0.27560  Biso   1.000  H
  H12      1.0000 0.43100  0.09400  0.77560  Biso   1.000  H
  C25      1.0000 0.12350  0.48890  0.62477  Biso   1.000  C
  C26      1.0000 0.62350  0.01110  0.12477  Biso   1.000  C
  C27      1.0000 0.87650  0.51110  0.37523  Biso   1.000  C
  C28      1.0000 0.37650  0.98890  0.87523  Biso   1.000  C
  H13      1.0000 0.05340  0.50710  0.59630  Biso   1.000  H
  H14      1.0000 0.55340  0.99290  0.09630  Biso   1.000  H
  H15      1.0000 0.94660  0.49290  0.40370  Biso   1.000  H
  H16      1.0000 0.44660  0.00710  0.90370  Biso   1.000  H
  C29      1.0000 0.21830  0.41050  0.59054  Biso   1.000  C
  C30      1.0000 0.71830  0.08950  0.09054  Biso   1.000  C
  C31      1.0000 0.78170  0.58950  0.40946  Biso   1.000  C
  C32      1.0000 0.28170  0.91050  0.90946  Biso   1.000  C
  H17      1.0000 0.21130  0.37720  0.53920  Biso   1.000  H
  H18      1.0000 0.71130  0.12280  0.03920  Biso   1.000  H
  H19      1.0000 0.78870  0.62280  0.46080  Biso   1.000  H
  H20      1.0000 0.28870  0.87720  0.96080  Biso   1.000  H
  C33      1.0000 0.44230  0.29450  0.51854  Biso   1.000  C
  C34      1.0000 0.94230  0.20550  0.01854  Biso   1.000  C
  C35      1.0000 0.55770  0.70550  0.48146  Biso   1.000  C
  C36      1.0000 0.05770  0.79450  0.98146  Biso   1.000  C
  H21      1.0000 0.38030  0.33900  0.48890  Biso   1.000  H
  H22      1.0000 0.88030  0.16100  0.98890  Biso   1.000  H
  H23      1.0000 0.61970  0.66100  0.51110  Biso   1.000  H
  H24      1.0000 0.11970  0.83900  0.01110  Biso   1.000  H
  C37      1.0000 0.53940  0.22730  0.47773  Biso   1.000  C
  C38      1.0000 0.03940  0.27270  0.97773  Biso   1.000  C
  C39      1.0000 0.46060  0.77270  0.52227  Biso   1.000  C
  C40      1.0000 0.96060  0.72730  0.02227  Biso   1.000  C
  C41      1.0000 0.52660  0.21870  0.39078  Biso   1.000  C
  C42      1.0000 0.02660  0.28130  0.89078  Biso   1.000  C
  C43      1.0000 0.47340  0.78130  0.60922  Biso   1.000  C
  C44      1.0000 0.97340  0.71870  0.10922  Biso   1.000  C
  H25      1.0000 0.58810  0.28200  0.36760  Biso   1.000  H
  H26      1.0000 0.08810  0.21800  0.86760  Biso   1.000  H
  H27      1.0000 0.41190  0.71800  0.63240  Biso   1.000  H
  H28      1.0000 0.91190  0.78200  0.13240  Biso   1.000  H
  H29      1.0000 0.44980  0.25990  0.37500  Biso   1.000  H
  H30      1.0000 0.94980  0.24010  0.87500  Biso   1.000  H
  H31      1.0000 0.55020  0.74010  0.62500  Biso   1.000  H
  H32      1.0000 0.05020  0.75990  0.12500  Biso   1.000  H
  H33      1.0000 0.53360  0.10870  0.37430  Biso   1.000  H
  H34      1.0000 0.03360  0.39130  0.87430  Biso   1.000  H
  H35      1.0000 0.46640  0.89130  0.62570  Biso   1.000  H
  H36      1.0000 0.96640  0.60870  0.12570  Biso   1.000  H
  N5       1.0000 0.63740  0.17620  0.51312  Biso   1.000  N
  N6       1.0000 0.13740  0.32380  0.01312  Biso   1.000  N
  N7       1.0000 0.36260  0.82380  0.48688  Biso   1.000  N
  N8       1.0000 0.86260  0.67620  0.98688  Biso   1.000  N
  C45      1.0000 0.73610  0.11210  0.46800  Biso   1.000  C
  C46      1.0000 0.23610  0.38790  0.96800  Biso   1.000  C
  C47      1.0000 0.26390  0.88790  0.53200  Biso   1.000  C
  C48      1.0000 0.76390  0.61210  0.03200  Biso   1.000  C
  H37      1.0000 0.74340  0.17170  0.42000  Biso   1.000  H
  H38      1.0000 0.24340  0.32830  0.92000  Biso   1.000  H
  H39      1.0000 0.25660  0.82830  0.58000  Biso   1.000  H
  H40      1.0000 0.75660  0.67170  0.08000  Biso   1.000  H
  H41      1.0000 0.72200  0.99970  0.45550  Biso   1.000  H
  H42      1.0000 0.22200  0.50030  0.95550  Biso   1.000  H
  H43      1.0000 0.27800  0.00030  0.54450  Biso   1.000  H
  H44      1.0000 0.77800  0.49970  0.04450  Biso   1.000  H
  C49      1.0000 0.84980  0.12930  0.51732  Biso   1.000  C
  C50      1.0000 0.34980  0.37070  0.01732  Biso   1.000  C
  C51      1.0000 0.15020  0.87070  0.48268  Biso   1.000  C
  C52      1.0000 0.65020  0.62930  0.98268  Biso   1.000  C
  H45      1.0000 0.91340  0.06690  0.49460  Biso   1.000  H
  H46      1.0000 0.41340  0.43310  0.99460  Biso   1.000  H
  H47      1.0000 0.08660  0.93310  0.50540  Biso   1.000  H
  H48      1.0000 0.58660  0.56690  0.00540  Biso   1.000  H
  H49      1.0000 0.87440  0.24140  0.51850  Biso   1.000  H
  H50      1.0000 0.37440  0.25860  0.01850  Biso   1.000  H
  H51      1.0000 0.12560  0.75860  0.48150  Biso   1.000  H
  H52      1.0000 0.62560  0.74140  0.98150  Biso   1.000  H
  C53      1.0000 0.81820  0.89500  0.59996  Biso   1.000  C
  C54      1.0000 0.31820  0.60500  0.09996  Biso   1.000  C
  C55      1.0000 0.18180  0.10500  0.40004  Biso   1.000  C
  C56      1.0000 0.68180  0.39500  0.90004  Biso   1.000  C
  H53      1.0000 0.88990  0.84670  0.58100  Biso   1.000  H
  H54      1.0000 0.38990  0.65330  0.08100  Biso   1.000  H
  H55      1.0000 0.11010  0.15330  0.41900  Biso   1.000  H
  H56      1.0000 0.61010  0.34670  0.91900  Biso   1.000  H
  H57      1.0000 0.75140  0.86190  0.56810  Biso   1.000  H
  H58      1.0000 0.25140  0.63810  0.06810  Biso   1.000  H
  H59      1.0000 0.24860  0.13810  0.43190  Biso   1.000  H
  H60      1.0000 0.74860  0.36190  0.93190  Biso   1.000  H
  H61      1.0000 0.80620  0.86120  0.65240  Biso   1.000  H
  H62      1.0000 0.30620  0.63880  0.15240  Biso   1.000  H
  H63      1.0000 0.19380  0.13880  0.34760  Biso   1.000  H
  H64      1.0000 0.69380  0.36120  0.84760  Biso   1.000  H
  N9       1.0000 0.82950  0.07260  0.59732  Biso   1.000  N
  N10      1.0000 0.32950  0.42740  0.09732  Biso   1.000  N
  N11      1.0000 0.17050  0.92740  0.40268  Biso   1.000  N
  N12      1.0000 0.67050  0.57260  0.90268  Biso   1.000  N
  C57      1.0000 0.93140  0.12060  0.64832  Biso   1.000  C
  C58      1.0000 0.43140  0.37940  0.14832  Biso   1.000  C
  C59      1.0000 0.06860  0.87940  0.35168  Biso   1.000  C
  C60      1.0000 0.56860  0.62060  0.85168  Biso   1.000  C
  H65      1.0000 0.00370  0.07420  0.62930  Biso   1.000  H
  H66      1.0000 0.50370  0.42580  0.12930  Biso   1.000  H
  H67      1.0000 0.99630  0.92580  0.37070  Biso   1.000  H
  H68      1.0000 0.49630  0.57420  0.87070  Biso   1.000  H
  H69      1.0000 0.91830  0.08270  0.70000  Biso   1.000  H
  H70      1.0000 0.41830  0.41730  0.20000  Biso   1.000  H
  H71      1.0000 0.08170  0.91730  0.30000  Biso   1.000  H
  H72      1.0000 0.58170  0.58270  0.80000  Biso   1.000  H
  H73      1.0000 0.93840  0.23580  0.64870  Biso   1.000  H
  H74      1.0000 0.43840  0.26420  0.14870  Biso   1.000  H
  H75      1.0000 0.06160  0.76420  0.35130  Biso   1.000  H
  H76      1.0000 0.56160  0.73580  0.85130  Biso   1.000  H
