data_image0
_cell_length_a       10.765
_cell_length_b       8.048
_cell_length_c       16.946
_cell_angle_alpha    90
_cell_angle_beta     97.38
_cell_angle_gamma    90

_symmetry_space_group_name_H-M    "P 1"
_symmetry_int_tables_number       1

loop_
  _symmetry_equiv_pos_as_xyz
  'x, y, z'

loop_
  _atom_site_label
  _atom_site_occupancy
  _atom_site_fract_x
  _atom_site_fract_y
  _atom_site_fract_z
  _atom_site_thermal_displace_type
  _atom_site_B_iso_or_equiv
  _atom_site_type_symbol
  Cu1      1.0000 0.83308  0.16937  0.36947  Biso   1.000  Cu
  Cu2      1.0000 0.33308  0.33063  0.86947  Biso   1.000  Cu
  Cu3      1.0000 0.16692  0.83063  0.63053  Biso   1.000  Cu
  Cu4      1.0000 0.66692  0.66937  0.13053  Biso   1.000  Cu
  N1       1.0000 0.80050  0.10090  0.25920  Biso   1.000  N
  N2       1.0000 0.30050  0.39910  0.75920  Biso   1.000  N
  N3       1.0000 0.19950  0.89910  0.74080  Biso   1.000  N
  N4       1.0000 0.69950  0.60090  0.24080  Biso   1.000  N
  C1       1.0000 0.78170  0.03080  0.19870  Biso   1.000  C
  C2       1.0000 0.28170  0.46920  0.69870  Biso   1.000  C
  C3       1.0000 0.21830  0.96920  0.80130  Biso   1.000  C
  C4       1.0000 0.71830  0.53080  0.30130  Biso   1.000  C
  O1       1.0000 0.76247  0.96214  0.13442  Biso   1.000  O
  O2       1.0000 0.26247  0.53786  0.63442  Biso   1.000  O
  O3       1.0000 0.23753  0.03786  0.86558  Biso   1.000  O
  O4       1.0000 0.73753  0.46214  0.36558  Biso   1.000  O
  O5       1.0000 0.99713  0.24686  0.35329  Biso   1.000  O
  O6       1.0000 0.49713  0.25314  0.85329  Biso   1.000  O
  O7       1.0000 0.00287  0.75314  0.64671  Biso   1.000  O
  O8       1.0000 0.50287  0.74686  0.14671  Biso   1.000  O
  C5       1.0000 0.07990  0.30850  0.40750  Biso   1.000  C
  C6       1.0000 0.57990  0.19150  0.90750  Biso   1.000  C
  C7       1.0000 0.92010  0.69150  0.59250  Biso   1.000  C
  C8       1.0000 0.42010  0.80850  0.09250  Biso   1.000  C
  C9       1.0000 0.07180  0.30650  0.48825  Biso   1.000  C
  C10      1.0000 0.57180  0.19350  0.98825  Biso   1.000  C
  C11      1.0000 0.92820  0.69350  0.51175  Biso   1.000  C
  C12      1.0000 0.42820  0.80650  0.01175  Biso   1.000  C
  H1       1.0000 0.13950  0.35450  0.52220  Biso   1.000  H
  H2       1.0000 0.63950  0.14550  0.02220  Biso   1.000  H
  H3       1.0000 0.86050  0.64550  0.47780  Biso   1.000  H
  H4       1.0000 0.36050  0.85450  0.97780  Biso   1.000  H
  C13      1.0000 0.97150  0.23920  0.52528  Biso   1.000  C
  C14      1.0000 0.47150  0.26080  0.02528  Biso   1.000  C
  C15      1.0000 0.02850  0.76080  0.47472  Biso   1.000  C
  C16      1.0000 0.52850  0.73920  0.97472  Biso   1.000  C
  N5       1.0000 0.86791  0.18390  0.48446  Biso   1.000  N
  N6       1.0000 0.36791  0.31610  0.98446  Biso   1.000  N
  N7       1.0000 0.13209  0.81610  0.51554  Biso   1.000  N
  N8       1.0000 0.63209  0.68390  0.01554  Biso   1.000  N
  C17      1.0000 0.76530  0.12430  0.52597  Biso   1.000  C
  C18      1.0000 0.26530  0.37570  0.02597  Biso   1.000  C
  C19      1.0000 0.23470  0.87570  0.47403  Biso   1.000  C
  C20      1.0000 0.73470  0.62430  0.97403  Biso   1.000  C
  H5       1.0000 0.76280  0.18720  0.57590  Biso   1.000  H
  H6       1.0000 0.26280  0.31280  0.07590  Biso   1.000  H
  H7       1.0000 0.23720  0.81280  0.42410  Biso   1.000  H
  H8       1.0000 0.73720  0.68720  0.92410  Biso   1.000  H
  H9       1.0000 0.77660  0.00500  0.53920  Biso   1.000  H
  H10      1.0000 0.27660  0.49500  0.03920  Biso   1.000  H
  H11      1.0000 0.22340  0.99500  0.46080  Biso   1.000  H
  H12      1.0000 0.72340  0.50500  0.96080  Biso   1.000  H
  C21      1.0000 0.64510  0.15060  0.47008  Biso   1.000  C
  C22      1.0000 0.14510  0.34940  0.97008  Biso   1.000  C
  C23      1.0000 0.35490  0.84940  0.52992  Biso   1.000  C
  C24      1.0000 0.85490  0.65060  0.02992  Biso   1.000  C
  H13      1.0000 0.57500  0.09430  0.49160  Biso   1.000  H
  H14      1.0000 0.07500  0.40570  0.99160  Biso   1.000  H
  H15      1.0000 0.42500  0.90570  0.50840  Biso   1.000  H
  H16      1.0000 0.92500  0.59430  0.00840  Biso   1.000  H
  H17      1.0000 0.62590  0.27080  0.46590  Biso   1.000  H
  H18      1.0000 0.12590  0.22920  0.96590  Biso   1.000  H
  H19      1.0000 0.37410  0.72920  0.53410  Biso   1.000  H
  H20      1.0000 0.87410  0.77080  0.03410  Biso   1.000  H
  N9       1.0000 0.65814  0.08300  0.39003  Biso   1.000  N
  N10      1.0000 0.15814  0.41700  0.89003  Biso   1.000  N
  N11      1.0000 0.34186  0.91700  0.60997  Biso   1.000  N
  N12      1.0000 0.84186  0.58300  0.10997  Biso   1.000  N
  C25      1.0000 0.55260  0.14190  0.33219  Biso   1.000  C
  C26      1.0000 0.05260  0.35810  0.83219  Biso   1.000  C
  C27      1.0000 0.44740  0.85810  0.66781  Biso   1.000  C
  C28      1.0000 0.94740  0.64190  0.16781  Biso   1.000  C
  H21      1.0000 0.56000  0.09510  0.27960  Biso   1.000  H
  H22      1.0000 0.06000  0.40490  0.77960  Biso   1.000  H
  H23      1.0000 0.44000  0.90490  0.72040  Biso   1.000  H
  H24      1.0000 0.94000  0.59510  0.22040  Biso   1.000  H
  H25      1.0000 0.55450  0.26350  0.32930  Biso   1.000  H
  H26      1.0000 0.05450  0.23650  0.82930  Biso   1.000  H
  H27      1.0000 0.44550  0.73650  0.67070  Biso   1.000  H
  H28      1.0000 0.94550  0.76350  0.17070  Biso   1.000  H
  H29      1.0000 0.47320  0.10610  0.34940  Biso   1.000  H
  H30      1.0000 0.97320  0.39390  0.84940  Biso   1.000  H
  H31      1.0000 0.52680  0.89390  0.65060  Biso   1.000  H
  H32      1.0000 0.02680  0.60610  0.15060  Biso   1.000  H
  C29      1.0000 0.65840  0.89930  0.38999  Biso   1.000  C
  C30      1.0000 0.15840  0.60070  0.88999  Biso   1.000  C
  C31      1.0000 0.34160  0.10070  0.61001  Biso   1.000  C
  C32      1.0000 0.84160  0.39930  0.11001  Biso   1.000  C
  H33      1.0000 0.57840  0.85850  0.40420  Biso   1.000  H
  H34      1.0000 0.07840  0.64150  0.90420  Biso   1.000  H
  H35      1.0000 0.42160  0.14150  0.59580  Biso   1.000  H
  H36      1.0000 0.92160  0.35850  0.09580  Biso   1.000  H
  H37      1.0000 0.72700  0.85880  0.42880  Biso   1.000  H
  H38      1.0000 0.22700  0.64120  0.92880  Biso   1.000  H
  H39      1.0000 0.27300  0.14120  0.57120  Biso   1.000  H
  H40      1.0000 0.77300  0.35880  0.07120  Biso   1.000  H
  H41      1.0000 0.66980  0.85880  0.33690  Biso   1.000  H
  H42      1.0000 0.16980  0.64120  0.83690  Biso   1.000  H
  H43      1.0000 0.33020  0.14120  0.66310  Biso   1.000  H
  H44      1.0000 0.83020  0.35880  0.16310  Biso   1.000  H
  C33      1.0000 0.98930  0.23360  0.61511  Biso   1.000  C
  C34      1.0000 0.48930  0.26640  0.11511  Biso   1.000  C
  C35      1.0000 0.01070  0.76640  0.38489  Biso   1.000  C
  C36      1.0000 0.51070  0.73360  0.88489  Biso   1.000  C
  H45      1.0000 0.92620  0.30400  0.63540  Biso   1.000  H
  H46      1.0000 0.42620  0.19600  0.13540  Biso   1.000  H
  H47      1.0000 0.07380  0.69600  0.36460  Biso   1.000  H
  H48      1.0000 0.57380  0.80400  0.86460  Biso   1.000  H
  H49      1.0000 0.07320  0.27430  0.63530  Biso   1.000  H
  H50      1.0000 0.57320  0.22570  0.13530  Biso   1.000  H
  H51      1.0000 0.92680  0.72570  0.36470  Biso   1.000  H
  H52      1.0000 0.42680  0.77430  0.86470  Biso   1.000  H
  H53      1.0000 0.98000  0.11900  0.63290  Biso   1.000  H
  H54      1.0000 0.48000  0.38100  0.13290  Biso   1.000  H
  H55      1.0000 0.02000  0.88100  0.36710  Biso   1.000  H
  H56      1.0000 0.52000  0.61900  0.86710  Biso   1.000  H
  C37      1.0000 0.19100  0.38560  0.37677  Biso   1.000  C
  C38      1.0000 0.69100  0.11440  0.87677  Biso   1.000  C
  C39      1.0000 0.80900  0.61440  0.62323  Biso   1.000  C
  C40      1.0000 0.30900  0.88560  0.12323  Biso   1.000  C
  C41      1.0000 0.29860  0.43790  0.42639  Biso   1.000  C
  C42      1.0000 0.79860  0.06210  0.92639  Biso   1.000  C
  C43      1.0000 0.70140  0.56210  0.57361  Biso   1.000  C
  C44      1.0000 0.20140  0.93790  0.07361  Biso   1.000  C
  H57      1.0000 0.30430  0.42130  0.48220  Biso   1.000  H
  H58      1.0000 0.80430  0.07870  0.98220  Biso   1.000  H
  H59      1.0000 0.69570  0.57870  0.51780  Biso   1.000  H
  H60      1.0000 0.19570  0.92130  0.01780  Biso   1.000  H
  C45      1.0000 0.39690  0.51370  0.39438  Biso   1.000  C
  C46      1.0000 0.89690  0.98630  0.89438  Biso   1.000  C
  C47      1.0000 0.60310  0.48630  0.60562  Biso   1.000  C
  C48      1.0000 0.10310  0.01370  0.10562  Biso   1.000  C
  H61      1.0000 0.46910  0.54820  0.42860  Biso   1.000  H
  H62      1.0000 0.96910  0.95180  0.92860  Biso   1.000  H
  H63      1.0000 0.53090  0.45180  0.57140  Biso   1.000  H
  H64      1.0000 0.03090  0.04820  0.07140  Biso   1.000  H
  C49      1.0000 0.39080  0.53970  0.31278  Biso   1.000  C
  C50      1.0000 0.89080  0.96030  0.81278  Biso   1.000  C
  C51      1.0000 0.60920  0.46030  0.68722  Biso   1.000  C
  C52      1.0000 0.10920  0.03970  0.18722  Biso   1.000  C
  H65      1.0000 0.45790  0.59210  0.29120  Biso   1.000  H
  H66      1.0000 0.95790  0.90790  0.79120  Biso   1.000  H
  H67      1.0000 0.54210  0.40790  0.70880  Biso   1.000  H
  H68      1.0000 0.04210  0.09210  0.20880  Biso   1.000  H
  C53      1.0000 0.28470  0.48760  0.26335  Biso   1.000  C
  C54      1.0000 0.78470  0.01240  0.76335  Biso   1.000  C
  C55      1.0000 0.71530  0.51240  0.73665  Biso   1.000  C
  C56      1.0000 0.21530  0.98760  0.23665  Biso   1.000  C
  H69      1.0000 0.27910  0.50540  0.20760  Biso   1.000  H
  H70      1.0000 0.77910  0.99460  0.70760  Biso   1.000  H
  H71      1.0000 0.72090  0.49460  0.79240  Biso   1.000  H
  H72      1.0000 0.22090  0.00540  0.29240  Biso   1.000  H
  C57      1.0000 0.18720  0.41000  0.29477  Biso   1.000  C
  C58      1.0000 0.68720  0.09000  0.79477  Biso   1.000  C
  C59      1.0000 0.81280  0.59000  0.70523  Biso   1.000  C
  C60      1.0000 0.31280  0.91000  0.20523  Biso   1.000  C
  H73      1.0000 0.11640  0.37260  0.26000  Biso   1.000  H
  H74      1.0000 0.61640  0.12740  0.76000  Biso   1.000  H
  H75      1.0000 0.88360  0.62740  0.74000  Biso   1.000  H
  H76      1.0000 0.38360  0.87260  0.24000  Biso   1.000  H
