data_image0
_cell_length_a       9.154
_cell_length_b       19.589
_cell_length_c       18.371
_cell_angle_alpha    90
_cell_angle_beta     94.677
_cell_angle_gamma    90

_symmetry_space_group_name_H-M    "P 1"
_symmetry_int_tables_number       1

loop_
  _symmetry_equiv_pos_as_xyz
  'x, y, z'

loop_
  _atom_site_label
  _atom_site_occupancy
  _atom_site_fract_x
  _atom_site_fract_y
  _atom_site_fract_z
  _atom_site_thermal_displace_type
  _atom_site_B_iso_or_equiv
  _atom_site_type_symbol
  Cu1      1.0000 0.39219  0.21934  0.23627  Biso   1.000  Cu
  Cu2      1.0000 0.89219  0.28066  0.73627  Biso   1.000  Cu
  Cu3      1.0000 0.60781  0.78066  0.76373  Biso   1.000  Cu
  Cu4      1.0000 0.10781  0.71934  0.26373  Biso   1.000  Cu
  Cu5      1.0000 0.16290  0.32953  0.29554  Biso   1.000  Cu
  Cu6      1.0000 0.66290  0.17047  0.79554  Biso   1.000  Cu
  Cu7      1.0000 0.83710  0.67047  0.70446  Biso   1.000  Cu
  Cu8      1.0000 0.33710  0.82953  0.20446  Biso   1.000  Cu
  Cu9      1.0000 0.89439  0.31121  0.17237  Biso   1.000  Cu
  Cu10     1.0000 0.39439  0.18879  0.67237  Biso   1.000  Cu
  Cu11     1.0000 0.10561  0.68879  0.82763  Biso   1.000  Cu
  Cu12     1.0000 0.60561  0.81121  0.32763  Biso   1.000  Cu
  Cl1      1.0000 0.94092  0.41171  0.22980  Biso   1.000  Cl
  Cl2      1.0000 0.44092  0.08829  0.72980  Biso   1.000  Cl
  Cl3      1.0000 0.05908  0.58829  0.77020  Biso   1.000  Cl
  Cl4      1.0000 0.55908  0.91171  0.27020  Biso   1.000  Cl
  Cl5      1.0000 0.64770  0.27150  0.21882  Biso   1.000  Cl
  Cl6      1.0000 0.14770  0.22850  0.71882  Biso   1.000  Cl
  Cl7      1.0000 0.35230  0.72850  0.78118  Biso   1.000  Cl
  Cl8      1.0000 0.85230  0.77150  0.28118  Biso   1.000  Cl
  Cl9      1.0000 0.37240  0.24325  0.35499  Biso   1.000  Cl
  Cl10     1.0000 0.87240  0.25675  0.85499  Biso   1.000  Cl
  Cl11     1.0000 0.62760  0.75675  0.64501  Biso   1.000  Cl
  Cl12     1.0000 0.12760  0.74325  0.14501  Biso   1.000  Cl
  Cl13     1.0000 0.55820  0.41100  0.28600  Biso   1.000  Cl
  Cl14     1.0000 0.05820  0.08900  0.78600  Biso   1.000  Cl
  Cl15     1.0000 0.44180  0.58900  0.71400  Biso   1.000  Cl
  Cl16     1.0000 0.94180  0.91100  0.21400  Biso   1.000  Cl
  O1       1.0000 0.01130  0.26548  0.25341  Biso   1.000  O
  O2       1.0000 0.51130  0.23452  0.75341  Biso   1.000  O
  O3       1.0000 0.98870  0.73452  0.74659  Biso   1.000  O
  O4       1.0000 0.48870  0.76548  0.24659  Biso   1.000  O
  O5       1.0000 0.28480  0.30618  0.21285  Biso   1.000  O
  O6       1.0000 0.78480  0.19382  0.71285  Biso   1.000  O
  O7       1.0000 0.71520  0.69382  0.78715  Biso   1.000  O
  O8       1.0000 0.21520  0.80618  0.28715  Biso   1.000  O
  O9       1.0000 0.06640  0.33710  0.38806  Biso   1.000  O
  O10      1.0000 0.56640  0.16290  0.88806  Biso   1.000  O
  O11      1.0000 0.93360  0.66290  0.61194  Biso   1.000  O
  O12      1.0000 0.43360  0.83710  0.11194  Biso   1.000  O
  O13      1.0000 0.28410  0.40963  0.32370  Biso   1.000  O
  O14      1.0000 0.78410  0.09037  0.82370  Biso   1.000  O
  O15      1.0000 0.71590  0.59037  0.67630  Biso   1.000  O
  O16      1.0000 0.21590  0.90963  0.17630  Biso   1.000  O
  C1       1.0000 0.99980  0.19860  0.26770  Biso   1.000  C
  C2       1.0000 0.49980  0.30140  0.76770  Biso   1.000  C
  C3       1.0000 0.00020  0.80140  0.73230  Biso   1.000  C
  C4       1.0000 0.50020  0.69860  0.23230  Biso   1.000  C
  N1       1.0000 0.35100  0.18890  0.13540  Biso   1.000  N
  N2       1.0000 0.85100  0.31110  0.63540  Biso   1.000  N
  N3       1.0000 0.64900  0.81110  0.86460  Biso   1.000  N
  N4       1.0000 0.14900  0.68890  0.36460  Biso   1.000  N
  C5       1.0000 0.02140  0.17400  0.33920  Biso   1.000  C
  C6       1.0000 0.52140  0.32600  0.83920  Biso   1.000  C
  C7       1.0000 0.97860  0.82600  0.66080  Biso   1.000  C
  C8       1.0000 0.47860  0.67400  0.16080  Biso   1.000  C
  H1       1.0000 0.04480  0.20460  0.37710  Biso   1.000  H
  H2       1.0000 0.54480  0.29540  0.87710  Biso   1.000  H
  H3       1.0000 0.95520  0.79540  0.62290  Biso   1.000  H
  H4       1.0000 0.45520  0.70460  0.12290  Biso   1.000  H
  C9       1.0000 0.28550  0.33790  0.14780  Biso   1.000  C
  C10      1.0000 0.78550  0.16210  0.64780  Biso   1.000  C
  C11      1.0000 0.71450  0.66210  0.85220  Biso   1.000  C
  C12      1.0000 0.21450  0.83790  0.35220  Biso   1.000  C
  N5       1.0000 0.46990  0.12170  0.25390  Biso   1.000  N
  N6       1.0000 0.96990  0.37830  0.75390  Biso   1.000  N
  N7       1.0000 0.53010  0.87830  0.74610  Biso   1.000  N
  N8       1.0000 0.03010  0.62170  0.24610  Biso   1.000  N
  C13      1.0000 0.27460  0.40870  0.14380  Biso   1.000  C
  C14      1.0000 0.77460  0.09130  0.64380  Biso   1.000  C
  C15      1.0000 0.72540  0.59130  0.85620  Biso   1.000  C
  C16      1.0000 0.22540  0.90870  0.35620  Biso   1.000  C
  H5       1.0000 0.26760  0.43380  0.18630  Biso   1.000  H
  H6       1.0000 0.76760  0.06620  0.68630  Biso   1.000  H
  H7       1.0000 0.73240  0.56620  0.81370  Biso   1.000  H
  H8       1.0000 0.23240  0.93380  0.31370  Biso   1.000  H
  C17      1.0000 0.97840  0.05790  0.30040  Biso   1.000  C
  C18      1.0000 0.47840  0.44210  0.80040  Biso   1.000  C
  C19      1.0000 0.02160  0.94210  0.69960  Biso   1.000  C
  C20      1.0000 0.52160  0.55790  0.19960  Biso   1.000  C
  H9       1.0000 0.97330  0.01170  0.31150  Biso   1.000  H
  H10      1.0000 0.47330  0.48830  0.81150  Biso   1.000  H
  H11      1.0000 0.02670  0.98830  0.68850  Biso   1.000  H
  H12      1.0000 0.52670  0.51170  0.18850  Biso   1.000  H
  C21      1.0000 0.27400  0.44210  0.07780  Biso   1.000  C
  C22      1.0000 0.77400  0.05790  0.57780  Biso   1.000  C
  C23      1.0000 0.72600  0.55790  0.92220  Biso   1.000  C
  C24      1.0000 0.22600  0.94210  0.42220  Biso   1.000  C
  H13      1.0000 0.26680  0.48940  0.07650  Biso   1.000  H
  H14      1.0000 0.76680  0.01060  0.57650  Biso   1.000  H
  H15      1.0000 0.73320  0.51060  0.92350  Biso   1.000  H
  H16      1.0000 0.23320  0.98940  0.42350  Biso   1.000  H
  C25      1.0000 0.32280  0.22740  0.08000  Biso   1.000  C
  C26      1.0000 0.82280  0.27260  0.58000  Biso   1.000  C
  C27      1.0000 0.67720  0.77260  0.92000  Biso   1.000  C
  C28      1.0000 0.17720  0.72740  0.42000  Biso   1.000  C
  H17      1.0000 0.31630  0.20690  0.03420  Biso   1.000  H
  H18      1.0000 0.81630  0.29310  0.53420  Biso   1.000  H
  H19      1.0000 0.68370  0.79310  0.96580  Biso   1.000  H
  H20      1.0000 0.18370  0.70690  0.46580  Biso   1.000  H
  C29      1.0000 0.28400  0.40650  0.01300  Biso   1.000  C
  C30      1.0000 0.78400  0.09350  0.51300  Biso   1.000  C
  C31      1.0000 0.71600  0.59350  0.98700  Biso   1.000  C
  C32      1.0000 0.21600  0.90650  0.48700  Biso   1.000  C
  H21      1.0000 0.28200  0.42930  0.96860  Biso   1.000  H
  H22      1.0000 0.78200  0.07070  0.46860  Biso   1.000  H
  H23      1.0000 0.71800  0.57070  0.03140  Biso   1.000  H
  H24      1.0000 0.21800  0.92930  0.53140  Biso   1.000  H
  C33      1.0000 0.96520  0.15030  0.21160  Biso   1.000  C
  C34      1.0000 0.46520  0.34970  0.71160  Biso   1.000  C
  C35      1.0000 0.03480  0.84970  0.78840  Biso   1.000  C
  C36      1.0000 0.53480  0.65030  0.28840  Biso   1.000  C
  C37      1.0000 0.29680  0.33710  0.01620  Biso   1.000  C
  C38      1.0000 0.79680  0.16290  0.51620  Biso   1.000  C
  C39      1.0000 0.70320  0.66290  0.98380  Biso   1.000  C
  C40      1.0000 0.20320  0.83710  0.48380  Biso   1.000  C
  H25      1.0000 0.30380  0.31280  0.97310  Biso   1.000  H
  H26      1.0000 0.80380  0.18720  0.47310  Biso   1.000  H
  H27      1.0000 0.69620  0.68720  0.02690  Biso   1.000  H
  H28      1.0000 0.19620  0.81280  0.52690  Biso   1.000  H
  C41      1.0000 0.29990  0.30110  0.08270  Biso   1.000  C
  C42      1.0000 0.79990  0.19890  0.58270  Biso   1.000  C
  C43      1.0000 0.70010  0.69890  0.91730  Biso   1.000  C
  C44      1.0000 0.20010  0.80110  0.41730  Biso   1.000  C
  C45      1.0000 0.60110  0.11620  0.30570  Biso   1.000  C
  C46      1.0000 0.10110  0.38380  0.80570  Biso   1.000  C
  C47      1.0000 0.39890  0.88380  0.69430  Biso   1.000  C
  C48      1.0000 0.89890  0.61620  0.19430  Biso   1.000  C
  H29      1.0000 0.62960  0.06920  0.31080  Biso   1.000  H
  H30      1.0000 0.12960  0.43080  0.81080  Biso   1.000  H
  H31      1.0000 0.37040  0.93080  0.68920  Biso   1.000  H
  H32      1.0000 0.87040  0.56920  0.18920  Biso   1.000  H
  H33      1.0000 0.57940  0.13390  0.35240  Biso   1.000  H
  H34      1.0000 0.07940  0.36610  0.85240  Biso   1.000  H
  H35      1.0000 0.42060  0.86610  0.64760  Biso   1.000  H
  H36      1.0000 0.92060  0.63390  0.14760  Biso   1.000  H
  H37      1.0000 0.67970  0.14200  0.28770  Biso   1.000  H
  H38      1.0000 0.17970  0.35800  0.78770  Biso   1.000  H
  H39      1.0000 0.32030  0.85800  0.71230  Biso   1.000  H
  H40      1.0000 0.82030  0.64200  0.21230  Biso   1.000  H
  C49      1.0000 0.95570  0.08030  0.22960  Biso   1.000  C
  C50      1.0000 0.45570  0.41970  0.72960  Biso   1.000  C
  C51      1.0000 0.04430  0.91970  0.77040  Biso   1.000  C
  C52      1.0000 0.54430  0.58030  0.27040  Biso   1.000  C
  H41      1.0000 0.93370  0.04870  0.19250  Biso   1.000  H
  H42      1.0000 0.43370  0.45130  0.69250  Biso   1.000  H
  H43      1.0000 0.06630  0.95130  0.80750  Biso   1.000  H
  H44      1.0000 0.56630  0.54870  0.30750  Biso   1.000  H
  C53      1.0000 0.00890  0.10560  0.35480  Biso   1.000  C
  C54      1.0000 0.50890  0.39440  0.85480  Biso   1.000  C
  C55      1.0000 0.99110  0.89440  0.64520  Biso   1.000  C
  C56      1.0000 0.49110  0.60560  0.14520  Biso   1.000  C
  H45      1.0000 0.02120  0.09120  0.40310  Biso   1.000  H
  H46      1.0000 0.52120  0.40880  0.90310  Biso   1.000  H
  H47      1.0000 0.97880  0.90880  0.59690  Biso   1.000  H
  H48      1.0000 0.47880  0.59120  0.09690  Biso   1.000  H
  C57      1.0000 0.35300  0.08030  0.28410  Biso   1.000  C
  C58      1.0000 0.85300  0.41970  0.78410  Biso   1.000  C
  C59      1.0000 0.64700  0.91970  0.71590  Biso   1.000  C
  C60      1.0000 0.14700  0.58030  0.21590  Biso   1.000  C
  H49      1.0000 0.38780  0.03450  0.29300  Biso   1.000  H
  H50      1.0000 0.88780  0.46550  0.79300  Biso   1.000  H
  H51      1.0000 0.61220  0.96550  0.70700  Biso   1.000  H
  H52      1.0000 0.11220  0.53450  0.20700  Biso   1.000  H
  H53      1.0000 0.26810  0.07940  0.24980  Biso   1.000  H
  H54      1.0000 0.76810  0.42060  0.74980  Biso   1.000  H
  H55      1.0000 0.73190  0.92060  0.75020  Biso   1.000  H
  H56      1.0000 0.23190  0.57940  0.25020  Biso   1.000  H
  H57      1.0000 0.32750  0.10010  0.32920  Biso   1.000  H
  H58      1.0000 0.82750  0.39990  0.82920  Biso   1.000  H
  H59      1.0000 0.67250  0.89990  0.67080  Biso   1.000  H
  H60      1.0000 0.17250  0.60010  0.17080  Biso   1.000  H
  C61      1.0000 0.50260  0.09650  0.18160  Biso   1.000  C
  C62      1.0000 0.00260  0.40350  0.68160  Biso   1.000  C
  C63      1.0000 0.49740  0.90350  0.81840  Biso   1.000  C
  C64      1.0000 0.99740  0.59650  0.31840  Biso   1.000  C
  H61      1.0000 0.51430  0.04730  0.18330  Biso   1.000  H
  H62      1.0000 0.01430  0.45270  0.68330  Biso   1.000  H
  H63      1.0000 0.48570  0.95270  0.81670  Biso   1.000  H
  H64      1.0000 0.98570  0.54730  0.31670  Biso   1.000  H
  H65      1.0000 0.59380  0.11640  0.16830  Biso   1.000  H
  H66      1.0000 0.09380  0.38360  0.66830  Biso   1.000  H
  H67      1.0000 0.40620  0.88360  0.83170  Biso   1.000  H
  H68      1.0000 0.90620  0.61640  0.33170  Biso   1.000  H
  C65      1.0000 0.38010  0.11510  0.12490  Biso   1.000  C
  C66      1.0000 0.88010  0.38490  0.62490  Biso   1.000  C
  C67      1.0000 0.61990  0.88490  0.87510  Biso   1.000  C
  C68      1.0000 0.11990  0.61510  0.37510  Biso   1.000  C
  H69      1.0000 0.40940  0.10670  0.07610  Biso   1.000  H
  H70      1.0000 0.90940  0.39330  0.57610  Biso   1.000  H
  H71      1.0000 0.59060  0.89330  0.92390  Biso   1.000  H
  H72      1.0000 0.09060  0.60670  0.42390  Biso   1.000  H
  H73      1.0000 0.29310  0.08830  0.13170  Biso   1.000  H
  H74      1.0000 0.79310  0.41170  0.63170  Biso   1.000  H
  H75      1.0000 0.70690  0.91170  0.86830  Biso   1.000  H
  H76      1.0000 0.20690  0.58830  0.36830  Biso   1.000  H
  N9       1.0000 0.79860  0.35470  0.07740  Biso   1.000  N
  N10      1.0000 0.29860  0.14530  0.57740  Biso   1.000  N
  N11      1.0000 0.20140  0.64530  0.92260  Biso   1.000  N
  N12      1.0000 0.70140  0.85470  0.42260  Biso   1.000  N
  N13      1.0000 0.91060  0.22950  0.11210  Biso   1.000  N
  N14      1.0000 0.41060  0.27050  0.61210  Biso   1.000  N
  N15      1.0000 0.08940  0.77050  0.88790  Biso   1.000  N
  N16      1.0000 0.58940  0.72950  0.38790  Biso   1.000  N
  C69      1.0000 0.67500  0.40090  0.08830  Biso   1.000  C
  C70      1.0000 0.17500  0.09910  0.58830  Biso   1.000  C
  C71      1.0000 0.32500  0.59910  0.91170  Biso   1.000  C
  C72      1.0000 0.82500  0.90090  0.41170  Biso   1.000  C
  H77      1.0000 0.63670  0.41880  0.04200  Biso   1.000  H
  H78      1.0000 0.13670  0.08120  0.54200  Biso   1.000  H
  H79      1.0000 0.36330  0.58120  0.95800  Biso   1.000  H
  H80      1.0000 0.86330  0.91880  0.45800  Biso   1.000  H
  H81      1.0000 0.70830  0.43780  0.11980  Biso   1.000  H
  H82      1.0000 0.20830  0.06220  0.61980  Biso   1.000  H
  H83      1.0000 0.29170  0.56220  0.88020  Biso   1.000  H
  H84      1.0000 0.79170  0.93780  0.38020  Biso   1.000  H
  H85      1.0000 0.59940  0.37610  0.11020  Biso   1.000  H
  H86      1.0000 0.09940  0.12390  0.61020  Biso   1.000  H
  H87      1.0000 0.40060  0.62390  0.88980  Biso   1.000  H
  H88      1.0000 0.90060  0.87610  0.38980  Biso   1.000  H
  C73      1.0000 0.86640  0.24150  0.03410  Biso   1.000  C
  C74      1.0000 0.36640  0.25850  0.53410  Biso   1.000  C
  C75      1.0000 0.13360  0.75850  0.96590  Biso   1.000  C
  C76      1.0000 0.63360  0.74150  0.46590  Biso   1.000  C
  H89      1.0000 0.82860  0.19990  0.01110  Biso   1.000  H
  H90      1.0000 0.32860  0.30010  0.51110  Biso   1.000  H
  H91      1.0000 0.17140  0.80010  0.98890  Biso   1.000  H
  H92      1.0000 0.67140  0.69990  0.48890  Biso   1.000  H
  H93      1.0000 0.94930  0.25700  0.00890  Biso   1.000  H
  H94      1.0000 0.44930  0.24300  0.50890  Biso   1.000  H
  H95      1.0000 0.05070  0.74300  0.99110  Biso   1.000  H
  H96      1.0000 0.55070  0.75700  0.49110  Biso   1.000  H
  C77      1.0000 0.91180  0.39430  0.04120  Biso   1.000  C
  C78      1.0000 0.41180  0.10570  0.54120  Biso   1.000  C
  C79      1.0000 0.08820  0.60570  0.95880  Biso   1.000  C
  C80      1.0000 0.58820  0.89430  0.45880  Biso   1.000  C
  H97      1.0000 0.86790  0.41470  0.99720  Biso   1.000  H
  H98      1.0000 0.36790  0.08530  0.49720  Biso   1.000  H
  H99      1.0000 0.13210  0.58530  0.00280  Biso   1.000  H
  H100     1.0000 0.63210  0.91470  0.50280  Biso   1.000  H
  H101     1.0000 0.98940  0.36430  0.02950  Biso   1.000  H
  H102     1.0000 0.48940  0.13570  0.52950  Biso   1.000  H
  H103     1.0000 0.01060  0.63570  0.97050  Biso   1.000  H
  H104     1.0000 0.51060  0.86430  0.47050  Biso   1.000  H
  H105     1.0000 0.95090  0.42950  0.07360  Biso   1.000  H
  H106     1.0000 0.45090  0.07050  0.57360  Biso   1.000  H
  H107     1.0000 0.04910  0.57050  0.92640  Biso   1.000  H
  H108     1.0000 0.54910  0.92950  0.42640  Biso   1.000  H
  C81      1.0000 0.74850  0.29580  0.03160  Biso   1.000  C
  C82      1.0000 0.24850  0.20420  0.53160  Biso   1.000  C
  C83      1.0000 0.25150  0.70420  0.96840  Biso   1.000  C
  C84      1.0000 0.75150  0.79580  0.46840  Biso   1.000  C
  H109     1.0000 0.72590  0.31070  0.98160  Biso   1.000  H
  H110     1.0000 0.22590  0.18930  0.48160  Biso   1.000  H
  H111     1.0000 0.27410  0.68930  0.01840  Biso   1.000  H
  H112     1.0000 0.77410  0.81070  0.51840  Biso   1.000  H
  H113     1.0000 0.65990  0.27700  0.04920  Biso   1.000  H
  H114     1.0000 0.15990  0.22300  0.54920  Biso   1.000  H
  H115     1.0000 0.34010  0.72300  0.95080  Biso   1.000  H
  H116     1.0000 0.84010  0.77700  0.45080  Biso   1.000  H
  C85      1.0000 0.93190  0.16890  0.13540  Biso   1.000  C
  C86      1.0000 0.43190  0.33110  0.63540  Biso   1.000  C
  C87      1.0000 0.06810  0.83110  0.86460  Biso   1.000  C
  C88      1.0000 0.56810  0.66890  0.36460  Biso   1.000  C
  H117     1.0000 0.92580  0.13390  0.10120  Biso   1.000  H
  H118     1.0000 0.42580  0.36610  0.60120  Biso   1.000  H
  H119     1.0000 0.07420  0.86610  0.89880  Biso   1.000  H
  H120     1.0000 0.57420  0.63390  0.39880  Biso   1.000  H
  O17      1.0000 0.78130  0.30310  0.38990  Biso   1.000  O
  O18      1.0000 0.28130  0.19690  0.88990  Biso   1.000  O
  O19      1.0000 0.21870  0.69690  0.61010  Biso   1.000  O
  O20      1.0000 0.71870  0.80310  0.11010  Biso   1.000  O
  H121     1.0000 0.97200  0.33110  0.37880  Biso   1.000  H
  H122     1.0000 0.47200  0.16890  0.87880  Biso   1.000  H
  H123     1.0000 0.02800  0.66890  0.62120  Biso   1.000  H
  H124     1.0000 0.52800  0.83110  0.12120  Biso   1.000  H
  H125     1.0000 0.37500  0.40310  0.31540  Biso   1.000  H
  H126     1.0000 0.87500  0.09690  0.81540  Biso   1.000  H
  H127     1.0000 0.62500  0.59690  0.68460  Biso   1.000  H
  H128     1.0000 0.12500  0.90310  0.18460  Biso   1.000  H
  H129     1.0000 0.29800  0.41680  0.36670  Biso   1.000  H
  H130     1.0000 0.79800  0.08320  0.86670  Biso   1.000  H
  H131     1.0000 0.70200  0.58320  0.63330  Biso   1.000  H
  H132     1.0000 0.20200  0.91680  0.13330  Biso   1.000  H
  H133     1.0000 0.06900  0.36370  0.42240  Biso   1.000  H
  H134     1.0000 0.56900  0.13630  0.92240  Biso   1.000  H
  H135     1.0000 0.93100  0.63630  0.57760  Biso   1.000  H
  H136     1.0000 0.43100  0.86370  0.07760  Biso   1.000  H
  H137     1.0000 0.75750  0.30270  0.34350  Biso   1.000  H
  H138     1.0000 0.25750  0.19730  0.84350  Biso   1.000  H
  H139     1.0000 0.24250  0.69730  0.65650  Biso   1.000  H
  H140     1.0000 0.74250  0.80270  0.15650  Biso   1.000  H
  H141     1.0000 0.72350  0.33560  0.40150  Biso   1.000  H
  H142     1.0000 0.22350  0.16440  0.90150  Biso   1.000  H
  H143     1.0000 0.27650  0.66440  0.59850  Biso   1.000  H
  H144     1.0000 0.77650  0.83560  0.09850  Biso   1.000  H
  O21      1.0000 0.61370  0.40440  0.46640  Biso   1.000  O
  O22      1.0000 0.11370  0.09560  0.96640  Biso   1.000  O
  O23      1.0000 0.38630  0.59560  0.53360  Biso   1.000  O
  O24      1.0000 0.88630  0.90440  0.03360  Biso   1.000  O
  O25      1.0000 0.72150  0.45880  0.43470  Biso   1.000  O
  O26      1.0000 0.22150  0.04120  0.93470  Biso   1.000  O
  O27      1.0000 0.27850  0.54120  0.56530  Biso   1.000  O
  O28      1.0000 0.77850  0.95880  0.06530  Biso   1.000  O
  O29      1.0000 0.75230  0.55310  0.51480  Biso   1.000  O
  O30      1.0000 0.25230  0.94690  0.01480  Biso   1.000  O
  O31      1.0000 0.24770  0.44690  0.48520  Biso   1.000  O
  O32      1.0000 0.74770  0.05310  0.98520  Biso   1.000  O
  C89      1.0000 0.60980  0.57170  0.52740  Biso   1.000  C
  C90      1.0000 0.10980  0.92830  0.02740  Biso   1.000  C
  C91      1.0000 0.39020  0.42830  0.47260  Biso   1.000  C
  C92      1.0000 0.89020  0.07170  0.97260  Biso   1.000  C
  O33      1.0000 0.96890  0.53950  0.53600  Biso   1.000  O
  O34      1.0000 0.46890  0.96050  0.03600  Biso   1.000  O
  O35      1.0000 0.03110  0.46050  0.46400  Biso   1.000  O
  O36      1.0000 0.53110  0.03950  0.96400  Biso   1.000  O
