data_image0
_cell_length_a       14.5628
_cell_length_b       18.5282
_cell_length_c       19.2649
_cell_angle_alpha    90
_cell_angle_beta     90
_cell_angle_gamma    90

_symmetry_space_group_name_H-M    "P 1"
_symmetry_int_tables_number       1

loop_
  _symmetry_equiv_pos_as_xyz
  'x, y, z'

loop_
  _atom_site_label
  _atom_site_occupancy
  _atom_site_fract_x
  _atom_site_fract_y
  _atom_site_fract_z
  _atom_site_thermal_displace_type
  _atom_site_B_iso_or_equiv
  _atom_site_type_symbol
  Cu1      1.0000 0.94187  0.84457  0.80216  Biso   1.000  Cu
  Cu2      1.0000 0.44187  0.65543  0.19784  Biso   1.000  Cu
  Cu3      1.0000 0.05813  0.34457  0.69784  Biso   1.000  Cu
  Cu4      1.0000 0.55813  0.15543  0.30216  Biso   1.000  Cu
  Cu5      1.0000 0.05813  0.15543  0.19784  Biso   1.000  Cu
  Cu6      1.0000 0.55813  0.34457  0.80216  Biso   1.000  Cu
  Cu7      1.0000 0.94187  0.65543  0.30216  Biso   1.000  Cu
  Cu8      1.0000 0.44187  0.84457  0.69784  Biso   1.000  Cu
  Cu9      1.0000 0.73814  0.59367  0.78472  Biso   1.000  Cu
  Cu10     1.0000 0.23814  0.90633  0.21528  Biso   1.000  Cu
  Cu11     1.0000 0.26186  0.09367  0.71528  Biso   1.000  Cu
  Cu12     1.0000 0.76186  0.40633  0.28472  Biso   1.000  Cu
  Cu13     1.0000 0.26186  0.40633  0.21528  Biso   1.000  Cu
  Cu14     1.0000 0.76186  0.09367  0.78472  Biso   1.000  Cu
  Cu15     1.0000 0.73814  0.90633  0.28472  Biso   1.000  Cu
  Cu16     1.0000 0.23814  0.59367  0.71528  Biso   1.000  Cu
  O1       1.0000 0.94910  0.80580  0.71090  Biso   1.000  O
  O2       1.0000 0.44910  0.69420  0.28910  Biso   1.000  O
  O3       1.0000 0.05090  0.30580  0.78910  Biso   1.000  O
  O4       1.0000 0.55090  0.19420  0.21090  Biso   1.000  O
  O5       1.0000 0.05090  0.19420  0.28910  Biso   1.000  O
  O6       1.0000 0.55090  0.30580  0.71090  Biso   1.000  O
  O7       1.0000 0.94910  0.69420  0.21090  Biso   1.000  O
  O8       1.0000 0.44910  0.80580  0.78910  Biso   1.000  O
  O9       1.0000 0.75140  0.54926  0.87348  Biso   1.000  O
  O10      1.0000 0.25140  0.95074  0.12652  Biso   1.000  O
  O11      1.0000 0.24860  0.04926  0.62652  Biso   1.000  O
  O12      1.0000 0.74860  0.45074  0.37348  Biso   1.000  O
  O13      1.0000 0.24860  0.45074  0.12652  Biso   1.000  O
  O14      1.0000 0.74860  0.04926  0.87348  Biso   1.000  O
  O15      1.0000 0.75140  0.95074  0.37348  Biso   1.000  O
  O16      1.0000 0.25140  0.54926  0.62652  Biso   1.000  O
  N1       1.0000 0.00160  0.93500  0.77590  Biso   1.000  N
  N2       1.0000 0.50160  0.56500  0.22410  Biso   1.000  N
  N3       1.0000 0.99840  0.43500  0.72410  Biso   1.000  N
  N4       1.0000 0.49840  0.06500  0.27590  Biso   1.000  N
  N5       1.0000 0.99840  0.06500  0.22410  Biso   1.000  N
  N6       1.0000 0.49840  0.43500  0.77590  Biso   1.000  N
  N7       1.0000 0.00160  0.56500  0.27590  Biso   1.000  N
  N8       1.0000 0.50160  0.93500  0.72410  Biso   1.000  N
  N9       1.0000 0.94500  0.88900  0.90080  Biso   1.000  N
  N10      1.0000 0.44500  0.61100  0.09920  Biso   1.000  N
  N11      1.0000 0.05500  0.38900  0.59920  Biso   1.000  N
  N12      1.0000 0.55500  0.11100  0.40080  Biso   1.000  N
  N13      1.0000 0.05500  0.11100  0.09920  Biso   1.000  N
  N14      1.0000 0.55500  0.38900  0.90080  Biso   1.000  N
  N15      1.0000 0.94500  0.61100  0.40080  Biso   1.000  N
  N16      1.0000 0.44500  0.88900  0.59920  Biso   1.000  N
  N17      1.0000 0.92100  0.74800  0.84320  Biso   1.000  N
  N18      1.0000 0.42100  0.75200  0.15680  Biso   1.000  N
  N19      1.0000 0.07900  0.24800  0.65680  Biso   1.000  N
  N20      1.0000 0.57900  0.25200  0.34320  Biso   1.000  N
  N21      1.0000 0.07900  0.25200  0.15680  Biso   1.000  N
  N22      1.0000 0.57900  0.24800  0.84320  Biso   1.000  N
  N23      1.0000 0.92100  0.75200  0.34320  Biso   1.000  N
  N24      1.0000 0.42100  0.74800  0.65680  Biso   1.000  N
  N25      1.0000 0.90840  0.69410  0.81120  Biso   1.000  N
  N26      1.0000 0.40840  0.80590  0.18880  Biso   1.000  N
  N27      1.0000 0.09160  0.19410  0.68880  Biso   1.000  N
  N28      1.0000 0.59160  0.30590  0.31120  Biso   1.000  N
  N29      1.0000 0.09160  0.30590  0.18880  Biso   1.000  N
  N30      1.0000 0.59160  0.19410  0.81120  Biso   1.000  N
  N31      1.0000 0.90840  0.80590  0.31120  Biso   1.000  N
  N32      1.0000 0.40840  0.69410  0.68880  Biso   1.000  N
  N33      1.0000 0.89600  0.64030  0.78270  Biso   1.000  N
  N34      1.0000 0.39600  0.85970  0.21730  Biso   1.000  N
  N35      1.0000 0.10400  0.14030  0.71730  Biso   1.000  N
  N36      1.0000 0.60400  0.35970  0.28270  Biso   1.000  N
  N37      1.0000 0.10400  0.35970  0.21730  Biso   1.000  N
  N38      1.0000 0.60400  0.14030  0.78270  Biso   1.000  N
  N39      1.0000 0.89600  0.85970  0.28270  Biso   1.000  N
  N40      1.0000 0.39600  0.64030  0.71730  Biso   1.000  N
  N41      1.0000 0.69280  0.68340  0.82460  Biso   1.000  N
  N42      1.0000 0.19280  0.81660  0.17540  Biso   1.000  N
  N43      1.0000 0.30720  0.18340  0.67540  Biso   1.000  N
  N44      1.0000 0.80720  0.31660  0.32460  Biso   1.000  N
  N45      1.0000 0.30720  0.31660  0.17540  Biso   1.000  N
  N46      1.0000 0.80720  0.18340  0.82460  Biso   1.000  N
  N47      1.0000 0.69280  0.81660  0.32460  Biso   1.000  N
  N48      1.0000 0.19280  0.68340  0.67540  Biso   1.000  N
  N49      1.0000 0.71020  0.64370  0.69090  Biso   1.000  N
  N50      1.0000 0.21020  0.85630  0.30910  Biso   1.000  N
  N51      1.0000 0.28980  0.14370  0.80910  Biso   1.000  N
  N52      1.0000 0.78980  0.35630  0.19090  Biso   1.000  N
  N53      1.0000 0.28980  0.35630  0.30910  Biso   1.000  N
  N54      1.0000 0.78980  0.14370  0.69090  Biso   1.000  N
  N55      1.0000 0.71020  0.85630  0.19090  Biso   1.000  N
  N56      1.0000 0.21020  0.64370  0.80910  Biso   1.000  N
  N57      1.0000 0.74970  0.00050  0.73640  Biso   1.000  N
  N58      1.0000 0.24970  0.49950  0.26360  Biso   1.000  N
  N59      1.0000 0.25030  0.50050  0.76360  Biso   1.000  N
  N60      1.0000 0.75030  0.99950  0.23640  Biso   1.000  N
  N61      1.0000 0.25030  0.99950  0.26360  Biso   1.000  N
  N62      1.0000 0.75030  0.50050  0.73640  Biso   1.000  N
  N63      1.0000 0.74970  0.49950  0.23640  Biso   1.000  N
  N64      1.0000 0.24970  0.00050  0.76360  Biso   1.000  N
  N65      1.0000 0.76660  0.94420  0.76200  Biso   1.000  N
  N66      1.0000 0.26660  0.55580  0.23800  Biso   1.000  N
  N67      1.0000 0.23340  0.44420  0.73800  Biso   1.000  N
  N68      1.0000 0.73340  0.05580  0.26200  Biso   1.000  N
  N69      1.0000 0.23340  0.05580  0.23800  Biso   1.000  N
  N70      1.0000 0.73340  0.44420  0.76200  Biso   1.000  N
  N71      1.0000 0.76660  0.55580  0.26200  Biso   1.000  N
  N72      1.0000 0.26660  0.94420  0.73800  Biso   1.000  N
  N73      1.0000 0.78280  0.88800  0.78530  Biso   1.000  N
  N74      1.0000 0.28280  0.61200  0.21470  Biso   1.000  N
  N75      1.0000 0.21720  0.38800  0.71470  Biso   1.000  N
  N76      1.0000 0.71720  0.11200  0.28530  Biso   1.000  N
  N77      1.0000 0.21720  0.11200  0.21470  Biso   1.000  N
  N78      1.0000 0.71720  0.38800  0.78530  Biso   1.000  N
  N79      1.0000 0.78280  0.61200  0.28530  Biso   1.000  N
  N80      1.0000 0.28280  0.88800  0.71470  Biso   1.000  N
  C1       1.0000 0.97990  0.83740  0.65520  Biso   1.000  C
  C2       1.0000 0.47990  0.66260  0.34480  Biso   1.000  C
  C3       1.0000 0.02010  0.33740  0.84480  Biso   1.000  C
  C4       1.0000 0.52010  0.16260  0.15520  Biso   1.000  C
  C5       1.0000 0.02010  0.16260  0.34480  Biso   1.000  C
  C6       1.0000 0.52010  0.33740  0.65520  Biso   1.000  C
  C7       1.0000 0.97990  0.66260  0.15520  Biso   1.000  C
  C8       1.0000 0.47990  0.83740  0.84480  Biso   1.000  C
  C9       1.0000 0.97750  0.79970  0.59180  Biso   1.000  C
  C10      1.0000 0.47750  0.70030  0.40820  Biso   1.000  C
  C11      1.0000 0.02250  0.29970  0.90820  Biso   1.000  C
  C12      1.0000 0.52250  0.20030  0.09180  Biso   1.000  C
  C13      1.0000 0.02250  0.20030  0.40820  Biso   1.000  C
  C14      1.0000 0.52250  0.29970  0.59180  Biso   1.000  C
  C15      1.0000 0.97750  0.70030  0.09180  Biso   1.000  C
  C16      1.0000 0.47750  0.79970  0.90820  Biso   1.000  C
  C17      1.0000 0.00570  0.83160  0.53160  Biso   1.000  C
  C18      1.0000 0.50570  0.66840  0.46840  Biso   1.000  C
  C19      1.0000 0.99430  0.33160  0.96840  Biso   1.000  C
  C20      1.0000 0.49430  0.16840  0.03160  Biso   1.000  C
  C21      1.0000 0.99430  0.16840  0.46840  Biso   1.000  C
  C22      1.0000 0.49430  0.33160  0.53160  Biso   1.000  C
  C23      1.0000 0.00570  0.66840  0.03160  Biso   1.000  C
  C24      1.0000 0.50570  0.83160  0.96840  Biso   1.000  C
  C25      1.0000 0.04080  0.90120  0.53030  Biso   1.000  C
  C26      1.0000 0.54080  0.59880  0.46970  Biso   1.000  C
  C27      1.0000 0.95920  0.40120  0.96970  Biso   1.000  C
  C28      1.0000 0.45920  0.09880  0.03030  Biso   1.000  C
  C29      1.0000 0.95920  0.09880  0.46970  Biso   1.000  C
  C30      1.0000 0.45920  0.40120  0.53030  Biso   1.000  C
  C31      1.0000 0.04080  0.59880  0.03030  Biso   1.000  C
  C32      1.0000 0.54080  0.90120  0.96970  Biso   1.000  C
  C33      1.0000 0.04620  0.93770  0.59130  Biso   1.000  C
  C34      1.0000 0.54620  0.56230  0.40870  Biso   1.000  C
  C35      1.0000 0.95380  0.43770  0.90870  Biso   1.000  C
  C36      1.0000 0.45380  0.06230  0.09130  Biso   1.000  C
  C37      1.0000 0.95380  0.06230  0.40870  Biso   1.000  C
  C38      1.0000 0.45380  0.43770  0.59130  Biso   1.000  C
  C39      1.0000 0.04620  0.56230  0.09130  Biso   1.000  C
  C40      1.0000 0.54620  0.93770  0.90870  Biso   1.000  C
  C41      1.0000 0.01720  0.90860  0.65420  Biso   1.000  C
  C42      1.0000 0.51720  0.59140  0.34580  Biso   1.000  C
  C43      1.0000 0.98280  0.40860  0.84580  Biso   1.000  C
  C44      1.0000 0.48280  0.09140  0.15420  Biso   1.000  C
  C45      1.0000 0.98280  0.09140  0.34580  Biso   1.000  C
  C46      1.0000 0.48280  0.40860  0.65420  Biso   1.000  C
  C47      1.0000 0.01720  0.59140  0.15420  Biso   1.000  C
  C48      1.0000 0.51720  0.90860  0.84580  Biso   1.000  C
  C49      1.0000 0.02680  0.95200  0.71410  Biso   1.000  C
  C50      1.0000 0.52680  0.54800  0.28590  Biso   1.000  C
  C51      1.0000 0.97320  0.45200  0.78590  Biso   1.000  C
  C52      1.0000 0.47320  0.04800  0.21410  Biso   1.000  C
  C53      1.0000 0.97320  0.04800  0.28590  Biso   1.000  C
  C54      1.0000 0.47320  0.45200  0.71410  Biso   1.000  C
  C55      1.0000 0.02680  0.54800  0.21410  Biso   1.000  C
  C56      1.0000 0.52680  0.95200  0.78590  Biso   1.000  C
  C57      1.0000 0.01830  0.98440  0.83300  Biso   1.000  C
  C58      1.0000 0.51830  0.51560  0.16700  Biso   1.000  C
  C59      1.0000 0.98170  0.48440  0.66700  Biso   1.000  C
  C60      1.0000 0.48170  0.01560  0.33300  Biso   1.000  C
  C61      1.0000 0.98170  0.01560  0.16700  Biso   1.000  C
  C62      1.0000 0.48170  0.48440  0.83300  Biso   1.000  C
  C63      1.0000 0.01830  0.51560  0.33300  Biso   1.000  C
  C64      1.0000 0.51830  0.98440  0.66700  Biso   1.000  C
  C65      1.0000 0.95020  0.96780  0.88960  Biso   1.000  C
  C66      1.0000 0.45020  0.53220  0.11040  Biso   1.000  C
  C67      1.0000 0.04980  0.46780  0.61040  Biso   1.000  C
  C68      1.0000 0.54980  0.03220  0.38960  Biso   1.000  C
  C69      1.0000 0.04980  0.03220  0.11040  Biso   1.000  C
  C70      1.0000 0.54980  0.46780  0.88960  Biso   1.000  C
  C71      1.0000 0.95020  0.53220  0.38960  Biso   1.000  C
  C72      1.0000 0.45020  0.96780  0.61040  Biso   1.000  C
  C73      1.0000 0.02870  0.86170  0.93660  Biso   1.000  C
  C74      1.0000 0.52870  0.63830  0.06340  Biso   1.000  C
  C75      1.0000 0.97130  0.36170  0.56340  Biso   1.000  C
  C76      1.0000 0.47130  0.13830  0.43660  Biso   1.000  C
  C77      1.0000 0.97130  0.13830  0.06340  Biso   1.000  C
  C78      1.0000 0.47130  0.36170  0.93660  Biso   1.000  C
  C79      1.0000 0.02870  0.63830  0.43660  Biso   1.000  C
  C80      1.0000 0.52870  0.86170  0.56340  Biso   1.000  C
  C81      1.0000 0.86350  0.87190  0.94340  Biso   1.000  C
  C82      1.0000 0.36350  0.62810  0.05660  Biso   1.000  C
  C83      1.0000 0.13650  0.37190  0.55660  Biso   1.000  C
  C84      1.0000 0.63650  0.12810  0.44340  Biso   1.000  C
  C85      1.0000 0.13650  0.12810  0.05660  Biso   1.000  C
  C86      1.0000 0.63650  0.37190  0.94340  Biso   1.000  C
  C87      1.0000 0.86350  0.62810  0.44340  Biso   1.000  C
  C88      1.0000 0.36350  0.87190  0.55660  Biso   1.000  C
  C89      1.0000 0.75320  0.58190  0.93340  Biso   1.000  C
  C90      1.0000 0.25320  0.91810  0.06660  Biso   1.000  C
  C91      1.0000 0.24680  0.08190  0.56660  Biso   1.000  C
  C92      1.0000 0.74680  0.41810  0.43340  Biso   1.000  C
  C93      1.0000 0.24680  0.41810  0.06660  Biso   1.000  C
  C94      1.0000 0.74680  0.08190  0.93340  Biso   1.000  C
  C95      1.0000 0.75320  0.91810  0.43340  Biso   1.000  C
  C96      1.0000 0.25320  0.58190  0.56660  Biso   1.000  C
  C97      1.0000 0.77560  0.54160  0.99320  Biso   1.000  C
  C98      1.0000 0.27560  0.95840  0.00680  Biso   1.000  C
  C99      1.0000 0.22440  0.04160  0.50680  Biso   1.000  C
  C100     1.0000 0.72440  0.45840  0.49320  Biso   1.000  C
  C101     1.0000 0.22440  0.45840  0.00680  Biso   1.000  C
  C102     1.0000 0.72440  0.04160  0.99320  Biso   1.000  C
  C103     1.0000 0.77560  0.95840  0.49320  Biso   1.000  C
  C104     1.0000 0.27560  0.54160  0.50680  Biso   1.000  C
  C105     1.0000 0.78270  0.57240  0.05720  Biso   1.000  C
  C106     1.0000 0.28270  0.92760  0.94280  Biso   1.000  C
  C107     1.0000 0.21730  0.07240  0.44280  Biso   1.000  C
  C108     1.0000 0.71730  0.42760  0.55720  Biso   1.000  C
  C109     1.0000 0.21730  0.42760  0.94280  Biso   1.000  C
  C110     1.0000 0.71730  0.07240  0.05720  Biso   1.000  C
  C111     1.0000 0.78270  0.92760  0.55720  Biso   1.000  C
  C112     1.0000 0.28270  0.57240  0.44280  Biso   1.000  C
  C113     1.0000 0.76570  0.64540  0.06670  Biso   1.000  C
  C114     1.0000 0.26570  0.85460  0.93330  Biso   1.000  C
  C115     1.0000 0.23430  0.14540  0.43330  Biso   1.000  C
  C116     1.0000 0.73430  0.35460  0.56670  Biso   1.000  C
  C117     1.0000 0.23430  0.35460  0.93330  Biso   1.000  C
  C118     1.0000 0.73430  0.14540  0.06670  Biso   1.000  C
  C119     1.0000 0.76570  0.85460  0.56670  Biso   1.000  C
  C120     1.0000 0.26570  0.64540  0.43330  Biso   1.000  C
  C121     1.0000 0.74020  0.68550  0.01090  Biso   1.000  C
  C122     1.0000 0.24020  0.81450  0.98910  Biso   1.000  C
  C123     1.0000 0.25980  0.18550  0.48910  Biso   1.000  C
  C124     1.0000 0.75980  0.31450  0.51090  Biso   1.000  C
  C125     1.0000 0.25980  0.31450  0.98910  Biso   1.000  C
  C126     1.0000 0.75980  0.18550  0.01090  Biso   1.000  C
  C127     1.0000 0.74020  0.81450  0.51090  Biso   1.000  C
  C128     1.0000 0.24020  0.68550  0.48910  Biso   1.000  C
  C129     1.0000 0.73300  0.65620  0.94370  Biso   1.000  C
  C130     1.0000 0.23300  0.84380  0.05630  Biso   1.000  C
  C131     1.0000 0.26700  0.15620  0.55630  Biso   1.000  C
  C132     1.0000 0.76700  0.34380  0.44370  Biso   1.000  C
  C133     1.0000 0.26700  0.34380  0.05630  Biso   1.000  C
  C134     1.0000 0.76700  0.15620  0.94370  Biso   1.000  C
  C135     1.0000 0.73300  0.84380  0.44370  Biso   1.000  C
  C136     1.0000 0.23300  0.65620  0.55630  Biso   1.000  C
  C137     1.0000 0.70220  0.70170  0.88890  Biso   1.000  C
  C138     1.0000 0.20220  0.79830  0.11110  Biso   1.000  C
  C139     1.0000 0.29780  0.20170  0.61110  Biso   1.000  C
  C140     1.0000 0.79780  0.29830  0.38890  Biso   1.000  C
  C141     1.0000 0.29780  0.29830  0.11110  Biso   1.000  C
  C142     1.0000 0.79780  0.20170  0.88890  Biso   1.000  C
  C143     1.0000 0.70220  0.79830  0.38890  Biso   1.000  C
  C144     1.0000 0.20220  0.70170  0.61110  Biso   1.000  C
  C145     1.0000 0.65670  0.73420  0.77430  Biso   1.000  C
  C146     1.0000 0.15670  0.76580  0.22570  Biso   1.000  C
  C147     1.0000 0.34330  0.23420  0.72570  Biso   1.000  C
  C148     1.0000 0.84330  0.26580  0.27430  Biso   1.000  C
  C149     1.0000 0.34330  0.26580  0.22570  Biso   1.000  C
  C150     1.0000 0.84330  0.23420  0.77430  Biso   1.000  C
  C151     1.0000 0.65670  0.76580  0.27430  Biso   1.000  C
  C152     1.0000 0.15670  0.73420  0.72570  Biso   1.000  C
  C153     1.0000 0.70730  0.72230  0.70750  Biso   1.000  C
  C154     1.0000 0.20730  0.77770  0.29250  Biso   1.000  C
  C155     1.0000 0.29270  0.22230  0.79250  Biso   1.000  C
  C156     1.0000 0.79270  0.27770  0.20750  Biso   1.000  C
  C157     1.0000 0.29270  0.27770  0.29250  Biso   1.000  C
  C158     1.0000 0.79270  0.22230  0.70750  Biso   1.000  C
  C159     1.0000 0.70730  0.77770  0.20750  Biso   1.000  C
  C160     1.0000 0.20730  0.72230  0.79250  Biso   1.000  C
  C161     1.0000 0.77780  0.63030  0.63690  Biso   1.000  C
  C162     1.0000 0.27780  0.86970  0.36310  Biso   1.000  C
  C163     1.0000 0.22220  0.13030  0.86310  Biso   1.000  C
  C164     1.0000 0.72220  0.36970  0.13690  Biso   1.000  C
  C165     1.0000 0.22220  0.36970  0.36310  Biso   1.000  C
  C166     1.0000 0.72220  0.13030  0.63690  Biso   1.000  C
  C167     1.0000 0.77780  0.86970  0.13690  Biso   1.000  C
  C168     1.0000 0.27780  0.63030  0.86310  Biso   1.000  C
  C169     1.0000 0.62080  0.61760  0.66730  Biso   1.000  C
  C170     1.0000 0.12080  0.88240  0.33270  Biso   1.000  C
  C171     1.0000 0.37920  0.11760  0.83270  Biso   1.000  C
  C172     1.0000 0.87920  0.38240  0.16730  Biso   1.000  C
  C173     1.0000 0.37920  0.38240  0.33270  Biso   1.000  C
  C174     1.0000 0.87920  0.11760  0.66730  Biso   1.000  C
  C175     1.0000 0.62080  0.88240  0.16730  Biso   1.000  C
  C176     1.0000 0.12080  0.61760  0.83270  Biso   1.000  C
  H1       1.0000 0.95830  0.75070  0.59140  Biso   1.000  H
  H2       1.0000 0.45830  0.74930  0.40860  Biso   1.000  H
  H3       1.0000 0.04170  0.25070  0.90860  Biso   1.000  H
  H4       1.0000 0.54170  0.24930  0.09140  Biso   1.000  H
  H5       1.0000 0.04170  0.24930  0.40860  Biso   1.000  H
  H6       1.0000 0.54170  0.25070  0.59140  Biso   1.000  H
  H7       1.0000 0.95830  0.74930  0.09140  Biso   1.000  H
  H8       1.0000 0.45830  0.75070  0.90860  Biso   1.000  H
  H9       1.0000 0.00050  0.80550  0.48940  Biso   1.000  H
  H10      1.0000 0.50050  0.69450  0.51060  Biso   1.000  H
  H11      1.0000 0.99950  0.30550  0.01060  Biso   1.000  H
  H12      1.0000 0.49950  0.19450  0.98940  Biso   1.000  H
  H13      1.0000 0.99950  0.19450  0.51060  Biso   1.000  H
  H14      1.0000 0.49950  0.30550  0.48940  Biso   1.000  H
  H15      1.0000 0.00050  0.69450  0.98940  Biso   1.000  H
  H16      1.0000 0.50050  0.80550  0.01060  Biso   1.000  H
  H17      1.0000 0.06060  0.92280  0.48820  Biso   1.000  H
  H18      1.0000 0.56060  0.57720  0.51180  Biso   1.000  H
  H19      1.0000 0.93940  0.42280  0.01180  Biso   1.000  H
  H20      1.0000 0.43940  0.07720  0.98820  Biso   1.000  H
  H21      1.0000 0.93940  0.07720  0.51180  Biso   1.000  H
  H22      1.0000 0.43940  0.42280  0.48820  Biso   1.000  H
  H23      1.0000 0.06060  0.57720  0.98820  Biso   1.000  H
  H24      1.0000 0.56060  0.92280  0.01180  Biso   1.000  H
  H25      1.0000 0.06970  0.98560  0.59130  Biso   1.000  H
  H26      1.0000 0.56970  0.51440  0.40870  Biso   1.000  H
  H27      1.0000 0.93030  0.48560  0.90870  Biso   1.000  H
  H28      1.0000 0.43030  0.01440  0.09130  Biso   1.000  H
  H29      1.0000 0.93030  0.01440  0.40870  Biso   1.000  H
  H30      1.0000 0.43030  0.48560  0.59130  Biso   1.000  H
  H31      1.0000 0.06970  0.51440  0.09130  Biso   1.000  H
  H32      1.0000 0.56970  0.98560  0.90870  Biso   1.000  H
  H33      1.0000 0.05510  0.99780  0.70780  Biso   1.000  H
  H34      1.0000 0.55510  0.50220  0.29220  Biso   1.000  H
  H35      1.0000 0.94490  0.49780  0.79220  Biso   1.000  H
  H36      1.0000 0.44490  0.00220  0.20780  Biso   1.000  H
  H37      1.0000 0.94490  0.00220  0.29220  Biso   1.000  H
  H38      1.0000 0.44490  0.49780  0.70780  Biso   1.000  H
  H39      1.0000 0.05510  0.50220  0.20780  Biso   1.000  H
  H40      1.0000 0.55510  0.99780  0.79220  Biso   1.000  H
  H41      1.0000 0.07880  0.97800  0.85050  Biso   1.000  H
  H42      1.0000 0.57880  0.52200  0.14950  Biso   1.000  H
  H43      1.0000 0.92120  0.47800  0.64950  Biso   1.000  H
  H44      1.0000 0.42120  0.02200  0.35050  Biso   1.000  H
  H45      1.0000 0.92120  0.02200  0.14950  Biso   1.000  H
  H46      1.0000 0.42120  0.47800  0.85050  Biso   1.000  H
  H47      1.0000 0.07880  0.52200  0.35050  Biso   1.000  H
  H48      1.0000 0.57880  0.97800  0.64950  Biso   1.000  H
  H49      1.0000 0.01110  0.03280  0.81750  Biso   1.000  H
  H50      1.0000 0.51110  0.46720  0.18250  Biso   1.000  H
  H51      1.0000 0.98890  0.53280  0.68250  Biso   1.000  H
  H52      1.0000 0.48890  0.96720  0.31750  Biso   1.000  H
  H53      1.0000 0.98890  0.96720  0.18250  Biso   1.000  H
  H54      1.0000 0.48890  0.53280  0.81750  Biso   1.000  H
  H55      1.0000 0.01110  0.46720  0.31750  Biso   1.000  H
  H56      1.0000 0.51110  0.03280  0.68250  Biso   1.000  H
  H57      1.0000 0.89120  0.98410  0.87540  Biso   1.000  H
  H58      1.0000 0.39120  0.51590  0.12460  Biso   1.000  H
  H59      1.0000 0.10880  0.48410  0.62460  Biso   1.000  H
  H60      1.0000 0.60880  0.01590  0.37540  Biso   1.000  H
  H61      1.0000 0.10880  0.01590  0.12460  Biso   1.000  H
  H62      1.0000 0.60880  0.48410  0.87540  Biso   1.000  H
  H63      1.0000 0.89120  0.51590  0.37540  Biso   1.000  H
  H64      1.0000 0.39120  0.98410  0.62460  Biso   1.000  H
  H65      1.0000 0.96720  0.99140  0.93140  Biso   1.000  H
  H66      1.0000 0.46720  0.50860  0.06860  Biso   1.000  H
  H67      1.0000 0.03280  0.49140  0.56860  Biso   1.000  H
  H68      1.0000 0.53280  0.00860  0.43140  Biso   1.000  H
  H69      1.0000 0.03280  0.00860  0.06860  Biso   1.000  H
  H70      1.0000 0.53280  0.49140  0.93140  Biso   1.000  H
  H71      1.0000 0.96720  0.50860  0.43140  Biso   1.000  H
  H72      1.0000 0.46720  0.99140  0.56860  Biso   1.000  H
  H73      1.0000 0.02360  0.81120  0.94370  Biso   1.000  H
  H74      1.0000 0.52360  0.68880  0.05630  Biso   1.000  H
  H75      1.0000 0.97640  0.31120  0.55630  Biso   1.000  H
  H76      1.0000 0.47640  0.18880  0.44370  Biso   1.000  H
  H77      1.0000 0.97640  0.18880  0.05630  Biso   1.000  H
  H78      1.0000 0.47640  0.31120  0.94370  Biso   1.000  H
  H79      1.0000 0.02360  0.68880  0.44370  Biso   1.000  H
  H80      1.0000 0.52360  0.81120  0.55630  Biso   1.000  H
  H81      1.0000 0.08150  0.87170  0.90930  Biso   1.000  H
  H82      1.0000 0.58150  0.62830  0.09070  Biso   1.000  H
  H83      1.0000 0.91850  0.37170  0.59070  Biso   1.000  H
  H84      1.0000 0.41850  0.12830  0.40930  Biso   1.000  H
  H85      1.0000 0.91850  0.12830  0.09070  Biso   1.000  H
  H86      1.0000 0.41850  0.37170  0.90930  Biso   1.000  H
  H87      1.0000 0.08150  0.62830  0.40930  Biso   1.000  H
  H88      1.0000 0.58150  0.87170  0.59070  Biso   1.000  H
  H89      1.0000 0.03400  0.88530  0.98020  Biso   1.000  H
  H90      1.0000 0.53400  0.61470  0.01980  Biso   1.000  H
  H91      1.0000 0.96600  0.38530  0.51980  Biso   1.000  H
  H92      1.0000 0.46600  0.11470  0.48020  Biso   1.000  H
  H93      1.0000 0.96600  0.11470  0.01980  Biso   1.000  H
  H94      1.0000 0.46600  0.38530  0.98020  Biso   1.000  H
  H95      1.0000 0.03400  0.61470  0.48020  Biso   1.000  H
  H96      1.0000 0.53400  0.88530  0.51980  Biso   1.000  H
  H97      1.0000 0.86850  0.89640  0.98660  Biso   1.000  H
  H98      1.0000 0.36850  0.60360  0.01340  Biso   1.000  H
  H99      1.0000 0.13150  0.39640  0.51340  Biso   1.000  H
  H100     1.0000 0.63150  0.10360  0.48660  Biso   1.000  H
  H101     1.0000 0.13150  0.10360  0.01340  Biso   1.000  H
  H102     1.0000 0.63150  0.39640  0.98660  Biso   1.000  H
  H103     1.0000 0.86850  0.60360  0.48660  Biso   1.000  H
  H104     1.0000 0.36850  0.89640  0.51340  Biso   1.000  H
  H105     1.0000 0.80960  0.88750  0.92000  Biso   1.000  H
  H106     1.0000 0.30960  0.61250  0.08000  Biso   1.000  H
  H107     1.0000 0.19040  0.38750  0.58000  Biso   1.000  H
  H108     1.0000 0.69040  0.11250  0.42000  Biso   1.000  H
  H109     1.0000 0.19040  0.11250  0.08000  Biso   1.000  H
  H110     1.0000 0.69040  0.38750  0.92000  Biso   1.000  H
  H111     1.0000 0.80960  0.61250  0.42000  Biso   1.000  H
  H112     1.0000 0.30960  0.88750  0.58000  Biso   1.000  H
  H113     1.0000 0.86020  0.82140  0.95130  Biso   1.000  H
  H114     1.0000 0.36020  0.67860  0.04870  Biso   1.000  H
  H115     1.0000 0.13980  0.32140  0.54870  Biso   1.000  H
  H116     1.0000 0.63980  0.17860  0.45130  Biso   1.000  H
  H117     1.0000 0.13980  0.17860  0.04870  Biso   1.000  H
  H118     1.0000 0.63980  0.32140  0.95130  Biso   1.000  H
  H119     1.0000 0.86020  0.67860  0.45130  Biso   1.000  H
  H120     1.0000 0.36020  0.82140  0.54870  Biso   1.000  H
  H121     1.0000 0.78660  0.49130  0.98870  Biso   1.000  H
  H122     1.0000 0.28660  0.00870  0.01130  Biso   1.000  H
  H123     1.0000 0.21340  0.99130  0.51130  Biso   1.000  H
  H124     1.0000 0.71340  0.50870  0.48870  Biso   1.000  H
  H125     1.0000 0.21340  0.50870  0.01130  Biso   1.000  H
  H126     1.0000 0.71340  0.99130  0.98870  Biso   1.000  H
  H127     1.0000 0.78660  0.00870  0.48870  Biso   1.000  H
  H128     1.0000 0.28660  0.49130  0.51130  Biso   1.000  H
  H129     1.0000 0.80040  0.54400  0.09600  Biso   1.000  H
  H130     1.0000 0.30040  0.95600  0.90400  Biso   1.000  H
  H131     1.0000 0.19960  0.04400  0.40400  Biso   1.000  H
  H132     1.0000 0.69960  0.45600  0.59600  Biso   1.000  H
  H133     1.0000 0.19960  0.45600  0.90400  Biso   1.000  H
  H134     1.0000 0.69960  0.04400  0.09600  Biso   1.000  H
  H135     1.0000 0.80040  0.95600  0.59600  Biso   1.000  H
  H136     1.0000 0.30040  0.54400  0.40400  Biso   1.000  H
  H137     1.0000 0.77150  0.66680  0.11130  Biso   1.000  H
  H138     1.0000 0.27150  0.83320  0.88870  Biso   1.000  H
  H139     1.0000 0.22850  0.16680  0.38870  Biso   1.000  H
  H140     1.0000 0.72850  0.33320  0.61130  Biso   1.000  H
  H141     1.0000 0.22850  0.33320  0.88870  Biso   1.000  H
  H142     1.0000 0.72850  0.16680  0.11130  Biso   1.000  H
  H143     1.0000 0.77150  0.83320  0.61130  Biso   1.000  H
  H144     1.0000 0.27150  0.66680  0.38870  Biso   1.000  H
  H145     1.0000 0.72590  0.73500  0.01750  Biso   1.000  H
  H146     1.0000 0.22590  0.76500  0.98250  Biso   1.000  H
  H147     1.0000 0.27410  0.23500  0.48250  Biso   1.000  H
  H148     1.0000 0.77410  0.26500  0.51750  Biso   1.000  H
  H149     1.0000 0.27410  0.26500  0.98250  Biso   1.000  H
  H150     1.0000 0.77410  0.23500  0.01750  Biso   1.000  H
  H151     1.0000 0.72590  0.76500  0.51750  Biso   1.000  H
  H152     1.0000 0.22590  0.73500  0.48250  Biso   1.000  H
  H153     1.0000 0.68790  0.75020  0.90060  Biso   1.000  H
  H154     1.0000 0.18790  0.74980  0.09940  Biso   1.000  H
  H155     1.0000 0.31210  0.25020  0.59940  Biso   1.000  H
  H156     1.0000 0.81210  0.24980  0.40060  Biso   1.000  H
  H157     1.0000 0.31210  0.24980  0.09940  Biso   1.000  H
  H158     1.0000 0.81210  0.25020  0.90060  Biso   1.000  H
  H159     1.0000 0.68790  0.74980  0.40060  Biso   1.000  H
  H160     1.0000 0.18790  0.75020  0.59940  Biso   1.000  H
  H161     1.0000 0.66480  0.78220  0.79050  Biso   1.000  H
  H162     1.0000 0.16480  0.71780  0.20950  Biso   1.000  H
  H163     1.0000 0.33520  0.28220  0.70950  Biso   1.000  H
  H164     1.0000 0.83520  0.21780  0.29050  Biso   1.000  H
  H165     1.0000 0.33520  0.21780  0.20950  Biso   1.000  H
  H166     1.0000 0.83520  0.28220  0.79050  Biso   1.000  H
  H167     1.0000 0.66480  0.71780  0.29050  Biso   1.000  H
  H168     1.0000 0.16480  0.78220  0.70950  Biso   1.000  H
  H169     1.0000 0.59320  0.72530  0.76690  Biso   1.000  H
  H170     1.0000 0.09320  0.77470  0.23310  Biso   1.000  H
  H171     1.0000 0.40680  0.22530  0.73310  Biso   1.000  H
  H172     1.0000 0.90680  0.27470  0.26690  Biso   1.000  H
  H173     1.0000 0.40680  0.27470  0.23310  Biso   1.000  H
  H174     1.0000 0.90680  0.22530  0.76690  Biso   1.000  H
  H175     1.0000 0.59320  0.77470  0.26690  Biso   1.000  H
  H176     1.0000 0.09320  0.72530  0.73310  Biso   1.000  H
  H177     1.0000 0.67830  0.74800  0.67090  Biso   1.000  H
  H178     1.0000 0.17830  0.75200  0.32910  Biso   1.000  H
  H179     1.0000 0.32170  0.24800  0.82910  Biso   1.000  H
  H180     1.0000 0.82170  0.25200  0.17090  Biso   1.000  H
  H181     1.0000 0.32170  0.25200  0.32910  Biso   1.000  H
  H182     1.0000 0.82170  0.24800  0.67090  Biso   1.000  H
  H183     1.0000 0.67830  0.75200  0.17090  Biso   1.000  H
  H184     1.0000 0.17830  0.74800  0.82910  Biso   1.000  H
  H185     1.0000 0.76830  0.73940  0.71310  Biso   1.000  H
  H186     1.0000 0.26830  0.76060  0.28690  Biso   1.000  H
  H187     1.0000 0.23170  0.23940  0.78690  Biso   1.000  H
  H188     1.0000 0.73170  0.26060  0.21310  Biso   1.000  H
  H189     1.0000 0.23170  0.26060  0.28690  Biso   1.000  H
  H190     1.0000 0.73170  0.23940  0.71310  Biso   1.000  H
  H191     1.0000 0.76830  0.76060  0.21310  Biso   1.000  H
  H192     1.0000 0.26830  0.73940  0.78690  Biso   1.000  H
  H193     1.0000 0.83590  0.64720  0.65220  Biso   1.000  H
  H194     1.0000 0.33590  0.85280  0.34780  Biso   1.000  H
  H195     1.0000 0.16410  0.14720  0.84780  Biso   1.000  H
  H196     1.0000 0.66410  0.35280  0.15220  Biso   1.000  H
  H197     1.0000 0.16410  0.35280  0.34780  Biso   1.000  H
  H198     1.0000 0.66410  0.14720  0.65220  Biso   1.000  H
  H199     1.0000 0.83590  0.85280  0.15220  Biso   1.000  H
  H200     1.0000 0.33590  0.64720  0.84780  Biso   1.000  H
  H201     1.0000 0.76090  0.65480  0.59540  Biso   1.000  H
  H202     1.0000 0.26090  0.84520  0.40460  Biso   1.000  H
  H203     1.0000 0.23910  0.15480  0.90460  Biso   1.000  H
  H204     1.0000 0.73910  0.34520  0.09540  Biso   1.000  H
  H205     1.0000 0.23910  0.34520  0.40460  Biso   1.000  H
  H206     1.0000 0.73910  0.15480  0.59540  Biso   1.000  H
  H207     1.0000 0.76090  0.84520  0.09540  Biso   1.000  H
  H208     1.0000 0.26090  0.65480  0.90460  Biso   1.000  H
  H209     1.0000 0.78120  0.57990  0.62810  Biso   1.000  H
  H210     1.0000 0.28120  0.92010  0.37190  Biso   1.000  H
  H211     1.0000 0.21880  0.07990  0.87190  Biso   1.000  H
  H212     1.0000 0.71880  0.42010  0.12810  Biso   1.000  H
  H213     1.0000 0.21880  0.42010  0.37190  Biso   1.000  H
  H214     1.0000 0.71880  0.07990  0.62810  Biso   1.000  H
  H215     1.0000 0.78120  0.92010  0.12810  Biso   1.000  H
  H216     1.0000 0.28120  0.57990  0.87190  Biso   1.000  H
  H217     1.0000 0.62360  0.56720  0.65840  Biso   1.000  H
  H218     1.0000 0.12360  0.93280  0.34160  Biso   1.000  H
  H219     1.0000 0.37640  0.06720  0.84160  Biso   1.000  H
  H220     1.0000 0.87640  0.43280  0.15840  Biso   1.000  H
  H221     1.0000 0.37640  0.43280  0.34160  Biso   1.000  H
  H222     1.0000 0.87640  0.06720  0.65840  Biso   1.000  H
  H223     1.0000 0.62360  0.93280  0.15840  Biso   1.000  H
  H224     1.0000 0.12360  0.56720  0.84160  Biso   1.000  H
  H225     1.0000 0.60370  0.64230  0.62600  Biso   1.000  H
  H226     1.0000 0.10370  0.85770  0.37400  Biso   1.000  H
  H227     1.0000 0.39630  0.14230  0.87400  Biso   1.000  H
  H228     1.0000 0.89630  0.35770  0.12600  Biso   1.000  H
  H229     1.0000 0.39630  0.35770  0.37400  Biso   1.000  H
  H230     1.0000 0.89630  0.14230  0.62600  Biso   1.000  H
  H231     1.0000 0.60370  0.85770  0.12600  Biso   1.000  H
  H232     1.0000 0.10370  0.64230  0.87400  Biso   1.000  H
  H233     1.0000 0.57650  0.62680  0.70250  Biso   1.000  H
  H234     1.0000 0.07650  0.87320  0.29750  Biso   1.000  H
  H235     1.0000 0.42350  0.12680  0.79750  Biso   1.000  H
  H236     1.0000 0.92350  0.37320  0.20250  Biso   1.000  H
  H237     1.0000 0.42350  0.37320  0.29750  Biso   1.000  H
  H238     1.0000 0.92350  0.12680  0.70250  Biso   1.000  H
  H239     1.0000 0.57650  0.87320  0.20250  Biso   1.000  H
  H240     1.0000 0.07650  0.62680  0.79750  Biso   1.000  H
