data_image0
_cell_length_a       9.327
_cell_length_b       12.049
_cell_length_c       15.321
_cell_angle_alpha    90
_cell_angle_beta     90
_cell_angle_gamma    90

_symmetry_space_group_name_H-M    "P 1"
_symmetry_int_tables_number       1

loop_
  _symmetry_equiv_pos_as_xyz
  'x, y, z'

loop_
  _atom_site_label
  _atom_site_occupancy
  _atom_site_fract_x
  _atom_site_fract_y
  _atom_site_fract_z
  _atom_site_thermal_displace_type
  _atom_site_B_iso_or_equiv
  _atom_site_type_symbol
  Cu1      1.0000 0.54033  0.74851  0.90299  Biso   1.000  Cu
  Cu2      1.0000 0.95967  0.25149  0.40299  Biso   1.000  Cu
  Cu3      1.0000 0.45967  0.24851  0.59701  Biso   1.000  Cu
  Cu4      1.0000 0.04033  0.75149  0.09701  Biso   1.000  Cu
  C1       1.0000 0.29620  0.61210  0.87800  Biso   1.000  C
  C2       1.0000 0.20380  0.38790  0.37800  Biso   1.000  C
  C3       1.0000 0.70380  0.11210  0.62200  Biso   1.000  C
  C4       1.0000 0.79620  0.88790  0.12200  Biso   1.000  C
  H1       1.0000 0.26440  0.61420  0.93830  Biso   1.000  H
  H2       1.0000 0.23560  0.38580  0.43830  Biso   1.000  H
  H3       1.0000 0.73560  0.11420  0.56170  Biso   1.000  H
  H4       1.0000 0.76440  0.88580  0.06170  Biso   1.000  H
  H5       1.0000 0.24830  0.55070  0.84930  Biso   1.000  H
  H6       1.0000 0.25170  0.44930  0.34930  Biso   1.000  H
  H7       1.0000 0.75170  0.05070  0.65070  Biso   1.000  H
  H8       1.0000 0.74830  0.94930  0.15070  Biso   1.000  H
  N1       1.0000 0.45000  0.73750  0.05458  Biso   1.000  N
  N2       1.0000 0.05000  0.26250  0.55458  Biso   1.000  N
  N3       1.0000 0.55000  0.23750  0.44542  Biso   1.000  N
  N4       1.0000 0.95000  0.76250  0.94542  Biso   1.000  N
  C5       1.0000 0.54350  0.98600  0.92433  Biso   1.000  C
  C6       1.0000 0.95650  0.01400  0.42433  Biso   1.000  C
  C7       1.0000 0.45650  0.48600  0.57567  Biso   1.000  C
  C8       1.0000 0.04350  0.51400  0.07567  Biso   1.000  C
  O1       1.0000 0.61720  0.89477  0.91561  Biso   1.000  O
  O2       1.0000 0.88280  0.10523  0.41561  Biso   1.000  O
  O3       1.0000 0.38280  0.39477  0.58439  Biso   1.000  O
  O4       1.0000 0.11720  0.60523  0.08439  Biso   1.000  O
  C9       1.0000 0.30580  0.90190  0.88372  Biso   1.000  C
  C10      1.0000 0.19420  0.09810  0.38372  Biso   1.000  C
  C11      1.0000 0.69420  0.40190  0.61628  Biso   1.000  C
  C12      1.0000 0.80580  0.59810  0.11628  Biso   1.000  C
  H9       1.0000 0.20840  0.91470  0.87580  Biso   1.000  H
  H10      1.0000 0.29160  0.08530  0.37580  Biso   1.000  H
  H11      1.0000 0.79160  0.41470  0.62420  Biso   1.000  H
  H12      1.0000 0.70840  0.58530  0.12420  Biso   1.000  H
  N5       1.0000 0.34070  0.77569  0.07090  Biso   1.000  N
  N6       1.0000 0.15930  0.22431  0.57090  Biso   1.000  N
  N7       1.0000 0.65930  0.27569  0.42910  Biso   1.000  N
  N8       1.0000 0.84070  0.72431  0.92910  Biso   1.000  N
  C13      1.0000 0.61620  0.08430  0.94540  Biso   1.000  C
  C14      1.0000 0.88380  0.91570  0.44540  Biso   1.000  C
  C15      1.0000 0.38380  0.58430  0.55460  Biso   1.000  C
  C16      1.0000 0.11620  0.41570  0.05460  Biso   1.000  C
  H13      1.0000 0.71530  0.08260  0.95190  Biso   1.000  H
  H14      1.0000 0.78470  0.91740  0.45190  Biso   1.000  H
  H15      1.0000 0.28470  0.58260  0.54810  Biso   1.000  H
  H16      1.0000 0.21530  0.41740  0.04810  Biso   1.000  H
  C17      1.0000 0.54490  0.18340  0.95660  Biso   1.000  C
  C18      1.0000 0.95510  0.81660  0.45660  Biso   1.000  C
  C19      1.0000 0.45510  0.68340  0.54340  Biso   1.000  C
  C20      1.0000 0.04490  0.31660  0.04340  Biso   1.000  C
  H17      1.0000 0.59640  0.24730  0.96970  Biso   1.000  H
  H18      1.0000 0.90360  0.75270  0.46970  Biso   1.000  H
  H19      1.0000 0.40360  0.74730  0.53030  Biso   1.000  H
  H20      1.0000 0.09640  0.25270  0.03030  Biso   1.000  H
  C21      1.0000 0.39230  0.99320  0.91375  Biso   1.000  C
  C22      1.0000 0.10770  0.00680  0.41375  Biso   1.000  C
  C23      1.0000 0.60770  0.49320  0.58625  Biso   1.000  C
  C24      1.0000 0.89230  0.50680  0.08625  Biso   1.000  C
  N9       1.0000 0.45300  0.59484  0.87518  Biso   1.000  N
  N10      1.0000 0.04700  0.40516  0.37518  Biso   1.000  N
  N11      1.0000 0.54700  0.09484  0.62482  Biso   1.000  N
  N12      1.0000 0.95300  0.90516  0.12482  Biso   1.000  N
  N13      1.0000 0.23170  0.82060  0.08767  Biso   1.000  N
  N14      1.0000 0.26830  0.17940  0.58767  Biso   1.000  N
  N15      1.0000 0.76830  0.32060  0.41233  Biso   1.000  N
  N16      1.0000 0.73170  0.67940  0.91233  Biso   1.000  N
  N17      1.0000 0.04090  0.42190  0.76546  Biso   1.000  N
  N18      1.0000 0.45910  0.57810  0.26546  Biso   1.000  N
  N19      1.0000 0.95910  0.92190  0.73454  Biso   1.000  N
  N20      1.0000 0.54090  0.07810  0.23454  Biso   1.000  N
  C25      1.0000 0.32460  0.09620  0.92590  Biso   1.000  C
  C26      1.0000 0.17540  0.90380  0.42590  Biso   1.000  C
  C27      1.0000 0.67540  0.59620  0.57410  Biso   1.000  C
  C28      1.0000 0.82460  0.40380  0.07410  Biso   1.000  C
  H21      1.0000 0.22590  0.10090  0.91800  Biso   1.000  H
  H22      1.0000 0.27410  0.89910  0.41800  Biso   1.000  H
  H23      1.0000 0.77410  0.60090  0.58200  Biso   1.000  H
  H24      1.0000 0.72590  0.39910  0.08200  Biso   1.000  H
  C29      1.0000 0.25660  0.71860  0.83377  Biso   1.000  C
  C30      1.0000 0.24340  0.28140  0.33377  Biso   1.000  C
  C31      1.0000 0.74340  0.21860  0.66623  Biso   1.000  C
  C32      1.0000 0.75660  0.78140  0.16623  Biso   1.000  C
  H25      1.0000 0.26700  0.71130  0.77100  Biso   1.000  H
  H26      1.0000 0.23300  0.28870  0.27100  Biso   1.000  H
  H27      1.0000 0.73300  0.21130  0.72900  Biso   1.000  H
  H28      1.0000 0.76700  0.78870  0.22900  Biso   1.000  H
  H29      1.0000 0.15790  0.73790  0.84670  Biso   1.000  H
  H30      1.0000 0.34210  0.26210  0.34670  Biso   1.000  H
  H31      1.0000 0.84210  0.23790  0.65330  Biso   1.000  H
  H32      1.0000 0.65790  0.76210  0.15330  Biso   1.000  H
  C33      1.0000 0.49420  0.50790  0.93720  Biso   1.000  C
  C34      1.0000 0.00580  0.49210  0.43720  Biso   1.000  C
  C35      1.0000 0.50580  0.00790  0.56280  Biso   1.000  C
  C36      1.0000 0.99420  0.99210  0.06280  Biso   1.000  C
  H33      1.0000 0.44970  0.43910  0.92070  Biso   1.000  H
  H34      1.0000 0.05030  0.56090  0.42070  Biso   1.000  H
  H35      1.0000 0.55030  0.93910  0.57930  Biso   1.000  H
  H36      1.0000 0.94970  0.06090  0.07930  Biso   1.000  H
  H37      1.0000 0.46330  0.52830  0.99480  Biso   1.000  H
  H38      1.0000 0.03670  0.47170  0.49480  Biso   1.000  H
  H39      1.0000 0.53670  0.02830  0.50520  Biso   1.000  H
  H40      1.0000 0.96330  0.97170  0.00520  Biso   1.000  H
  H41      1.0000 0.59650  0.49920  0.93670  Biso   1.000  H
  H42      1.0000 0.90350  0.50080  0.43670  Biso   1.000  H
  H43      1.0000 0.40350  0.99920  0.56330  Biso   1.000  H
  H44      1.0000 0.09650  0.00080  0.06330  Biso   1.000  H
  N21      1.0000 0.35330  0.80402  0.86697  Biso   1.000  N
  N22      1.0000 0.14670  0.19598  0.36697  Biso   1.000  N
  N23      1.0000 0.64670  0.30402  0.63303  Biso   1.000  N
  N24      1.0000 0.85330  0.69598  0.13303  Biso   1.000  N
  C37      1.0000 0.50090  0.56340  0.78666  Biso   1.000  C
  C38      1.0000 0.99910  0.43660  0.28666  Biso   1.000  C
  C39      1.0000 0.49910  0.06340  0.71334  Biso   1.000  C
  C40      1.0000 0.00090  0.93660  0.21334  Biso   1.000  C
  H45      1.0000 0.46150  0.49230  0.77170  Biso   1.000  H
  H46      1.0000 0.03850  0.50770  0.27170  Biso   1.000  H
  H47      1.0000 0.53850  0.99230  0.72830  Biso   1.000  H
  H48      1.0000 0.96150  0.00770  0.22830  Biso   1.000  H
  H49      1.0000 0.60360  0.55950  0.78540  Biso   1.000  H
  H50      1.0000 0.89640  0.44050  0.28540  Biso   1.000  H
  H51      1.0000 0.39640  0.05950  0.71460  Biso   1.000  H
  H52      1.0000 0.10360  0.94050  0.21460  Biso   1.000  H
  H53      1.0000 0.46850  0.61790  0.74540  Biso   1.000  H
  H54      1.0000 0.03150  0.38210  0.24540  Biso   1.000  H
  H55      1.0000 0.53150  0.11790  0.75460  Biso   1.000  H
  H56      1.0000 0.96850  0.88210  0.25460  Biso   1.000  H
  C41      1.0000 0.39780  0.18860  0.94860  Biso   1.000  C
  C42      1.0000 0.10220  0.81140  0.44860  Biso   1.000  C
  C43      1.0000 0.60220  0.68860  0.55140  Biso   1.000  C
  C44      1.0000 0.89780  0.31140  0.05140  Biso   1.000  C
  H57      1.0000 0.34950  0.25490  0.95870  Biso   1.000  H
  H58      1.0000 0.15050  0.74510  0.45870  Biso   1.000  H
  H59      1.0000 0.65050  0.75490  0.54130  Biso   1.000  H
  H60      1.0000 0.84950  0.24510  0.04130  Biso   1.000  H
  O5       1.0000 0.02610  0.56270  0.66720  Biso   1.000  O
  O6       1.0000 0.47390  0.43730  0.16720  Biso   1.000  O
  O7       1.0000 0.97390  0.06270  0.83280  Biso   1.000  O
  O8       1.0000 0.52610  0.93730  0.33280  Biso   1.000  O
  C45      1.0000 0.08000  0.47760  0.69410  Biso   1.000  C
  C46      1.0000 0.42000  0.52240  0.19410  Biso   1.000  C
  C47      1.0000 0.92000  0.97760  0.80590  Biso   1.000  C
  C48      1.0000 0.58000  0.02240  0.30590  Biso   1.000  C
  H61      1.0000 0.15570  0.44850  0.66190  Biso   1.000  H
  H62      1.0000 0.34430  0.55150  0.16190  Biso   1.000  H
  H63      1.0000 0.84430  0.94850  0.83810  Biso   1.000  H
  H64      1.0000 0.65570  0.05150  0.33810  Biso   1.000  H
  C49      1.0000 0.92610  0.46400  0.81920  Biso   1.000  C
  C50      1.0000 0.57390  0.53600  0.31920  Biso   1.000  C
  C51      1.0000 0.07390  0.96400  0.68080  Biso   1.000  C
  C52      1.0000 0.42610  0.03600  0.18080  Biso   1.000  C
  H65      1.0000 0.89060  0.53200  0.79470  Biso   1.000  H
  H66      1.0000 0.60940  0.46800  0.29470  Biso   1.000  H
  H67      1.0000 0.10940  0.03200  0.70530  Biso   1.000  H
  H68      1.0000 0.39060  0.96800  0.20530  Biso   1.000  H
  H69      1.0000 0.96130  0.47760  0.87710  Biso   1.000  H
  H70      1.0000 0.53870  0.52240  0.37710  Biso   1.000  H
  H71      1.0000 0.03870  0.97760  0.62290  Biso   1.000  H
  H72      1.0000 0.46130  0.02240  0.12290  Biso   1.000  H
  H73      1.0000 0.85000  0.41040  0.82150  Biso   1.000  H
  H74      1.0000 0.65000  0.58960  0.32150  Biso   1.000  H
  H75      1.0000 0.15000  0.91040  0.67850  Biso   1.000  H
  H76      1.0000 0.35000  0.08960  0.17850  Biso   1.000  H
  C53      1.0000 0.11170  0.32190  0.79050  Biso   1.000  C
  C54      1.0000 0.38830  0.67810  0.29050  Biso   1.000  C
  C55      1.0000 0.88830  0.82190  0.70950  Biso   1.000  C
  C56      1.0000 0.61170  0.17810  0.20950  Biso   1.000  C
  H77      1.0000 0.18470  0.30440  0.74850  Biso   1.000  H
  H78      1.0000 0.31530  0.69560  0.24850  Biso   1.000  H
  H79      1.0000 0.81530  0.80440  0.75150  Biso   1.000  H
  H80      1.0000 0.68470  0.19560  0.25150  Biso   1.000  H
  H81      1.0000 0.04330  0.26240  0.79290  Biso   1.000  H
  H82      1.0000 0.45670  0.73760  0.29290  Biso   1.000  H
  H83      1.0000 0.95670  0.76240  0.70710  Biso   1.000  H
  H84      1.0000 0.54330  0.23760  0.20710  Biso   1.000  H
  H85      1.0000 0.15470  0.33150  0.84690  Biso   1.000  H
  H86      1.0000 0.34530  0.66850  0.34690  Biso   1.000  H
  H87      1.0000 0.84530  0.83150  0.65310  Biso   1.000  H
  H88      1.0000 0.65470  0.16850  0.15310  Biso   1.000  H
