data_image0
_cell_length_a       15.93
_cell_length_b       8.702
_cell_length_c       10.602
_cell_angle_alpha    90
_cell_angle_beta     99.54
_cell_angle_gamma    90

_symmetry_space_group_name_H-M    "P 1"
_symmetry_int_tables_number       1

loop_
  _symmetry_equiv_pos_as_xyz
  'x, y, z'

loop_
  _atom_site_label
  _atom_site_occupancy
  _atom_site_fract_x
  _atom_site_fract_y
  _atom_site_fract_z
  _atom_site_thermal_displace_type
  _atom_site_B_iso_or_equiv
  _atom_site_type_symbol
  Cu1      1.0000 0.00000  0.00000  0.00000  Biso   1.000  Cu
  Cu2      1.0000 0.50000  0.50000  0.00000  Biso   1.000  Cu
  Co1      1.0000 0.00000  0.00000  0.50000  Biso   1.000  Co
  Co2      1.0000 0.50000  0.50000  0.50000  Biso   1.000  Co
  O1       1.0000 0.08639  0.00000  0.37460  Biso   1.000  O
  O2       1.0000 0.58639  0.50000  0.37460  Biso   1.000  O
  O3       1.0000 0.91361  0.00000  0.62540  Biso   1.000  O
  O4       1.0000 0.41361  0.50000  0.62540  Biso   1.000  O
  O5       1.0000 0.91370  0.00000  0.32610  Biso   1.000  O
  O6       1.0000 0.41370  0.50000  0.32610  Biso   1.000  O
  O7       1.0000 0.08630  0.00000  0.67390  Biso   1.000  O
  O8       1.0000 0.58630  0.50000  0.67390  Biso   1.000  O
  O9       1.0000 0.91649  0.00000  0.11630  Biso   1.000  O
  O10      1.0000 0.41649  0.50000  0.11630  Biso   1.000  O
  O11      1.0000 0.08351  0.00000  0.88370  Biso   1.000  O
  O12      1.0000 0.58351  0.50000  0.88370  Biso   1.000  O
  N1       1.0000 0.08380  0.00000  0.15640  Biso   1.000  N
  N2       1.0000 0.58380  0.50000  0.15640  Biso   1.000  N
  N3       1.0000 0.91620  0.00000  0.84360  Biso   1.000  N
  N4       1.0000 0.41620  0.50000  0.84360  Biso   1.000  N
  C1       1.0000 0.05010  0.00000  0.25950  Biso   1.000  C
  C2       1.0000 0.55010  0.50000  0.25950  Biso   1.000  C
  C3       1.0000 0.94990  0.00000  0.74050  Biso   1.000  C
  C4       1.0000 0.44990  0.50000  0.74050  Biso   1.000  C
  C5       1.0000 0.95170  0.00000  0.23230  Biso   1.000  C
  C6       1.0000 0.45170  0.50000  0.23230  Biso   1.000  C
  C7       1.0000 0.04830  0.00000  0.76770  Biso   1.000  C
  C8       1.0000 0.54830  0.50000  0.76770  Biso   1.000  C
  C9       1.0000 0.17520  0.00000  0.16540  Biso   1.000  C
  C10      1.0000 0.67520  0.50000  0.16540  Biso   1.000  C
  C11      1.0000 0.82480  0.00000  0.83460  Biso   1.000  C
  C12      1.0000 0.32480  0.50000  0.83460  Biso   1.000  C
  C13      1.0000 0.17100  0.29020  0.16550  Biso   1.000  C
  C14      1.0000 0.67100  0.79020  0.16550  Biso   1.000  C
  C15      1.0000 0.17100  0.70980  0.16550  Biso   1.000  C
  C16      1.0000 0.67100  0.20980  0.16550  Biso   1.000  C
  C17      1.0000 0.82900  0.70980  0.83450  Biso   1.000  C
  C18      1.0000 0.32900  0.20980  0.83450  Biso   1.000  C
  C19      1.0000 0.82900  0.29020  0.83450  Biso   1.000  C
  C20      1.0000 0.32900  0.79020  0.83450  Biso   1.000  C
  H1       1.0000 0.21060  0.37350  0.16720  Biso   1.000  H
  H2       1.0000 0.71060  0.87350  0.16720  Biso   1.000  H
  H3       1.0000 0.21060  0.62650  0.16720  Biso   1.000  H
  H4       1.0000 0.71060  0.12650  0.16720  Biso   1.000  H
  H5       1.0000 0.78940  0.62650  0.83280  Biso   1.000  H
  H6       1.0000 0.28940  0.12650  0.83280  Biso   1.000  H
  H7       1.0000 0.78940  0.37350  0.83280  Biso   1.000  H
  H8       1.0000 0.28940  0.87350  0.83280  Biso   1.000  H
  H9       1.0000 0.14330  0.29610  0.23910  Biso   1.000  H
  H10      1.0000 0.64330  0.79610  0.23910  Biso   1.000  H
  H11      1.0000 0.14330  0.70390  0.23910  Biso   1.000  H
  H12      1.0000 0.64330  0.20390  0.23910  Biso   1.000  H
  H13      1.0000 0.85670  0.70390  0.76090  Biso   1.000  H
  H14      1.0000 0.35670  0.20390  0.76090  Biso   1.000  H
  H15      1.0000 0.85670  0.29610  0.76090  Biso   1.000  H
  H16      1.0000 0.35670  0.79610  0.76090  Biso   1.000  H
  H17      1.0000 0.12920  0.29680  0.08930  Biso   1.000  H
  H18      1.0000 0.62920  0.79680  0.08930  Biso   1.000  H
  H19      1.0000 0.12920  0.70320  0.08930  Biso   1.000  H
  H20      1.0000 0.62920  0.20320  0.08930  Biso   1.000  H
  H21      1.0000 0.87080  0.70320  0.91070  Biso   1.000  H
  H22      1.0000 0.37080  0.20320  0.91070  Biso   1.000  H
  H23      1.0000 0.87080  0.29680  0.91070  Biso   1.000  H
  H24      1.0000 0.37080  0.79680  0.91070  Biso   1.000  H
  C21      1.0000 0.21790  0.13950  0.16680  Biso   1.000  C
  C22      1.0000 0.71790  0.63950  0.16680  Biso   1.000  C
  C23      1.0000 0.21790  0.86050  0.16680  Biso   1.000  C
  C24      1.0000 0.71790  0.36050  0.16680  Biso   1.000  C
  C25      1.0000 0.78210  0.86050  0.83320  Biso   1.000  C
  C26      1.0000 0.28210  0.36050  0.83320  Biso   1.000  C
  C27      1.0000 0.78210  0.13950  0.83320  Biso   1.000  C
  C28      1.0000 0.28210  0.63950  0.83320  Biso   1.000  C
  C29      1.0000 0.30600  0.13500  0.16940  Biso   1.000  C
  C30      1.0000 0.80600  0.63500  0.16940  Biso   1.000  C
  C31      1.0000 0.30600  0.86500  0.16940  Biso   1.000  C
  C32      1.0000 0.80600  0.36500  0.16940  Biso   1.000  C
  C33      1.0000 0.69400  0.86500  0.83060  Biso   1.000  C
  C34      1.0000 0.19400  0.36500  0.83060  Biso   1.000  C
  C35      1.0000 0.69400  0.13500  0.83060  Biso   1.000  C
  C36      1.0000 0.19400  0.63500  0.83060  Biso   1.000  C
  H25      1.0000 0.33560  0.22740  0.17090  Biso   1.000  H
  H26      1.0000 0.83560  0.72740  0.17090  Biso   1.000  H
  H27      1.0000 0.33560  0.77260  0.17090  Biso   1.000  H
  H28      1.0000 0.83560  0.27260  0.17090  Biso   1.000  H
  H29      1.0000 0.66440  0.77260  0.82910  Biso   1.000  H
  H30      1.0000 0.16440  0.27260  0.82910  Biso   1.000  H
  H31      1.0000 0.66440  0.22740  0.82910  Biso   1.000  H
  H32      1.0000 0.16440  0.72740  0.82910  Biso   1.000  H
  C37      1.0000 0.35050  0.00000  0.16970  Biso   1.000  C
  C38      1.0000 0.85050  0.50000  0.16970  Biso   1.000  C
  C39      1.0000 0.64950  0.00000  0.83030  Biso   1.000  C
  C40      1.0000 0.14950  0.50000  0.83030  Biso   1.000  C
  C41      1.0000 0.44650  0.00000  0.17190  Biso   1.000  C
  C42      1.0000 0.94650  0.50000  0.17190  Biso   1.000  C
  C43      1.0000 0.55350  0.00000  0.82810  Biso   1.000  C
  C44      1.0000 0.05350  0.50000  0.82810  Biso   1.000  C
  H33      1.0000 0.46660  0.10400  0.17250  Biso   1.000  H
  H34      1.0000 0.96660  0.60400  0.17250  Biso   1.000  H
  H35      1.0000 0.46660  0.89600  0.17250  Biso   1.000  H
  H36      1.0000 0.96660  0.39600  0.17250  Biso   1.000  H
  H37      1.0000 0.53340  0.89600  0.82750  Biso   1.000  H
  H38      1.0000 0.03340  0.39600  0.82750  Biso   1.000  H
  H39      1.0000 0.53340  0.10400  0.82750  Biso   1.000  H
  H40      1.0000 0.03340  0.60400  0.82750  Biso   1.000  H
  H41      1.0000 0.45910  0.94810  0.09740  Biso   1.000  H
  H42      1.0000 0.95910  0.44810  0.09740  Biso   1.000  H
  H43      1.0000 0.45910  0.05190  0.09740  Biso   1.000  H
  H44      1.0000 0.95910  0.55190  0.09740  Biso   1.000  H
  H45      1.0000 0.54090  0.05190  0.90260  Biso   1.000  H
  H46      1.0000 0.04090  0.55190  0.90260  Biso   1.000  H
  H47      1.0000 0.54090  0.94810  0.90260  Biso   1.000  H
  H48      1.0000 0.04090  0.44810  0.90260  Biso   1.000  H
  H49      1.0000 0.47410  0.94790  0.24730  Biso   1.000  H
  H50      1.0000 0.97410  0.44790  0.24730  Biso   1.000  H
  H51      1.0000 0.47410  0.05210  0.24730  Biso   1.000  H
  H52      1.0000 0.97410  0.55210  0.24730  Biso   1.000  H
  H53      1.0000 0.52590  0.05210  0.75270  Biso   1.000  H
  H54      1.0000 0.02590  0.55210  0.75270  Biso   1.000  H
  H55      1.0000 0.52590  0.94790  0.75270  Biso   1.000  H
  H56      1.0000 0.02590  0.44790  0.75270  Biso   1.000  H
  O13      1.0000 0.00000  0.75210  0.50000  Biso   1.000  O
  O14      1.0000 0.50000  0.25210  0.50000  Biso   1.000  O
  O15      1.0000 0.00000  0.24790  0.50000  Biso   1.000  O
  O16      1.0000 0.50000  0.74790  0.50000  Biso   1.000  O
  O17      1.0000 0.38150  0.00000  0.48090  Biso   1.000  O
  O18      1.0000 0.88150  0.50000  0.48090  Biso   1.000  O
  O19      1.0000 0.61850  0.00000  0.51910  Biso   1.000  O
  O20      1.0000 0.11850  0.50000  0.51910  Biso   1.000  O
  O21      1.0000 0.23060  0.07250  0.54670  Biso   1.000  O
  O22      1.0000 0.73060  0.57250  0.54670  Biso   1.000  O
  O23      1.0000 0.23060  0.92750  0.54670  Biso   1.000  O
  O24      1.0000 0.73060  0.42750  0.54670  Biso   1.000  O
  O25      1.0000 0.76940  0.92750  0.45330  Biso   1.000  O
  O26      1.0000 0.26940  0.42750  0.45330  Biso   1.000  O
  O27      1.0000 0.76940  0.07250  0.45330  Biso   1.000  O
  O28      1.0000 0.26940  0.57250  0.45330  Biso   1.000  O
