data_image0
_cell_length_a       9.007
_cell_length_b       10.557
_cell_length_c       11.554
_cell_angle_alpha    114.343
_cell_angle_beta     92.942
_cell_angle_gamma    114.516

_symmetry_space_group_name_H-M    "P 1"
_symmetry_int_tables_number       1

loop_
  _symmetry_equiv_pos_as_xyz
  'x, y, z'

loop_
  _atom_site_label
  _atom_site_occupancy
  _atom_site_fract_x
  _atom_site_fract_y
  _atom_site_fract_z
  _atom_site_thermal_displace_type
  _atom_site_B_iso_or_equiv
  _atom_site_type_symbol
  Cu1      1.0000 0.53682  0.12797  0.29982  Biso   1.000  Cu
  Cu2      1.0000 0.46318  0.87203  0.70018  Biso   1.000  Cu
  O1       1.0000 0.70664  0.20575  0.20432  Biso   1.000  O
  O2       1.0000 0.29336  0.79425  0.79568  Biso   1.000  O
  O3       1.0000 0.33514  0.89839  0.23560  Biso   1.000  O
  O4       1.0000 0.66486  0.10161  0.76440  Biso   1.000  O
  O5       1.0000 0.38301  0.84953  0.04022  Biso   1.000  O
  O6       1.0000 0.61699  0.15047  0.95978  Biso   1.000  O
  O7       1.0000 0.69373  0.09258  0.38542  Biso   1.000  O
  O8       1.0000 0.30627  0.90742  0.61458  Biso   1.000  O
  O9       1.0000 0.81184  0.01722  0.22231  Biso   1.000  O
  O10      1.0000 0.18816  0.98278  0.77769  Biso   1.000  O
  N1       1.0000 0.48957  0.23971  0.47980  Biso   1.000  N
  N2       1.0000 0.51043  0.76029  0.52020  Biso   1.000  N
  N3       1.0000 0.38158  0.19512  0.24057  Biso   1.000  N
  N4       1.0000 0.61842  0.80488  0.75943  Biso   1.000  N
  C1       1.0000 0.32580  0.16650  0.11892  Biso   1.000  C
  C2       1.0000 0.67420  0.83350  0.88108  Biso   1.000  C
  H1       1.0000 0.36600  0.11550  0.05210  Biso   1.000  H
  H2       1.0000 0.63400  0.88450  0.94790  Biso   1.000  H
  C3       1.0000 0.20870  0.21040  0.08782  Biso   1.000  C
  C4       1.0000 0.79130  0.78960  0.91218  Biso   1.000  C
  H3       1.0000 0.17150  0.18780  0.00160  Biso   1.000  H
  H4       1.0000 0.82850  0.81220  0.99840  Biso   1.000  H
  C5       1.0000 0.14960  0.28640  0.18476  Biso   1.000  C
  C6       1.0000 0.85040  0.71360  0.81524  Biso   1.000  C
  H5       1.0000 0.07190  0.31620  0.16510  Biso   1.000  H
  H6       1.0000 0.92810  0.68380  0.83490  Biso   1.000  H
  C7       1.0000 0.20720  0.31993  0.31557  Biso   1.000  C
  C8       1.0000 0.79280  0.68007  0.68443  Biso   1.000  C
  C9       1.0000 0.15290  0.39870  0.42461  Biso   1.000  C
  C10      1.0000 0.84710  0.60130  0.57539  Biso   1.000  C
  H7       1.0000 0.07720  0.43330  0.41110  Biso   1.000  H
  H8       1.0000 0.92280  0.56670  0.58890  Biso   1.000  H
  C11      1.0000 0.20960  0.42370  0.54654  Biso   1.000  C
  C12      1.0000 0.79040  0.57630  0.45346  Biso   1.000  C
  H9       1.0000 0.17320  0.47600  0.61570  Biso   1.000  H
  H10      1.0000 0.82680  0.52400  0.38430  Biso   1.000  H
  C13      1.0000 0.32500  0.37085  0.57119  Biso   1.000  C
  C14      1.0000 0.67500  0.62915  0.42881  Biso   1.000  C
  C15      1.0000 0.38440  0.38660  0.69460  Biso   1.000  C
  C16      1.0000 0.61560  0.61340  0.30540  Biso   1.000  C
  H11      1.0000 0.35130  0.43660  0.76740  Biso   1.000  H
  H12      1.0000 0.64870  0.56340  0.23260  Biso   1.000  H
  C17      1.0000 0.49030  0.32830  0.70640  Biso   1.000  C
  C18      1.0000 0.50970  0.67170  0.29360  Biso   1.000  C
  H13      1.0000 0.52880  0.33730  0.78710  Biso   1.000  H
  H14      1.0000 0.47120  0.66270  0.21290  Biso   1.000  H
  C19      1.0000 0.54110  0.25477  0.59679  Biso   1.000  C
  C20      1.0000 0.45890  0.74523  0.40321  Biso   1.000  C
  H15      1.0000 0.61330  0.21520  0.60620  Biso   1.000  H
  H16      1.0000 0.38670  0.78480  0.39380  Biso   1.000  H
  C21      1.0000 0.38229  0.29588  0.46732  Biso   1.000  C
  C22      1.0000 0.61771  0.70412  0.53268  Biso   1.000  C
  C23      1.0000 0.32269  0.27030  0.33766  Biso   1.000  C
  C24      1.0000 0.67731  0.72970  0.66234  Biso   1.000  C
  C25      1.0000 0.29947  0.81061  0.11378  Biso   1.000  C
  C26      1.0000 0.70053  0.18939  0.88622  Biso   1.000  C
  C27      1.0000 0.14447  0.64930  0.05525  Biso   1.000  C
  C28      1.0000 0.85553  0.35070  0.94475  Biso   1.000  C
  C29      1.0000 0.10300  0.54029  0.92311  Biso   1.000  C
  C30      1.0000 0.89700  0.45971  0.07689  Biso   1.000  C
  H17      1.0000 0.17190  0.56660  0.87060  Biso   1.000  H
  H18      1.0000 0.82810  0.43340  0.12940  Biso   1.000  H
  C31      1.0000 0.04010  0.60734  0.13149  Biso   1.000  C
  C32      1.0000 0.95990  0.39266  0.86851  Biso   1.000  C
  H19      1.0000 0.06600  0.67880  0.22010  Biso   1.000  H
  H20      1.0000 0.93400  0.32120  0.77990  Biso   1.000  H
  C33      1.0000 0.79386  0.04293  0.33411  Biso   1.000  C
  C34      1.0000 0.20614  0.95707  0.66589  Biso   1.000  C
  C35      1.0000 0.89892  0.01919  0.42000  Biso   1.000  C
  C36      1.0000 0.10108  0.98081  0.58000  Biso   1.000  C
  C37      1.0000 0.88449  0.04933  0.54678  Biso   1.000  C
  C38      1.0000 0.11551  0.95067  0.45322  Biso   1.000  C
  H21      1.0000 0.80690  0.08230  0.57820  Biso   1.000  H
  H22      1.0000 0.19310  0.91770  0.42180  Biso   1.000  H
  C39      1.0000 0.01532  0.96944  0.37342  Biso   1.000  C
  C40      1.0000 0.98468  0.03056  0.62658  Biso   1.000  C
  H23      1.0000 0.02560  0.94890  0.28870  Biso   1.000  H
  H24      1.0000 0.97440  0.05110  0.71130  Biso   1.000  H
  H25      1.0000 0.74170  0.15460  0.20540  Biso   1.000  H
  H26      1.0000 0.25830  0.84540  0.79460  Biso   1.000  H
  H27      1.0000 0.66290  0.18350  0.12930  Biso   1.000  H
  H28      1.0000 0.33710  0.81650  0.87070  Biso   1.000  H
