data_image0
_cell_length_a       13.2091
_cell_length_b       10.8984
_cell_length_c       9.3291
_cell_angle_alpha    90
_cell_angle_beta     98.178
_cell_angle_gamma    90

_symmetry_space_group_name_H-M    "P 1"
_symmetry_int_tables_number       1

loop_
  _symmetry_equiv_pos_as_xyz
  'x, y, z'

loop_
  _atom_site_label
  _atom_site_occupancy
  _atom_site_fract_x
  _atom_site_fract_y
  _atom_site_fract_z
  _atom_site_thermal_displace_type
  _atom_site_B_iso_or_equiv
  _atom_site_type_symbol
  Cu1      1.0000 0.00000  0.00000  0.00000  Biso   1.000  Cu
  Cu2      1.0000 0.00000  0.50000  0.50000  Biso   1.000  Cu
  O1       1.0000 0.12440  0.90660  0.06290  Biso   1.000  O
  O2       1.0000 0.12440  0.59340  0.56290  Biso   1.000  O
  O3       1.0000 0.87560  0.09340  0.93710  Biso   1.000  O
  O4       1.0000 0.87560  0.40660  0.43710  Biso   1.000  O
  H1       1.0000 0.18290  0.94770  0.05770  Biso   1.000  H
  H2       1.0000 0.18290  0.55230  0.55770  Biso   1.000  H
  H3       1.0000 0.81710  0.05230  0.94230  Biso   1.000  H
  H4       1.0000 0.81710  0.44770  0.44230  Biso   1.000  H
  H5       1.0000 0.12550  0.82980  0.02800  Biso   1.000  H
  H6       1.0000 0.12550  0.67020  0.52800  Biso   1.000  H
  H7       1.0000 0.87450  0.17020  0.97200  Biso   1.000  H
  H8       1.0000 0.87450  0.32980  0.47200  Biso   1.000  H
  C1       1.0000 0.06920  0.24680  0.09780  Biso   1.000  C
  C2       1.0000 0.06920  0.25320  0.59780  Biso   1.000  C
  C3       1.0000 0.93080  0.75320  0.90220  Biso   1.000  C
  C4       1.0000 0.93080  0.74680  0.40220  Biso   1.000  C
  O5       1.0000 0.08888  0.14620  0.04130  Biso   1.000  O
  O6       1.0000 0.08888  0.35380  0.54130  Biso   1.000  O
  O7       1.0000 0.91112  0.85380  0.95870  Biso   1.000  O
  O8       1.0000 0.91112  0.64620  0.45870  Biso   1.000  O
  C5       1.0000 0.97640  0.32290  0.09840  Biso   1.000  C
  C6       1.0000 0.97640  0.17710  0.59840  Biso   1.000  C
  C7       1.0000 0.02360  0.67710  0.90160  Biso   1.000  C
  C8       1.0000 0.02360  0.82290  0.40160  Biso   1.000  C
  O9       1.0000 0.88558  0.31220  0.04920  Biso   1.000  O
  O10      1.0000 0.88558  0.18780  0.54920  Biso   1.000  O
  O11      1.0000 0.11442  0.68780  0.95080  Biso   1.000  O
  O12      1.0000 0.11442  0.81220  0.45080  Biso   1.000  O
  C9       1.0000 0.03980  0.41520  0.18940  Biso   1.000  C
  C10      1.0000 0.03980  0.08480  0.68940  Biso   1.000  C
  C11      1.0000 0.96020  0.58480  0.81060  Biso   1.000  C
  C12      1.0000 0.96020  0.91520  0.31060  Biso   1.000  C
  O13      1.0000 0.02280  0.98637  0.74570  Biso   1.000  O
  O14      1.0000 0.02280  0.51363  0.24570  Biso   1.000  O
  O15      1.0000 0.97720  0.01363  0.25430  Biso   1.000  O
  O16      1.0000 0.97720  0.48637  0.75430  Biso   1.000  O
  C13      1.0000 0.12800  0.33550  0.18760  Biso   1.000  C
  C14      1.0000 0.12800  0.16450  0.68760  Biso   1.000  C
  C15      1.0000 0.87200  0.66450  0.81240  Biso   1.000  C
  C16      1.0000 0.87200  0.83550  0.31240  Biso   1.000  C
  N1       1.0000 0.22654  0.34140  0.25260  Biso   1.000  N
  N2       1.0000 0.22654  0.15860  0.75260  Biso   1.000  N
  N3       1.0000 0.77346  0.65860  0.74740  Biso   1.000  N
  N4       1.0000 0.77346  0.84140  0.24740  Biso   1.000  N
  C17      1.0000 0.24398  0.56290  0.22842  Biso   1.000  C
  C18      1.0000 0.24398  0.93710  0.72842  Biso   1.000  C
  C19      1.0000 0.75602  0.43710  0.77158  Biso   1.000  C
  C20      1.0000 0.75602  0.06290  0.27158  Biso   1.000  C
  H9       1.0000 0.20126  0.55955  0.14021  Biso   1.000  H
  H10      1.0000 0.20126  0.94045  0.64021  Biso   1.000  H
  H11      1.0000 0.79874  0.44045  0.85979  Biso   1.000  H
  H12      1.0000 0.79874  0.05955  0.35979  Biso   1.000  H
  C21      1.0000 0.28371  0.67476  0.28140  Biso   1.000  C
  C22      1.0000 0.28371  0.82524  0.78140  Biso   1.000  C
  C23      1.0000 0.71629  0.32524  0.71860  Biso   1.000  C
  C24      1.0000 0.71629  0.17476  0.21860  Biso   1.000  C
  H13      1.0000 0.26760  0.74625  0.22860  Biso   1.000  H
  H14      1.0000 0.26760  0.75375  0.72860  Biso   1.000  H
  H15      1.0000 0.73240  0.25375  0.77140  Biso   1.000  H
  H16      1.0000 0.73240  0.24625  0.27140  Biso   1.000  H
  C25      1.0000 0.34755  0.67978  0.41330  Biso   1.000  C
  C26      1.0000 0.34755  0.82022  0.91330  Biso   1.000  C
  C27      1.0000 0.65245  0.32022  0.58670  Biso   1.000  C
  C28      1.0000 0.65245  0.17978  0.08670  Biso   1.000  C
  H17      1.0000 0.37410  0.75462  0.44870  Biso   1.000  H
  H18      1.0000 0.37410  0.74538  0.94870  Biso   1.000  H
  H19      1.0000 0.62590  0.24538  0.55130  Biso   1.000  H
  H20      1.0000 0.62590  0.25462  0.05130  Biso   1.000  H
  C29      1.0000 0.37168  0.57293  0.49212  Biso   1.000  C
  C30      1.0000 0.37168  0.92707  0.99212  Biso   1.000  C
  C31      1.0000 0.62832  0.42707  0.50788  Biso   1.000  C
  C32      1.0000 0.62832  0.07293  0.00788  Biso   1.000  C
  H21      1.0000 0.41440  0.57630  0.58030  Biso   1.000  H
  H22      1.0000 0.41440  0.92370  0.08030  Biso   1.000  H
  H23      1.0000 0.58560  0.42370  0.41970  Biso   1.000  H
  H24      1.0000 0.58560  0.07630  0.91970  Biso   1.000  H
  C33      1.0000 0.33195  0.46107  0.43914  Biso   1.000  C
  C34      1.0000 0.33195  0.03893  0.93914  Biso   1.000  C
  C35      1.0000 0.66805  0.53893  0.56086  Biso   1.000  C
  C36      1.0000 0.66805  0.96107  0.06086  Biso   1.000  C
  H25      1.0000 0.34810  0.38959  0.49190  Biso   1.000  H
  H26      1.0000 0.34810  0.11041  0.99190  Biso   1.000  H
  H27      1.0000 0.65190  0.61041  0.50810  Biso   1.000  H
  H28      1.0000 0.65190  0.88959  0.00810  Biso   1.000  H
  C37      1.0000 0.26810  0.45606  0.30729  Biso   1.000  C
  C38      1.0000 0.26810  0.04394  0.80729  Biso   1.000  C
  C39      1.0000 0.73190  0.54394  0.69271  Biso   1.000  C
  C40      1.0000 0.73190  0.95606  0.19271  Biso   1.000  C
  C41      1.0000 0.38840  0.23123  0.27230  Biso   1.000  C
  C42      1.0000 0.38840  0.26877  0.77230  Biso   1.000  C
  C43      1.0000 0.61160  0.76877  0.72770  Biso   1.000  C
  C44      1.0000 0.61160  0.73123  0.22770  Biso   1.000  C
  H29      1.0000 0.41945  0.30125  0.24170  Biso   1.000  H
  H30      1.0000 0.41945  0.19875  0.74170  Biso   1.000  H
  H31      1.0000 0.58055  0.69875  0.75830  Biso   1.000  H
  H32      1.0000 0.58055  0.80125  0.25830  Biso   1.000  H
  C45      1.0000 0.44596  0.12597  0.30770  Biso   1.000  C
  C46      1.0000 0.44596  0.37403  0.80770  Biso   1.000  C
  C47      1.0000 0.55404  0.87403  0.69230  Biso   1.000  C
  C48      1.0000 0.55404  0.62597  0.19230  Biso   1.000  C
  H33      1.0000 0.51552  0.12560  0.30090  Biso   1.000  H
  H34      1.0000 0.51552  0.37440  0.80090  Biso   1.000  H
  H35      1.0000 0.48448  0.87440  0.69910  Biso   1.000  H
  H36      1.0000 0.48448  0.62560  0.19910  Biso   1.000  H
  C49      1.0000 0.39956  0.02132  0.35340  Biso   1.000  C
  C50      1.0000 0.39956  0.47868  0.85340  Biso   1.000  C
  C51      1.0000 0.60044  0.97868  0.64660  Biso   1.000  C
  C52      1.0000 0.60044  0.52132  0.14660  Biso   1.000  C
  H37      1.0000 0.43807  0.95089  0.37710  Biso   1.000  H
  H38      1.0000 0.43807  0.54911  0.87710  Biso   1.000  H
  H39      1.0000 0.56193  0.04911  0.62290  Biso   1.000  H
  H40      1.0000 0.56193  0.45089  0.12290  Biso   1.000  H
  C53      1.0000 0.29560  0.02194  0.36360  Biso   1.000  C
  C54      1.0000 0.29560  0.47806  0.86360  Biso   1.000  C
  C55      1.0000 0.70440  0.97806  0.63640  Biso   1.000  C
  C56      1.0000 0.70440  0.52194  0.13640  Biso   1.000  C
  H41      1.0000 0.26455  0.95192  0.39410  Biso   1.000  H
  H42      1.0000 0.26455  0.54808  0.89410  Biso   1.000  H
  H43      1.0000 0.73545  0.04808  0.60590  Biso   1.000  H
  H44      1.0000 0.73545  0.45192  0.10590  Biso   1.000  H
  C57      1.0000 0.23804  0.12720  0.32810  Biso   1.000  C
  C58      1.0000 0.23804  0.37280  0.82810  Biso   1.000  C
  C59      1.0000 0.76196  0.87280  0.67190  Biso   1.000  C
  C60      1.0000 0.76196  0.62720  0.17190  Biso   1.000  C
  H45      1.0000 0.16848  0.12760  0.33490  Biso   1.000  H
  H46      1.0000 0.16848  0.37240  0.83490  Biso   1.000  H
  H47      1.0000 0.83152  0.87240  0.66510  Biso   1.000  H
  H48      1.0000 0.83152  0.62760  0.16510  Biso   1.000  H
  C61      1.0000 0.28444  0.23185  0.28240  Biso   1.000  C
  C62      1.0000 0.28444  0.26815  0.78240  Biso   1.000  C
  C63      1.0000 0.71556  0.76815  0.71760  Biso   1.000  C
  C64      1.0000 0.71556  0.73185  0.21760  Biso   1.000  C
