data_image0
_cell_length_a       12.6992
_cell_length_b       5.801
_cell_length_c       13.5977
_cell_angle_alpha    90
_cell_angle_beta     115.89
_cell_angle_gamma    90

_symmetry_space_group_name_H-M    "P 1"
_symmetry_int_tables_number       1

loop_
  _symmetry_equiv_pos_as_xyz
  'x, y, z'

loop_
  _atom_site_label
  _atom_site_occupancy
  _atom_site_fract_x
  _atom_site_fract_y
  _atom_site_fract_z
  _atom_site_thermal_displace_type
  _atom_site_B_iso_or_equiv
  _atom_site_type_symbol
  Cu1      1.0000 0.00000  0.00000  0.00000  Biso   1.000  Cu
  Cu2      1.0000 0.50000  0.50000  0.50000  Biso   1.000  Cu
  O1       1.0000 0.08521  0.27410  0.06280  Biso   1.000  O
  O2       1.0000 0.41479  0.77410  0.43720  Biso   1.000  O
  O3       1.0000 0.91479  0.72590  0.93720  Biso   1.000  O
  O4       1.0000 0.58521  0.22590  0.56280  Biso   1.000  O
  O5       1.0000 0.16721  0.48380  0.21399  Biso   1.000  O
  O6       1.0000 0.33279  0.98380  0.28601  Biso   1.000  O
  O7       1.0000 0.83279  0.51620  0.78601  Biso   1.000  O
  O8       1.0000 0.66721  0.01620  0.71399  Biso   1.000  O
  O9       1.0000 0.31580  0.27710  0.42064  Biso   1.000  O
  O10      1.0000 0.18420  0.77710  0.07936  Biso   1.000  O
  O11      1.0000 0.68420  0.72290  0.57936  Biso   1.000  O
  O12      1.0000 0.81580  0.22290  0.92064  Biso   1.000  O
  H1       1.0000 0.31450  0.18070  0.37600  Biso   1.000  H
  H2       1.0000 0.18550  0.68070  0.12400  Biso   1.000  H
  H3       1.0000 0.68550  0.81930  0.62400  Biso   1.000  H
  H4       1.0000 0.81450  0.31930  0.87600  Biso   1.000  H
  O13      1.0000 0.18895  0.43560  0.47155  Biso   1.000  O
  O14      1.0000 0.31105  0.93560  0.02845  Biso   1.000  O
  O15      1.0000 0.81105  0.56440  0.52845  Biso   1.000  O
  O16      1.0000 0.68895  0.06440  0.97155  Biso   1.000  O
  N1       1.0000 0.00494  0.97090  0.15798  Biso   1.000  N
  N2       1.0000 0.49506  0.47090  0.34202  Biso   1.000  N
  N3       1.0000 0.99506  0.02910  0.84202  Biso   1.000  N
  N4       1.0000 0.50494  0.52910  0.65798  Biso   1.000  N
  C1       1.0000 0.07883  0.12850  0.22264  Biso   1.000  C
  C2       1.0000 0.42117  0.62850  0.27736  Biso   1.000  C
  C3       1.0000 0.92117  0.87150  0.77736  Biso   1.000  C
  C4       1.0000 0.57883  0.37150  0.72264  Biso   1.000  C
  C5       1.0000 0.11626  0.13910  0.33710  Biso   1.000  C
  C6       1.0000 0.38374  0.63910  0.16290  Biso   1.000  C
  C7       1.0000 0.88374  0.86090  0.66290  Biso   1.000  C
  C8       1.0000 0.61626  0.36090  0.83710  Biso   1.000  C
  C9       1.0000 0.06852  0.98380  0.38207  Biso   1.000  C
  C10      1.0000 0.43148  0.48380  0.11793  Biso   1.000  C
  C11      1.0000 0.93148  0.01620  0.61793  Biso   1.000  C
  C12      1.0000 0.56852  0.51620  0.88207  Biso   1.000  C
  H5       1.0000 0.09080  0.98690  0.45690  Biso   1.000  H
  H6       1.0000 0.40920  0.48690  0.04310  Biso   1.000  H
  H7       1.0000 0.90920  0.01310  0.54310  Biso   1.000  H
  H8       1.0000 0.59080  0.51310  0.95690  Biso   1.000  H
  C13      1.0000 0.98628  0.81970  0.31661  Biso   1.000  C
  C14      1.0000 0.51372  0.31970  0.18339  Biso   1.000  C
  C15      1.0000 0.01372  0.18030  0.68339  Biso   1.000  C
  C16      1.0000 0.48628  0.68030  0.81661  Biso   1.000  C
  C17      1.0000 0.93400  0.65850  0.36023  Biso   1.000  C
  C18      1.0000 0.56600  0.15850  0.13977  Biso   1.000  C
  C19      1.0000 0.06600  0.34150  0.63977  Biso   1.000  C
  C20      1.0000 0.43400  0.84150  0.86023  Biso   1.000  C
  H9       1.0000 0.95150  0.66410  0.43410  Biso   1.000  H
  H10      1.0000 0.54850  0.16410  0.06590  Biso   1.000  H
  H11      1.0000 0.04850  0.33590  0.56590  Biso   1.000  H
  H12      1.0000 0.45150  0.83590  0.93410  Biso   1.000  H
  C21      1.0000 0.85857  0.49600  0.29536  Biso   1.000  C
  C22      1.0000 0.64143  0.99600  0.20464  Biso   1.000  C
  C23      1.0000 0.14143  0.50400  0.70464  Biso   1.000  C
  C24      1.0000 0.35857  0.00400  0.79536  Biso   1.000  C
  H13      1.0000 0.82440  0.39170  0.32470  Biso   1.000  H
  H14      1.0000 0.67560  0.89170  0.17530  Biso   1.000  H
  H15      1.0000 0.17560  0.60830  0.67530  Biso   1.000  H
  H16      1.0000 0.32440  0.10830  0.82470  Biso   1.000  H
  C25      1.0000 0.83238  0.48600  0.18358  Biso   1.000  C
  C26      1.0000 0.66762  0.98600  0.31642  Biso   1.000  C
  C27      1.0000 0.16762  0.51400  0.81642  Biso   1.000  C
  C28      1.0000 0.33238  0.01400  0.68358  Biso   1.000  C
  H17      1.0000 0.78250  0.37140  0.14020  Biso   1.000  H
  H18      1.0000 0.71750  0.87140  0.35980  Biso   1.000  H
  H19      1.0000 0.21750  0.62860  0.85980  Biso   1.000  H
  H20      1.0000 0.28250  0.12860  0.64020  Biso   1.000  H
  C29      1.0000 0.87865  0.64140  0.13720  Biso   1.000  C
  C30      1.0000 0.62135  0.14140  0.36280  Biso   1.000  C
  C31      1.0000 0.12135  0.35860  0.86280  Biso   1.000  C
  C32      1.0000 0.37865  0.85860  0.63720  Biso   1.000  C
  H21      1.0000 0.85850  0.63400  0.06280  Biso   1.000  H
  H22      1.0000 0.64150  0.13400  0.43720  Biso   1.000  H
  H23      1.0000 0.14150  0.36600  0.93720  Biso   1.000  H
  H24      1.0000 0.35850  0.86600  0.56280  Biso   1.000  H
  C33      1.0000 0.95706  0.81290  0.20270  Biso   1.000  C
  C34      1.0000 0.54294  0.31290  0.29730  Biso   1.000  C
  C35      1.0000 0.04294  0.18710  0.79730  Biso   1.000  C
  C36      1.0000 0.45706  0.68710  0.70270  Biso   1.000  C
  C37      1.0000 0.11494  0.30930  0.16333  Biso   1.000  C
  C38      1.0000 0.38506  0.80930  0.33667  Biso   1.000  C
  C39      1.0000 0.88506  0.69070  0.83667  Biso   1.000  C
  C40      1.0000 0.61494  0.19070  0.66333  Biso   1.000  C
  C41      1.0000 0.20851  0.30360  0.41312  Biso   1.000  C
  C42      1.0000 0.29149  0.80360  0.08688  Biso   1.000  C
  C43      1.0000 0.79149  0.69640  0.58688  Biso   1.000  C
  C44      1.0000 0.70851  0.19640  0.91312  Biso   1.000  C
