data_image0
_cell_length_a       5.03
_cell_length_b       7.64
_cell_length_c       10.18
_cell_angle_alpha    74.15
_cell_angle_beta     77.39
_cell_angle_gamma    83.77

_symmetry_space_group_name_H-M    "P 1"
_symmetry_int_tables_number       1

loop_
  _symmetry_equiv_pos_as_xyz
  'x, y, z'

loop_
  _atom_site_label
  _atom_site_occupancy
  _atom_site_fract_x
  _atom_site_fract_y
  _atom_site_fract_z
  _atom_site_thermal_displace_type
  _atom_site_B_iso_or_equiv
  _atom_site_type_symbol
  Cu1      1.0000 0.00000  0.00000  0.00000  Biso   1.000  Cu
  N1       1.0000 0.31120  0.88750  0.88830  Biso   1.000  N
  N2       1.0000 0.68880  0.11250  0.11170  Biso   1.000  N
  N3       1.0000 0.51110  0.77850  0.94250  Biso   1.000  N
  N4       1.0000 0.48890  0.22150  0.05750  Biso   1.000  N
  H1       1.0000 0.51000  0.75600  0.03400  Biso   1.000  H
  H2       1.0000 0.49000  0.24400  0.96600  Biso   1.000  H
  C1       1.0000 0.69070  0.71970  0.84460  Biso   1.000  C
  C2       1.0000 0.30930  0.28030  0.15540  Biso   1.000  C
  H3       1.0000 0.84100  0.64300  0.86700  Biso   1.000  H
  H4       1.0000 0.15900  0.35700  0.13300  Biso   1.000  H
  C3       1.0000 0.60830  0.79280  0.72120  Biso   1.000  C
  C4       1.0000 0.39170  0.20720  0.27880  Biso   1.000  C
  H5       1.0000 0.69000  0.77200  0.63400  Biso   1.000  H
  H6       1.0000 0.31000  0.22800  0.36600  Biso   1.000  H
  C5       1.0000 0.37270  0.89540  0.75320  Biso   1.000  C
  C6       1.0000 0.62730  0.10460  0.24680  Biso   1.000  C
  H7       1.0000 0.25900  0.96600  0.69500  Biso   1.000  H
  H8       1.0000 0.74100  0.03400  0.30500  Biso   1.000  H
  O1       1.0000 0.89900  0.14990  0.82990  Biso   1.000  O
  O2       1.0000 0.10100  0.85010  0.17010  Biso   1.000  O
  O3       1.0000 0.19840  0.33690  0.84070  Biso   1.000  O
  O4       1.0000 0.80160  0.66310  0.15930  Biso   1.000  O
  C7       1.0000 0.04350  0.29040  0.77970  Biso   1.000  C
  C8       1.0000 0.95650  0.70960  0.22030  Biso   1.000  C
  C9       1.0000 0.01860  0.39960  0.63410  Biso   1.000  C
  C10      1.0000 0.98140  0.60040  0.36590  Biso   1.000  C
  C11      1.0000 0.17460  0.54910  0.56990  Biso   1.000  C
  C12      1.0000 0.82540  0.45090  0.43010  Biso   1.000  C
  H9       1.0000 0.29300  0.58100  0.61600  Biso   1.000  H
  H10      1.0000 0.70700  0.41900  0.38400  Biso   1.000  H
  C13      1.0000 0.84240  0.34980  0.56450  Biso   1.000  C
  C14      1.0000 0.15760  0.65020  0.43550  Biso   1.000  C
  H11      1.0000 0.72400  0.25300  0.61100  Biso   1.000  H
  H12      1.0000 0.27600  0.74700  0.38900  Biso   1.000  H
