data_image0
_cell_length_a       8.458
_cell_length_b       10.615
_cell_length_c       11.5384
_cell_angle_alpha    117.056
_cell_angle_beta     89.986
_cell_angle_gamma    113.448

_symmetry_space_group_name_H-M    "P 1"
_symmetry_int_tables_number       1

loop_
  _symmetry_equiv_pos_as_xyz
  'x, y, z'

loop_
  _atom_site_label
  _atom_site_occupancy
  _atom_site_fract_x
  _atom_site_fract_y
  _atom_site_fract_z
  _atom_site_thermal_displace_type
  _atom_site_B_iso_or_equiv
  _atom_site_type_symbol
  Cu1      1.0000 0.18218  0.00001  0.25003  Biso   1.000  Cu
  Cu2      1.0000 0.81782  0.99999  0.74997  Biso   1.000  Cu
  N1       1.0000 0.27790  0.83320  0.17230  Biso   1.000  N
  N2       1.0000 0.72210  0.16680  0.82770  Biso   1.000  N
  C1       1.0000 0.19800  0.70780  0.20810  Biso   1.000  C
  C2       1.0000 0.80200  0.29220  0.79190  Biso   1.000  C
  H1       1.0000 0.21580  0.75480  0.30340  Biso   1.000  H
  H2       1.0000 0.78420  0.24520  0.69660  Biso   1.000  H
  H3       1.0000 0.25280  0.63810  0.17540  Biso   1.000  H
  H4       1.0000 0.74720  0.36190  0.82460  Biso   1.000  H
  H5       1.0000 0.07370  0.64880  0.16880  Biso   1.000  H
  H6       1.0000 0.92630  0.35120  0.83120  Biso   1.000  H
  C3       1.0000 0.24660  0.75470  0.02590  Biso   1.000  C
  C4       1.0000 0.75340  0.24530  0.97410  Biso   1.000  C
  H7       1.0000 0.12180  0.69860  0.98850  Biso   1.000  H
  H8       1.0000 0.87820  0.30140  0.01150  Biso   1.000  H
  H9       1.0000 0.29690  0.68160  0.99460  Biso   1.000  H
  H10      1.0000 0.70310  0.31840  0.00540  Biso   1.000  H
  H11      1.0000 0.30070  0.83250  0.99900  Biso   1.000  H
  H12      1.0000 0.69930  0.16750  0.00100  Biso   1.000  H
  C5       1.0000 0.46840  0.92180  0.23680  Biso   1.000  C
  C6       1.0000 0.53160  0.07820  0.76320  Biso   1.000  C
  H13      1.0000 0.48320  0.92210  0.32030  Biso   1.000  H
  H14      1.0000 0.51680  0.07790  0.67970  Biso   1.000  H
  H15      1.0000 0.53010  0.86670  0.17980  Biso   1.000  H
  H16      1.0000 0.46990  0.13330  0.82020  Biso   1.000  H
  N3       1.0000 0.44480  0.16690  0.32830  Biso   1.000  N
  N4       1.0000 0.55520  0.83310  0.67170  Biso   1.000  N
  C7       1.0000 0.54680  0.07790  0.26260  Biso   1.000  C
  C8       1.0000 0.45320  0.92210  0.73740  Biso   1.000  C
  H17      1.0000 0.56060  0.07770  0.17900  Biso   1.000  H
  H18      1.0000 0.43940  0.92230  0.82100  Biso   1.000  H
  H19      1.0000 0.66390  0.13260  0.31910  Biso   1.000  H
  H20      1.0000 0.33610  0.86740  0.68090  Biso   1.000  H
  C9       1.0000 0.49010  0.29240  0.29210  Biso   1.000  C
  C10      1.0000 0.50990  0.70760  0.70790  Biso   1.000  C
  H21      1.0000 0.45970  0.24500  0.19680  Biso   1.000  H
  H22      1.0000 0.54030  0.75500  0.80320  Biso   1.000  H
  H23      1.0000 0.61450  0.36160  0.32400  Biso   1.000  H
  H24      1.0000 0.38550  0.63840  0.67600  Biso   1.000  H
  H25      1.0000 0.42530  0.35190  0.33200  Biso   1.000  H
  H26      1.0000 0.57470  0.64810  0.66800  Biso   1.000  H
  C11      1.0000 0.49260  0.24510  0.47380  Biso   1.000  C
  C12      1.0000 0.50740  0.75490  0.52620  Biso   1.000  C
  H27      1.0000 0.46610  0.16700  0.50090  Biso   1.000  H
  H28      1.0000 0.53390  0.83300  0.49910  Biso   1.000  H
  H29      1.0000 0.42640  0.30370  0.51160  Biso   1.000  H
  H30      1.0000 0.57360  0.69630  0.48840  Biso   1.000  H
  H31      1.0000 0.61670  0.31580  0.50450  Biso   1.000  H
  H32      1.0000 0.38330  0.68420  0.49550  Biso   1.000  H
  O1       1.0000 0.94160  0.83360  0.15300  Biso   1.000  O
  O2       1.0000 0.05840  0.16640  0.84700  Biso   1.000  O
  O3       1.0000 0.83840  0.77760  0.31100  Biso   1.000  O
  O4       1.0000 0.16160  0.22240  0.68900  Biso   1.000  O
  C13      1.0000 0.82430  0.75600  0.19500  Biso   1.000  C
  C14      1.0000 0.17570  0.24400  0.80500  Biso   1.000  C
  C15      1.0000 0.65660  0.62380  0.09310  Biso   1.000  C
  C16      1.0000 0.34340  0.37620  0.90690  Biso   1.000  C
  C17      1.0000 0.63030  0.59330  0.96170  Biso   1.000  C
  C18      1.0000 0.36970  0.40670  0.03830  Biso   1.000  C
  H33      1.0000 0.71750  0.65550  0.93560  Biso   1.000  H
  H34      1.0000 0.28250  0.34450  0.06440  Biso   1.000  H
  C19      1.0000 0.52460  0.52920  0.13010  Biso   1.000  C
  C20      1.0000 0.47540  0.47080  0.86990  Biso   1.000  C
  H35      1.0000 0.54060  0.54820  0.21730  Biso   1.000  H
  H36      1.0000 0.45940  0.45180  0.78270  Biso   1.000  H
  O5       1.0000 0.10780  0.16630  0.34720  Biso   1.000  O
  O6       1.0000 0.89220  0.83370  0.65280  Biso   1.000  O
  O7       1.0000 0.06080  0.22230  0.18890  Biso   1.000  O
  O8       1.0000 0.93920  0.77770  0.81110  Biso   1.000  O
  C21      1.0000 0.06850  0.24390  0.30470  Biso   1.000  C
  C22      1.0000 0.93150  0.75610  0.69530  Biso   1.000  C
  C23      1.0000 0.03270  0.37670  0.40740  Biso   1.000  C
  C24      1.0000 0.96730  0.62330  0.59260  Biso   1.000  C
  C25      1.0000 0.03660  0.40660  0.53860  Biso   1.000  C
  C26      1.0000 0.96340  0.59340  0.46140  Biso   1.000  C
  H37      1.0000 0.06090  0.34400  0.56460  Biso   1.000  H
  H38      1.0000 0.93910  0.65600  0.43540  Biso   1.000  H
  C27      1.0000 0.99570  0.47110  0.37020  Biso   1.000  C
  C28      1.0000 0.00430  0.52890  0.62980  Biso   1.000  C
  H39      1.0000 0.99260  0.45170  0.28290  Biso   1.000  H
  H40      1.0000 0.00740  0.54830  0.71710  Biso   1.000  H
  O9       1.0000 0.21000  0.03090  0.03800  Biso   1.000  O
  O10      1.0000 0.79000  0.96910  0.96200  Biso   1.000  O
  O11      1.0000 0.17850  0.96900  0.46210  Biso   1.000  O
  O12      1.0000 0.82150  0.03100  0.53790  Biso   1.000  O
