data_image0
_cell_length_a       7.112
_cell_length_b       14.676
_cell_length_c       12.145
_cell_angle_alpha    90
_cell_angle_beta     96.65
_cell_angle_gamma    90

_symmetry_space_group_name_H-M    "P 1"
_symmetry_int_tables_number       1

loop_
  _symmetry_equiv_pos_as_xyz
  'x, y, z'

loop_
  _atom_site_label
  _atom_site_occupancy
  _atom_site_fract_x
  _atom_site_fract_y
  _atom_site_fract_z
  _atom_site_thermal_displace_type
  _atom_site_B_iso_or_equiv
  _atom_site_type_symbol
  Cu1      1.0000 0.88859  0.92232  0.11124  Biso   1.000  Cu
  Cu2      1.0000 0.38859  0.57768  0.61124  Biso   1.000  Cu
  Cu3      1.0000 0.11141  0.07768  0.88876  Biso   1.000  Cu
  Cu4      1.0000 0.61141  0.42232  0.38876  Biso   1.000  Cu
  O1       1.0000 0.05490  0.88927  0.99365  Biso   1.000  O
  O2       1.0000 0.55490  0.61073  0.49365  Biso   1.000  O
  O3       1.0000 0.94510  0.11073  0.00635  Biso   1.000  O
  O4       1.0000 0.44510  0.38927  0.50635  Biso   1.000  O
  O5       1.0000 0.04500  0.80587  0.83820  Biso   1.000  O
  O6       1.0000 0.54500  0.69413  0.33820  Biso   1.000  O
  O7       1.0000 0.95500  0.19413  0.16180  Biso   1.000  O
  O8       1.0000 0.45500  0.30587  0.66180  Biso   1.000  O
  O9       1.0000 0.77310  0.72442  0.70750  Biso   1.000  O
  O10      1.0000 0.27310  0.77558  0.20750  Biso   1.000  O
  O11      1.0000 0.22690  0.27558  0.29250  Biso   1.000  O
  O12      1.0000 0.72690  0.22442  0.79250  Biso   1.000  O
  H1       1.0000 0.85850  0.74670  0.75020  Biso   1.000  H
  H2       1.0000 0.35850  0.75330  0.25020  Biso   1.000  H
  H3       1.0000 0.14150  0.25330  0.24980  Biso   1.000  H
  H4       1.0000 0.64150  0.24670  0.74980  Biso   1.000  H
  O13      1.0000 0.45370  0.71656  0.69586  Biso   1.000  O
  O14      1.0000 0.95370  0.78344  0.19586  Biso   1.000  O
  O15      1.0000 0.54630  0.28344  0.30414  Biso   1.000  O
  O16      1.0000 0.04630  0.21656  0.80414  Biso   1.000  O
  N1       1.0000 0.44360  0.82104  0.88740  Biso   1.000  N
  N2       1.0000 0.94360  0.67896  0.38740  Biso   1.000  N
  N3       1.0000 0.55640  0.17896  0.11260  Biso   1.000  N
  N4       1.0000 0.05640  0.32104  0.61260  Biso   1.000  N
  H5       1.0000 0.33090  0.80650  0.85950  Biso   1.000  H
  H6       1.0000 0.83090  0.69350  0.35950  Biso   1.000  H
  H7       1.0000 0.66910  0.19350  0.14050  Biso   1.000  H
  H8       1.0000 0.16910  0.30650  0.64050  Biso   1.000  H
  N5       1.0000 0.68000  0.87938  0.99970  Biso   1.000  N
  N6       1.0000 0.18000  0.62062  0.49970  Biso   1.000  N
  N7       1.0000 0.32000  0.12062  0.00030  Biso   1.000  N
  N8       1.0000 0.82000  0.37938  0.50030  Biso   1.000  N
  C1       1.0000 0.49030  0.86670  0.98250  Biso   1.000  C
  C2       1.0000 0.99030  0.63330  0.48250  Biso   1.000  C
  C3       1.0000 0.50970  0.13330  0.01750  Biso   1.000  C
  C4       1.0000 0.00970  0.36670  0.51750  Biso   1.000  C
  H9       1.0000 0.40480  0.88660  0.02960  Biso   1.000  H
  H10      1.0000 0.90480  0.61340  0.52960  Biso   1.000  H
  H11      1.0000 0.59520  0.11340  0.97040  Biso   1.000  H
  H12      1.0000 0.09520  0.38660  0.47040  Biso   1.000  H
  C5       1.0000 0.75600  0.83890  0.91290  Biso   1.000  C
  C6       1.0000 0.25600  0.66110  0.41290  Biso   1.000  C
  C7       1.0000 0.24400  0.16110  0.08710  Biso   1.000  C
  C8       1.0000 0.74400  0.33890  0.58710  Biso   1.000  C
  C9       1.0000 0.60960  0.80150  0.84210  Biso   1.000  C
  C10      1.0000 0.10960  0.69850  0.34210  Biso   1.000  C
  C11      1.0000 0.39040  0.19850  0.15790  Biso   1.000  C
  C12      1.0000 0.89040  0.30150  0.65790  Biso   1.000  C
  C13      1.0000 0.96740  0.84370  0.91380  Biso   1.000  C
  C14      1.0000 0.46740  0.65630  0.41380  Biso   1.000  C
  C15      1.0000 0.03260  0.15630  0.08620  Biso   1.000  C
  C16      1.0000 0.53260  0.34370  0.58620  Biso   1.000  C
  C17      1.0000 0.60670  0.74470  0.74180  Biso   1.000  C
  C18      1.0000 0.10670  0.75530  0.24180  Biso   1.000  C
  C19      1.0000 0.39330  0.25530  0.25820  Biso   1.000  C
  C20      1.0000 0.89330  0.24470  0.75820  Biso   1.000  C
  O17      1.0000 0.10170  0.98041  0.21053  Biso   1.000  O
  O18      1.0000 0.60170  0.51959  0.71053  Biso   1.000  O
  O19      1.0000 0.89830  0.01959  0.78947  Biso   1.000  O
  O20      1.0000 0.39830  0.48041  0.28947  Biso   1.000  O
  O21      1.0000 0.15980  0.05968  0.36885  Biso   1.000  O
  O22      1.0000 0.65980  0.44032  0.86885  Biso   1.000  O
  O23      1.0000 0.84020  0.94032  0.63115  Biso   1.000  O
  O24      1.0000 0.34020  0.55968  0.13115  Biso   1.000  O
  O25      1.0000 0.94200  0.13450  0.50740  Biso   1.000  O
  O26      1.0000 0.44200  0.36550  0.00740  Biso   1.000  O
  O27      1.0000 0.05800  0.86550  0.49260  Biso   1.000  O
  O28      1.0000 0.55800  0.63450  0.99260  Biso   1.000  O
  H13      1.0000 0.00630  0.12000  0.45830  Biso   1.000  H
  H14      1.0000 0.50630  0.38000  0.95830  Biso   1.000  H
  H15      1.0000 0.99370  0.88000  0.54170  Biso   1.000  H
  H16      1.0000 0.49370  0.62000  0.04170  Biso   1.000  H
  O29      1.0000 0.62840  0.13290  0.52920  Biso   1.000  O
  O30      1.0000 0.12840  0.36710  0.02920  Biso   1.000  O
  O31      1.0000 0.37160  0.86710  0.47080  Biso   1.000  O
  O32      1.0000 0.87160  0.63290  0.97080  Biso   1.000  O
  N9       1.0000 0.54080  0.02622  0.33680  Biso   1.000  N
  N10      1.0000 0.04080  0.47378  0.83680  Biso   1.000  N
  N11      1.0000 0.45920  0.97378  0.66320  Biso   1.000  N
  N12      1.0000 0.95920  0.52622  0.16320  Biso   1.000  N
  H17      1.0000 0.44010  0.03920  0.36650  Biso   1.000  H
  H18      1.0000 0.94010  0.46080  0.86650  Biso   1.000  H
  H19      1.0000 0.55990  0.96080  0.63350  Biso   1.000  H
  H20      1.0000 0.05990  0.53920  0.13350  Biso   1.000  H
  N13      1.0000 0.72950  0.97006  0.22180  Biso   1.000  N
  N14      1.0000 0.22950  0.52994  0.72180  Biso   1.000  N
  N15      1.0000 0.27050  0.02994  0.77820  Biso   1.000  N
  N16      1.0000 0.77050  0.47006  0.27820  Biso   1.000  N
  C21      1.0000 0.54880  0.97580  0.24570  Biso   1.000  C
  C22      1.0000 0.04880  0.52420  0.74570  Biso   1.000  C
  C23      1.0000 0.45120  0.02420  0.75430  Biso   1.000  C
  C24      1.0000 0.95120  0.47580  0.25430  Biso   1.000  C
  H21      1.0000 0.44520  0.94860  0.20480  Biso   1.000  H
  H22      1.0000 0.94520  0.55140  0.70480  Biso   1.000  H
  H23      1.0000 0.55480  0.05140  0.79520  Biso   1.000  H
  H24      1.0000 0.05480  0.44860  0.29520  Biso   1.000  H
  C25      1.0000 0.83870  0.01830  0.30270  Biso   1.000  C
  C26      1.0000 0.33870  0.48170  0.80270  Biso   1.000  C
  C27      1.0000 0.16130  0.98170  0.69730  Biso   1.000  C
  C28      1.0000 0.66130  0.51830  0.19730  Biso   1.000  C
  C29      1.0000 0.72350  0.05390  0.37520  Biso   1.000  C
  C30      1.0000 0.22350  0.44610  0.87520  Biso   1.000  C
  C31      1.0000 0.27650  0.94610  0.62480  Biso   1.000  C
  C32      1.0000 0.77650  0.55390  0.12480  Biso   1.000  C
  C33      1.0000 0.04820  0.02020  0.29560  Biso   1.000  C
  C34      1.0000 0.54820  0.47980  0.79560  Biso   1.000  C
  C35      1.0000 0.95180  0.97980  0.70440  Biso   1.000  C
  C36      1.0000 0.45180  0.52020  0.20440  Biso   1.000  C
  C37      1.0000 0.75920  0.11050  0.47710  Biso   1.000  C
  C38      1.0000 0.25920  0.38950  0.97710  Biso   1.000  C
  C39      1.0000 0.24080  0.88950  0.52290  Biso   1.000  C
  C40      1.0000 0.74080  0.61050  0.02290  Biso   1.000  C
