data_image0
_cell_length_a       16.644
_cell_length_b       6.357
_cell_length_c       6.752
_cell_angle_alpha    90
_cell_angle_beta     108.12
_cell_angle_gamma    90

_symmetry_space_group_name_H-M    "P 1"
_symmetry_int_tables_number       1

loop_
  _symmetry_equiv_pos_as_xyz
  'x, y, z'

loop_
  _atom_site_label
  _atom_site_occupancy
  _atom_site_fract_x
  _atom_site_fract_y
  _atom_site_fract_z
  _atom_site_thermal_displace_type
  _atom_site_B_iso_or_equiv
  _atom_site_type_symbol
  Cu1      1.0000 0.00000  0.00347  0.00000  Biso   1.000  Cu
  Cu2      1.0000 0.50000  0.50347  0.00000  Biso   1.000  Cu
  O1       1.0000 0.98890  0.01430  0.28690  Biso   1.000  O
  O2       1.0000 0.01110  0.01430  0.71310  Biso   1.000  O
  O3       1.0000 0.48890  0.51430  0.28690  Biso   1.000  O
  O4       1.0000 0.51110  0.51430  0.71310  Biso   1.000  O
  O5       1.0000 0.02270  0.67400  0.32250  Biso   1.000  O
  O6       1.0000 0.97730  0.67400  0.67750  Biso   1.000  O
  O7       1.0000 0.52270  0.17400  0.32250  Biso   1.000  O
  O8       1.0000 0.47730  0.17400  0.67750  Biso   1.000  O
  O9       1.0000 0.00000  0.36770  0.00000  Biso   1.000  O
  O10      1.0000 0.50000  0.86770  0.00000  Biso   1.000  O
  N1       1.0000 0.87580  0.96880  0.88180  Biso   1.000  N
  N2       1.0000 0.12420  0.96880  0.11820  Biso   1.000  N
  N3       1.0000 0.37580  0.46880  0.88180  Biso   1.000  N
  N4       1.0000 0.62420  0.46880  0.11820  Biso   1.000  N
  N5       1.0000 0.61720  0.86190  0.62890  Biso   1.000  N
  N6       1.0000 0.38280  0.86190  0.37110  Biso   1.000  N
  N7       1.0000 0.11720  0.36190  0.62890  Biso   1.000  N
  N8       1.0000 0.88280  0.36190  0.37110  Biso   1.000  N
  C1       1.0000 0.00370  0.84220  0.38780  Biso   1.000  C
  C2       1.0000 0.99630  0.84220  0.61220  Biso   1.000  C
  C3       1.0000 0.50370  0.34220  0.38780  Biso   1.000  C
  C4       1.0000 0.49630  0.34220  0.61220  Biso   1.000  C
  C5       1.0000 0.82440  0.10950  0.75400  Biso   1.000  C
  C6       1.0000 0.17560  0.10950  0.24600  Biso   1.000  C
  C7       1.0000 0.32440  0.60950  0.75400  Biso   1.000  C
  C8       1.0000 0.67560  0.60950  0.24600  Biso   1.000  C
  C9       1.0000 0.73890  0.08200  0.66340  Biso   1.000  C
  C10      1.0000 0.26110  0.08200  0.33660  Biso   1.000  C
  C11      1.0000 0.23890  0.58200  0.66340  Biso   1.000  C
  C12      1.0000 0.76110  0.58200  0.33660  Biso   1.000  C
  C13      1.0000 0.70060  0.89610  0.70850  Biso   1.000  C
  C14      1.0000 0.29940  0.89610  0.29150  Biso   1.000  C
  C15      1.0000 0.20060  0.39610  0.70850  Biso   1.000  C
  C16      1.0000 0.79940  0.39610  0.29150  Biso   1.000  C
  C17      1.0000 0.75460  0.74880  0.84060  Biso   1.000  C
  C18      1.0000 0.24540  0.74880  0.15940  Biso   1.000  C
  C19      1.0000 0.25460  0.24880  0.84060  Biso   1.000  C
  C20      1.0000 0.74540  0.24880  0.15940  Biso   1.000  C
  C21      1.0000 0.83940  0.79180  0.92260  Biso   1.000  C
  C22      1.0000 0.16060  0.79180  0.07740  Biso   1.000  C
  C23      1.0000 0.33940  0.29180  0.92260  Biso   1.000  C
  C24      1.0000 0.66060  0.29180  0.07740  Biso   1.000  C
  H1       1.0000 0.85000  0.24600  0.72600  Biso   1.000  H
  H2       1.0000 0.15000  0.24600  0.27400  Biso   1.000  H
  H3       1.0000 0.35000  0.74600  0.72600  Biso   1.000  H
  H4       1.0000 0.65000  0.74600  0.27400  Biso   1.000  H
  H5       1.0000 0.70400  0.18800  0.56700  Biso   1.000  H
  H6       1.0000 0.29600  0.18800  0.43300  Biso   1.000  H
  H7       1.0000 0.20400  0.68800  0.56700  Biso   1.000  H
  H8       1.0000 0.79600  0.68800  0.43300  Biso   1.000  H
  H9       1.0000 0.73100  0.61400  0.87200  Biso   1.000  H
  H10      1.0000 0.26900  0.61400  0.12800  Biso   1.000  H
  H11      1.0000 0.23100  0.11400  0.87200  Biso   1.000  H
  H12      1.0000 0.76900  0.11400  0.12800  Biso   1.000  H
  H13      1.0000 0.87600  0.68800  0.02000  Biso   1.000  H
  H14      1.0000 0.12400  0.68800  0.98000  Biso   1.000  H
  H15      1.0000 0.37600  0.18800  0.02000  Biso   1.000  H
  H16      1.0000 0.62400  0.18800  0.98000  Biso   1.000  H
  H17      1.0000 0.59200  0.74200  0.66100  Biso   1.000  H
  H18      1.0000 0.40800  0.74200  0.33900  Biso   1.000  H
  H19      1.0000 0.09200  0.24200  0.66100  Biso   1.000  H
  H20      1.0000 0.90800  0.24200  0.33900  Biso   1.000  H
  H21      1.0000 0.58100  0.96000  0.54500  Biso   1.000  H
  H22      1.0000 0.41900  0.96000  0.45500  Biso   1.000  H
  H23      1.0000 0.08100  0.46000  0.54500  Biso   1.000  H
  H24      1.0000 0.91900  0.46000  0.45500  Biso   1.000  H
  H25      1.0000 0.99300  0.45800  0.87000  Biso   1.000  H
  H26      1.0000 0.00700  0.45800  0.13000  Biso   1.000  H
  H27      1.0000 0.49300  0.95800  0.87000  Biso   1.000  H
  H28      1.0000 0.50700  0.95800  0.13000  Biso   1.000  H
