data_image0
_cell_length_a       11.6919
_cell_length_b       6.2287
_cell_length_c       23.648
_cell_angle_alpha    90
_cell_angle_beta     96.584
_cell_angle_gamma    90

_symmetry_space_group_name_H-M    "P 1"
_symmetry_int_tables_number       1

loop_
  _symmetry_equiv_pos_as_xyz
  'x, y, z'

loop_
  _atom_site_label
  _atom_site_occupancy
  _atom_site_fract_x
  _atom_site_fract_y
  _atom_site_fract_z
  _atom_site_thermal_displace_type
  _atom_site_B_iso_or_equiv
  _atom_site_type_symbol
  Cu1      1.0000 0.23712  0.24909  0.15261  Biso   1.000  Cu
  Cu2      1.0000 0.26288  0.74909  0.34739  Biso   1.000  Cu
  Cu3      1.0000 0.76288  0.75091  0.84739  Biso   1.000  Cu
  Cu4      1.0000 0.73712  0.25091  0.65261  Biso   1.000  Cu
  O1       1.0000 0.77670  0.80560  0.01145  Biso   1.000  O
  O2       1.0000 0.72330  0.30560  0.48855  Biso   1.000  O
  O3       1.0000 0.22330  0.19440  0.98855  Biso   1.000  O
  O4       1.0000 0.27670  0.69440  0.51145  Biso   1.000  O
  O5       1.0000 0.24645  0.48150  0.09851  Biso   1.000  O
  O6       1.0000 0.25355  0.98150  0.40149  Biso   1.000  O
  O7       1.0000 0.75355  0.51850  0.90149  Biso   1.000  O
  O8       1.0000 0.74645  0.01850  0.59851  Biso   1.000  O
  O9       1.0000 0.34790  0.77710  0.08682  Biso   1.000  O
  O10      1.0000 0.15210  0.27710  0.41318  Biso   1.000  O
  O11      1.0000 0.65210  0.22290  0.91318  Biso   1.000  O
  O12      1.0000 0.84790  0.72290  0.58682  Biso   1.000  O
  O13      1.0000 0.26442  0.02880  0.21169  Biso   1.000  O
  O14      1.0000 0.23558  0.52880  0.28831  Biso   1.000  O
  O15      1.0000 0.73558  0.97120  0.78831  Biso   1.000  O
  O16      1.0000 0.76442  0.47120  0.71169  Biso   1.000  O
  O17      1.0000 0.36992  0.97140  0.29498  Biso   1.000  O
  O18      1.0000 0.13008  0.47140  0.20502  Biso   1.000  O
  O19      1.0000 0.63008  0.02860  0.70502  Biso   1.000  O
  O20      1.0000 0.86992  0.52860  0.79498  Biso   1.000  O
  N1       1.0000 0.81480  0.16710  0.00650  Biso   1.000  N
  N2       1.0000 0.68520  0.66710  0.49350  Biso   1.000  N
  N3       1.0000 0.18520  0.83290  0.99350  Biso   1.000  N
  N4       1.0000 0.31480  0.33290  0.50650  Biso   1.000  N
  H1       1.0000 0.75910  0.17670  0.98400  Biso   1.000  H
  H2       1.0000 0.74090  0.67670  0.51600  Biso   1.000  H
  H3       1.0000 0.24090  0.82330  0.01600  Biso   1.000  H
  H4       1.0000 0.25910  0.32330  0.48400  Biso   1.000  H
  N5       1.0000 0.97100  0.34550  0.05936  Biso   1.000  N
  N6       1.0000 0.52900  0.84550  0.44064  Biso   1.000  N
  N7       1.0000 0.02900  0.65450  0.94064  Biso   1.000  N
  N8       1.0000 0.47100  0.15450  0.55936  Biso   1.000  N
  N9       1.0000 0.00380  0.79300  0.09167  Biso   1.000  N
  N10      1.0000 0.49620  0.29300  0.40833  Biso   1.000  N
  N11      1.0000 0.99620  0.20700  0.90833  Biso   1.000  N
  N12      1.0000 0.50380  0.70700  0.59167  Biso   1.000  N
  H5       1.0000 0.00370  0.65300  0.08720  Biso   1.000  H
  H6       1.0000 0.49630  0.15300  0.41280  Biso   1.000  H
  H7       1.0000 0.99630  0.34700  0.91280  Biso   1.000  H
  H8       1.0000 0.50370  0.84700  0.58720  Biso   1.000  H
  N13      1.0000 0.09950  0.09530  0.11617  Biso   1.000  N
  N14      1.0000 0.40050  0.59530  0.38383  Biso   1.000  N
  N15      1.0000 0.90050  0.90470  0.88383  Biso   1.000  N
  N16      1.0000 0.59950  0.40470  0.61617  Biso   1.000  N
  N17      1.0000 0.40380  0.32310  0.17679  Biso   1.000  N
  N18      1.0000 0.09620  0.82310  0.32321  Biso   1.000  N
  N19      1.0000 0.59620  0.67690  0.82321  Biso   1.000  N
  N20      1.0000 0.90380  0.17690  0.67679  Biso   1.000  N
  C1       1.0000 0.87740  0.34380  0.02322  Biso   1.000  C
  C2       1.0000 0.62260  0.84380  0.47678  Biso   1.000  C
  C3       1.0000 0.12260  0.65620  0.97678  Biso   1.000  C
  C4       1.0000 0.37740  0.15620  0.52322  Biso   1.000  C
  H9       1.0000 0.85050  0.46600  0.00060  Biso   1.000  H
  H10      1.0000 0.64950  0.96600  0.49940  Biso   1.000  H
  H11      1.0000 0.14950  0.53400  0.99940  Biso   1.000  H
  H12      1.0000 0.35050  0.03400  0.50060  Biso   1.000  H
  C5       1.0000 0.00330  0.14550  0.07909  Biso   1.000  C
  C6       1.0000 0.49670  0.64550  0.42091  Biso   1.000  C
  C7       1.0000 0.99670  0.85450  0.92091  Biso   1.000  C
  C8       1.0000 0.50330  0.35450  0.57909  Biso   1.000  C
  C9       1.0000 0.94400  0.95770  0.06337  Biso   1.000  C
  C10      1.0000 0.55600  0.45770  0.43663  Biso   1.000  C
  C11      1.0000 0.05600  0.04230  0.93663  Biso   1.000  C
  C12      1.0000 0.44400  0.54230  0.56337  Biso   1.000  C
  C13      1.0000 0.84000  0.95950  0.02588  Biso   1.000  C
  C14      1.0000 0.66000  0.45950  0.47412  Biso   1.000  C
  C15      1.0000 0.16000  0.04050  0.97412  Biso   1.000  C
  C16      1.0000 0.34000  0.54050  0.52588  Biso   1.000  C
  C17      1.0000 0.09550  0.88110  0.12179  Biso   1.000  C
  C18      1.0000 0.40450  0.38110  0.37821  Biso   1.000  C
  C19      1.0000 0.90450  0.11890  0.87821  Biso   1.000  C
  C20      1.0000 0.59550  0.61890  0.62179  Biso   1.000  C
  H13      1.0000 0.15420  0.80610  0.14380  Biso   1.000  H
  H14      1.0000 0.34580  0.30610  0.35620  Biso   1.000  H
  H15      1.0000 0.84580  0.19390  0.85620  Biso   1.000  H
  H16      1.0000 0.65420  0.69390  0.64380  Biso   1.000  H
  C21      1.0000 0.40590  0.55880  0.16839  Biso   1.000  C
  C22      1.0000 0.09410  0.05880  0.33161  Biso   1.000  C
  C23      1.0000 0.59410  0.44120  0.83161  Biso   1.000  C
  C24      1.0000 0.90590  0.94120  0.66839  Biso   1.000  C
  H17      1.0000 0.48370  0.61680  0.16470  Biso   1.000  H
  H18      1.0000 0.01630  0.11680  0.33530  Biso   1.000  H
  H19      1.0000 0.51630  0.38320  0.83530  Biso   1.000  H
  H20      1.0000 0.98370  0.88320  0.66470  Biso   1.000  H
  H21      1.0000 0.37530  0.63130  0.20030  Biso   1.000  H
  H22      1.0000 0.12470  0.13130  0.29970  Biso   1.000  H
  H23      1.0000 0.62470  0.36870  0.79970  Biso   1.000  H
  H24      1.0000 0.87530  0.86870  0.70030  Biso   1.000  H
  C25      1.0000 0.32980  0.61070  0.11288  Biso   1.000  C
  C26      1.0000 0.17020  0.11070  0.38712  Biso   1.000  C
  C27      1.0000 0.67020  0.38930  0.88712  Biso   1.000  C
  C28      1.0000 0.82980  0.88930  0.61288  Biso   1.000  C
  C29      1.0000 0.42840  0.25430  0.23702  Biso   1.000  C
  C30      1.0000 0.07160  0.75430  0.26298  Biso   1.000  C
  C31      1.0000 0.57160  0.74570  0.76298  Biso   1.000  C
  C32      1.0000 0.92840  0.24570  0.73702  Biso   1.000  C
  H25      1.0000 0.50630  0.22120  0.24600  Biso   1.000  H
  H26      1.0000 0.99370  0.72120  0.25400  Biso   1.000  H
  H27      1.0000 0.49370  0.77880  0.75400  Biso   1.000  H
  H28      1.0000 0.00630  0.27880  0.74600  Biso   1.000  H
  H29      1.0000 0.40010  0.37940  0.25510  Biso   1.000  H
  H30      1.0000 0.09990  0.87940  0.24490  Biso   1.000  H
  H31      1.0000 0.59990  0.62060  0.74490  Biso   1.000  H
  H32      1.0000 0.90010  0.12060  0.75510  Biso   1.000  H
  C33      1.0000 0.34980  0.06710  0.24879  Biso   1.000  C
  C34      1.0000 0.15020  0.56710  0.25121  Biso   1.000  C
  C35      1.0000 0.65020  0.93290  0.75121  Biso   1.000  C
  C36      1.0000 0.84980  0.43290  0.74879  Biso   1.000  C
  C37      1.0000 0.47670  0.20660  0.13836  Biso   1.000  C
  C38      1.0000 0.02330  0.70660  0.36164  Biso   1.000  C
  C39      1.0000 0.52330  0.79340  0.86164  Biso   1.000  C
  C40      1.0000 0.97670  0.29340  0.63836  Biso   1.000  C
  H33      1.0000 0.45600  0.04610  0.13950  Biso   1.000  H
  H34      1.0000 0.04400  0.54610  0.36050  Biso   1.000  H
  H35      1.0000 0.54400  0.95390  0.86050  Biso   1.000  H
  H36      1.0000 0.95600  0.45390  0.63950  Biso   1.000  H
  H37      1.0000 0.44750  0.26790  0.10370  Biso   1.000  H
  H38      1.0000 0.05250  0.76790  0.39630  Biso   1.000  H
  H39      1.0000 0.55250  0.73210  0.89630  Biso   1.000  H
  H40      1.0000 0.94750  0.23210  0.60370  Biso   1.000  H
  C41      1.0000 0.60480  0.23850  0.15273  Biso   1.000  C
  C42      1.0000 0.89520  0.73850  0.34727  Biso   1.000  C
  C43      1.0000 0.39520  0.76150  0.84727  Biso   1.000  C
  C44      1.0000 0.10480  0.26150  0.65273  Biso   1.000  C
  C45      1.0000 0.66040  0.41560  0.13307  Biso   1.000  C
  C46      1.0000 0.83960  0.91560  0.36693  Biso   1.000  C
  C47      1.0000 0.33960  0.58440  0.86693  Biso   1.000  C
  C48      1.0000 0.16040  0.08440  0.63307  Biso   1.000  C
  H41      1.0000 0.61970  0.53010  0.11260  Biso   1.000  H
  H42      1.0000 0.88030  0.03010  0.38740  Biso   1.000  H
  H43      1.0000 0.38030  0.46990  0.88740  Biso   1.000  H
  H44      1.0000 0.11970  0.96990  0.61260  Biso   1.000  H
  C49      1.0000 0.77720  0.44670  0.14866  Biso   1.000  C
  C50      1.0000 0.72280  0.94670  0.35134  Biso   1.000  C
  C51      1.0000 0.22280  0.55330  0.85134  Biso   1.000  C
  C52      1.0000 0.27720  0.05330  0.64866  Biso   1.000  C
  H45      1.0000 0.82340  0.57040  0.13390  Biso   1.000  H
  H46      1.0000 0.67660  0.07040  0.36610  Biso   1.000  H
  H47      1.0000 0.17660  0.42960  0.86610  Biso   1.000  H
  H48      1.0000 0.32340  0.92960  0.63390  Biso   1.000  H
  C53      1.0000 0.83950  0.29700  0.18160  Biso   1.000  C
  C54      1.0000 0.66050  0.79700  0.31840  Biso   1.000  C
  C55      1.0000 0.16050  0.70300  0.81840  Biso   1.000  C
  C56      1.0000 0.33950  0.20300  0.68160  Biso   1.000  C
  H49      1.0000 0.92360  0.31970  0.18920  Biso   1.000  H
  H50      1.0000 0.57640  0.81970  0.31080  Biso   1.000  H
  H51      1.0000 0.07640  0.68030  0.81080  Biso   1.000  H
  H52      1.0000 0.42360  0.18030  0.68920  Biso   1.000  H
  C57      1.0000 0.78700  0.11670  0.20047  Biso   1.000  C
  C58      1.0000 0.71300  0.61670  0.29953  Biso   1.000  C
  C59      1.0000 0.21300  0.88330  0.79953  Biso   1.000  C
  C60      1.0000 0.28700  0.38330  0.70047  Biso   1.000  C
  H53      1.0000 0.83350  0.00750  0.22540  Biso   1.000  H
  H54      1.0000 0.66650  0.50750  0.27460  Biso   1.000  H
  H55      1.0000 0.16650  0.99250  0.77460  Biso   1.000  H
  H56      1.0000 0.33350  0.49250  0.72540  Biso   1.000  H
  C61      1.0000 0.66950  0.08640  0.18583  Biso   1.000  C
  C62      1.0000 0.83050  0.58640  0.31417  Biso   1.000  C
  C63      1.0000 0.33050  0.91360  0.81417  Biso   1.000  C
  C64      1.0000 0.16950  0.41360  0.68583  Biso   1.000  C
  H57      1.0000 0.62430  0.95860  0.19950  Biso   1.000  H
  H58      1.0000 0.87570  0.45860  0.30050  Biso   1.000  H
  H59      1.0000 0.37570  0.04140  0.80050  Biso   1.000  H
  H60      1.0000 0.12430  0.54140  0.69950  Biso   1.000  H
