data_image0
_cell_length_a       14.74
_cell_length_b       6.269
_cell_length_c       25.372
_cell_angle_alpha    90
_cell_angle_beta     106.45
_cell_angle_gamma    90

_symmetry_space_group_name_H-M    "P 1"
_symmetry_int_tables_number       1

loop_
  _symmetry_equiv_pos_as_xyz
  'x, y, z'

loop_
  _atom_site_label
  _atom_site_occupancy
  _atom_site_fract_x
  _atom_site_fract_y
  _atom_site_fract_z
  _atom_site_thermal_displace_type
  _atom_site_B_iso_or_equiv
  _atom_site_type_symbol
  Cu1      1.0000 0.44715  0.24878  0.32401  Biso   1.000  Cu
  Cu2      1.0000 0.55285  0.74878  0.17599  Biso   1.000  Cu
  Cu3      1.0000 0.55285  0.75122  0.67599  Biso   1.000  Cu
  Cu4      1.0000 0.44715  0.25122  0.82401  Biso   1.000  Cu
  N1       1.0000 0.33024  0.31430  0.26175  Biso   1.000  N
  N2       1.0000 0.66976  0.81430  0.23825  Biso   1.000  N
  N3       1.0000 0.66976  0.68570  0.73825  Biso   1.000  N
  N4       1.0000 0.33024  0.18570  0.76175  Biso   1.000  N
  O1       1.0000 0.43355  0.95690  0.18398  Biso   1.000  O
  O2       1.0000 0.56645  0.45690  0.31602  Biso   1.000  O
  O3       1.0000 0.56645  0.04310  0.81602  Biso   1.000  O
  O4       1.0000 0.43355  0.54310  0.68398  Biso   1.000  O
  C1       1.0000 0.32180  0.54700  0.26516  Biso   1.000  C
  C2       1.0000 0.67820  0.04700  0.23484  Biso   1.000  C
  C3       1.0000 0.67820  0.45300  0.73484  Biso   1.000  C
  C4       1.0000 0.32180  0.95300  0.76516  Biso   1.000  C
  H1       1.0000 0.25730  0.59340  0.24460  Biso   1.000  H
  H2       1.0000 0.74270  0.09340  0.25540  Biso   1.000  H
  H3       1.0000 0.74270  0.40660  0.75540  Biso   1.000  H
  H4       1.0000 0.25730  0.90660  0.74460  Biso   1.000  H
  H5       1.0000 0.36770  0.61840  0.24910  Biso   1.000  H
  H6       1.0000 0.63230  0.11840  0.25090  Biso   1.000  H
  H7       1.0000 0.63230  0.38160  0.75090  Biso   1.000  H
  H8       1.0000 0.36770  0.88160  0.74910  Biso   1.000  H
  C5       1.0000 0.34214  0.60500  0.32574  Biso   1.000  C
  C6       1.0000 0.65786  0.10500  0.17426  Biso   1.000  C
  C7       1.0000 0.65786  0.39500  0.67426  Biso   1.000  C
  C8       1.0000 0.34214  0.89500  0.82574  Biso   1.000  C
  O5       1.0000 0.40105  0.48550  0.35978  Biso   1.000  O
  O6       1.0000 0.59895  0.98550  0.14022  Biso   1.000  O
  O7       1.0000 0.59895  0.51450  0.64022  Biso   1.000  O
  O8       1.0000 0.40105  0.01450  0.85978  Biso   1.000  O
  O9       1.0000 0.30406  0.76430  0.33860  Biso   1.000  O
  O10      1.0000 0.69594  0.26430  0.16140  Biso   1.000  O
  O11      1.0000 0.69594  0.23570  0.66140  Biso   1.000  O
  O12      1.0000 0.30406  0.73570  0.83860  Biso   1.000  O
  C9       1.0000 0.34870  0.23710  0.21089  Biso   1.000  C
  C10      1.0000 0.65130  0.73710  0.28911  Biso   1.000  C
  C11      1.0000 0.65130  0.76290  0.78911  Biso   1.000  C
  C12      1.0000 0.34870  0.26290  0.71089  Biso   1.000  C
  H9       1.0000 0.37350  0.35560  0.19320  Biso   1.000  H
  H10      1.0000 0.62650  0.85560  0.30680  Biso   1.000  H
  H11      1.0000 0.62650  0.64440  0.80680  Biso   1.000  H
  H12      1.0000 0.37350  0.14440  0.69320  Biso   1.000  H
  H13      1.0000 0.28880  0.18710  0.18500  Biso   1.000  H
  H14      1.0000 0.71120  0.68710  0.31500  Biso   1.000  H
  H15      1.0000 0.71120  0.81290  0.81500  Biso   1.000  H
  H16      1.0000 0.28880  0.31290  0.68500  Biso   1.000  H
  C13      1.0000 0.42009  0.05510  0.22338  Biso   1.000  C
  C14      1.0000 0.57991  0.55510  0.27662  Biso   1.000  C
  C15      1.0000 0.57991  0.94490  0.77662  Biso   1.000  C
  C16      1.0000 0.42009  0.44490  0.72338  Biso   1.000  C
  O13      1.0000 0.46519  0.02420  0.27365  Biso   1.000  O
  O14      1.0000 0.53481  0.52420  0.22635  Biso   1.000  O
  O15      1.0000 0.53481  0.97580  0.72635  Biso   1.000  O
  O16      1.0000 0.46519  0.47580  0.77365  Biso   1.000  O
  C17      1.0000 0.24992  0.19960  0.27464  Biso   1.000  C
  C18      1.0000 0.75008  0.69960  0.22536  Biso   1.000  C
  C19      1.0000 0.75008  0.80040  0.72536  Biso   1.000  C
  C20      1.0000 0.24992  0.30040  0.77464  Biso   1.000  C
  H17      1.0000 0.24710  0.24360  0.31160  Biso   1.000  H
  H18      1.0000 0.75290  0.74360  0.18840  Biso   1.000  H
  H19      1.0000 0.75290  0.75640  0.68840  Biso   1.000  H
  H20      1.0000 0.24710  0.25640  0.81160  Biso   1.000  H
  H21      1.0000 0.26300  0.04440  0.27590  Biso   1.000  H
  H22      1.0000 0.73700  0.54440  0.22410  Biso   1.000  H
  H23      1.0000 0.73700  0.95560  0.72410  Biso   1.000  H
  H24      1.0000 0.26300  0.45560  0.77590  Biso   1.000  H
  C21      1.0000 0.15490  0.23960  0.23411  Biso   1.000  C
  C22      1.0000 0.84510  0.73960  0.26589  Biso   1.000  C
  C23      1.0000 0.84510  0.76040  0.76589  Biso   1.000  C
  C24      1.0000 0.15490  0.26040  0.73411  Biso   1.000  C
  C25      1.0000 0.10160  0.42080  0.23944  Biso   1.000  C
  C26      1.0000 0.89840  0.92080  0.26056  Biso   1.000  C
  C27      1.0000 0.89840  0.57920  0.76056  Biso   1.000  C
  C28      1.0000 0.10160  0.07920  0.73944  Biso   1.000  C
  H25      1.0000 0.12500  0.51530  0.26950  Biso   1.000  H
  H26      1.0000 0.87500  0.01530  0.23050  Biso   1.000  H
  H27      1.0000 0.87500  0.48470  0.73050  Biso   1.000  H
  H28      1.0000 0.12500  0.98470  0.76950  Biso   1.000  H
  C29      1.0000 0.01560  0.46280  0.20140  Biso   1.000  C
  C30      1.0000 0.98440  0.96280  0.29860  Biso   1.000  C
  C31      1.0000 0.98440  0.53720  0.79860  Biso   1.000  C
  C32      1.0000 0.01560  0.03720  0.70140  Biso   1.000  C
  H29      1.0000 0.98110  0.58760  0.20480  Biso   1.000  H
  H30      1.0000 0.01890  0.08760  0.29520  Biso   1.000  H
  H31      1.0000 0.01890  0.41240  0.79520  Biso   1.000  H
  H32      1.0000 0.98110  0.91240  0.70480  Biso   1.000  H
  C33      1.0000 0.97960  0.32050  0.15790  Biso   1.000  C
  C34      1.0000 0.02040  0.82050  0.34210  Biso   1.000  C
  C35      1.0000 0.02040  0.67950  0.84210  Biso   1.000  C
  C36      1.0000 0.97960  0.17950  0.65790  Biso   1.000  C
  C37      1.0000 0.88550  0.36900  0.11540  Biso   1.000  C
  C38      1.0000 0.11450  0.86900  0.38460  Biso   1.000  C
  C39      1.0000 0.11450  0.63100  0.88460  Biso   1.000  C
  C40      1.0000 0.88550  0.13100  0.61540  Biso   1.000  C
  H33      1.0000 0.89720  0.44290  0.08390  Biso   1.000  H
  H34      1.0000 0.10280  0.94290  0.41610  Biso   1.000  H
  H35      1.0000 0.10280  0.55710  0.91610  Biso   1.000  H
  H36      1.0000 0.89720  0.05710  0.58390  Biso   1.000  H
  H37      1.0000 0.84690  0.45970  0.13200  Biso   1.000  H
  H38      1.0000 0.15310  0.95970  0.36800  Biso   1.000  H
  H39      1.0000 0.15310  0.54030  0.86800  Biso   1.000  H
  H40      1.0000 0.84690  0.04030  0.63200  Biso   1.000  H
  H41      1.0000 0.85180  0.23510  0.10300  Biso   1.000  H
  H42      1.0000 0.14820  0.73510  0.39700  Biso   1.000  H
  H43      1.0000 0.14820  0.76490  0.89700  Biso   1.000  H
  H44      1.0000 0.85180  0.26490  0.60300  Biso   1.000  H
  C41      1.0000 0.03080  0.14040  0.15391  Biso   1.000  C
  C42      1.0000 0.96920  0.64040  0.34609  Biso   1.000  C
  C43      1.0000 0.96920  0.85960  0.84609  Biso   1.000  C
  C44      1.0000 0.03080  0.35960  0.65391  Biso   1.000  C
  H45      1.0000 0.00580  0.04230  0.12490  Biso   1.000  H
  H46      1.0000 0.99420  0.54230  0.37510  Biso   1.000  H
  H47      1.0000 0.99420  0.95770  0.87510  Biso   1.000  H
  H48      1.0000 0.00580  0.45770  0.62490  Biso   1.000  H
  C45      1.0000 0.11870  0.09790  0.19153  Biso   1.000  C
  C46      1.0000 0.88130  0.59790  0.30847  Biso   1.000  C
  C47      1.0000 0.88130  0.90210  0.80847  Biso   1.000  C
  C48      1.0000 0.11870  0.40210  0.69153  Biso   1.000  C
  H49      1.0000 0.15310  0.97330  0.18790  Biso   1.000  H
  H50      1.0000 0.84690  0.47330  0.31210  Biso   1.000  H
  H51      1.0000 0.84690  0.02670  0.81210  Biso   1.000  H
  H52      1.0000 0.15310  0.52670  0.68790  Biso   1.000  H
  N5       1.0000 0.64467  0.16920  0.55074  Biso   1.000  N
  N6       1.0000 0.35533  0.66920  0.94926  Biso   1.000  N
  N7       1.0000 0.35533  0.83080  0.44926  Biso   1.000  N
  N8       1.0000 0.64467  0.33080  0.05074  Biso   1.000  N
  H53      1.0000 0.66570  0.18490  0.58810  Biso   1.000  H
  H54      1.0000 0.33430  0.68490  0.91190  Biso   1.000  H
  H55      1.0000 0.33430  0.81510  0.41190  Biso   1.000  H
  H56      1.0000 0.66570  0.31510  0.08810  Biso   1.000  H
  C49      1.0000 0.61575  0.34450  0.51952  Biso   1.000  C
  C50      1.0000 0.38425  0.84450  0.98048  Biso   1.000  C
  C51      1.0000 0.38425  0.65550  0.48048  Biso   1.000  C
  C52      1.0000 0.61575  0.15550  0.01952  Biso   1.000  C
  H57      1.0000 0.62370  0.47830  0.53780  Biso   1.000  H
  H58      1.0000 0.37630  0.97830  0.96220  Biso   1.000  H
  H59      1.0000 0.37630  0.52170  0.46220  Biso   1.000  H
  H60      1.0000 0.62370  0.02170  0.03780  Biso   1.000  H
  N9       1.0000 0.57760  0.34580  0.46607  Biso   1.000  N
  N10      1.0000 0.42240  0.84580  0.03393  Biso   1.000  N
  N11      1.0000 0.42240  0.65420  0.53393  Biso   1.000  N
  N12      1.0000 0.57760  0.15420  0.96607  Biso   1.000  N
  C53      1.0000 0.56658  0.14520  0.44383  Biso   1.000  C
  C54      1.0000 0.43342  0.64520  0.05617  Biso   1.000  C
  C55      1.0000 0.43342  0.85480  0.55617  Biso   1.000  C
  C56      1.0000 0.56658  0.35480  0.94383  Biso   1.000  C
  C57      1.0000 0.59582  0.95890  0.47317  Biso   1.000  C
  C58      1.0000 0.40418  0.45890  0.02683  Biso   1.000  C
  C59      1.0000 0.40418  0.04110  0.52683  Biso   1.000  C
  C60      1.0000 0.59582  0.54110  0.97317  Biso   1.000  C
  C61      1.0000 0.64079  0.96060  0.53114  Biso   1.000  C
  C62      1.0000 0.35921  0.46060  0.96886  Biso   1.000  C
  C63      1.0000 0.35921  0.03940  0.46886  Biso   1.000  C
  C64      1.0000 0.64079  0.53940  0.03114  Biso   1.000  C
  O17      1.0000 0.67173  0.81000  0.56158  Biso   1.000  O
  O18      1.0000 0.32827  0.31000  0.93842  Biso   1.000  O
  O19      1.0000 0.32827  0.19000  0.43842  Biso   1.000  O
  O20      1.0000 0.67173  0.69000  0.06158  Biso   1.000  O
  N13      1.0000 0.57211  0.79360  0.43640  Biso   1.000  N
  N14      1.0000 0.42789  0.29360  0.06360  Biso   1.000  N
  N15      1.0000 0.42789  0.20640  0.56360  Biso   1.000  N
  N16      1.0000 0.57211  0.70640  0.93640  Biso   1.000  N
  H61      1.0000 0.57220  0.65870  0.44200  Biso   1.000  H
  H62      1.0000 0.42780  0.15870  0.05800  Biso   1.000  H
  H63      1.0000 0.42780  0.34130  0.55800  Biso   1.000  H
  H64      1.0000 0.57220  0.84130  0.94200  Biso   1.000  H
  C65      1.0000 0.53016  0.88030  0.38759  Biso   1.000  C
  C66      1.0000 0.46984  0.38030  0.11241  Biso   1.000  C
  C67      1.0000 0.46984  0.11970  0.61241  Biso   1.000  C
  C68      1.0000 0.53016  0.61970  0.88759  Biso   1.000  C
  H65      1.0000 0.50640  0.79950  0.35490  Biso   1.000  H
  H66      1.0000 0.49360  0.29950  0.14510  Biso   1.000  H
  H67      1.0000 0.49360  0.20050  0.64510  Biso   1.000  H
  H68      1.0000 0.50640  0.70050  0.85490  Biso   1.000  H
  N17      1.0000 0.52511  0.09340  0.38950  Biso   1.000  N
  N18      1.0000 0.47489  0.59340  0.11050  Biso   1.000  N
  N19      1.0000 0.47489  0.90660  0.61050  Biso   1.000  N
  N20      1.0000 0.52511  0.40660  0.88950  Biso   1.000  N
