data_image0
_cell_length_a       6.9797
_cell_length_b       19.094
_cell_length_c       7.5079
_cell_angle_alpha    90
_cell_angle_beta     114.759
_cell_angle_gamma    90

_symmetry_space_group_name_H-M    "P 1"
_symmetry_int_tables_number       1

loop_
  _symmetry_equiv_pos_as_xyz
  'x, y, z'

loop_
  _atom_site_label
  _atom_site_occupancy
  _atom_site_fract_x
  _atom_site_fract_y
  _atom_site_fract_z
  _atom_site_thermal_displace_type
  _atom_site_B_iso_or_equiv
  _atom_site_type_symbol
  Cu1      1.0000 0.26606  0.45715  0.14368  Biso   1.000  Cu
  Cu2      1.0000 0.73394  0.95715  0.35632  Biso   1.000  Cu
  Cu3      1.0000 0.73394  0.54285  0.85632  Biso   1.000  Cu
  Cu4      1.0000 0.26606  0.04285  0.64368  Biso   1.000  Cu
  O1       1.0000 0.76290  0.41920  0.37120  Biso   1.000  O
  O2       1.0000 0.23710  0.91920  0.12880  Biso   1.000  O
  O3       1.0000 0.23710  0.58080  0.62880  Biso   1.000  O
  O4       1.0000 0.76290  0.08080  0.87120  Biso   1.000  O
  O5       1.0000 0.44550  0.37140  0.20860  Biso   1.000  O
  O6       1.0000 0.55450  0.87140  0.29140  Biso   1.000  O
  O7       1.0000 0.55450  0.62860  0.79140  Biso   1.000  O
  O8       1.0000 0.44550  0.12860  0.70860  Biso   1.000  O
  O9       1.0000 0.26080  0.45480  0.87330  Biso   1.000  O
  O10      1.0000 0.73920  0.95480  0.62670  Biso   1.000  O
  O11      1.0000 0.73920  0.54520  0.12670  Biso   1.000  O
  O12      1.0000 0.26080  0.04520  0.37330  Biso   1.000  O
  H1       1.0000 0.36800  0.43280  0.87640  Biso   1.000  H
  H2       1.0000 0.63200  0.93280  0.62360  Biso   1.000  H
  H3       1.0000 0.63200  0.56720  0.12360  Biso   1.000  H
  H4       1.0000 0.36800  0.06720  0.37640  Biso   1.000  H
  H5       1.0000 0.26250  0.49610  0.83200  Biso   1.000  H
  H6       1.0000 0.73750  0.99610  0.66800  Biso   1.000  H
  H7       1.0000 0.73750  0.50390  0.16800  Biso   1.000  H
  H8       1.0000 0.26250  0.00390  0.33200  Biso   1.000  H
  O13      1.0000 0.25230  0.45350  0.40330  Biso   1.000  O
  O14      1.0000 0.74770  0.95350  0.09670  Biso   1.000  O
  O15      1.0000 0.74770  0.54650  0.59670  Biso   1.000  O
  O16      1.0000 0.25230  0.04650  0.90330  Biso   1.000  O
  H9       1.0000 0.24600  0.49470  0.44360  Biso   1.000  H
  H10      1.0000 0.75400  0.99470  0.05640  Biso   1.000  H
  H11      1.0000 0.75400  0.50530  0.55640  Biso   1.000  H
  H12      1.0000 0.24600  0.00530  0.94360  Biso   1.000  H
  H13      1.0000 0.36220  0.43350  0.48660  Biso   1.000  H
  H14      1.0000 0.63780  0.93350  0.01340  Biso   1.000  H
  H15      1.0000 0.63780  0.56650  0.51340  Biso   1.000  H
  H16      1.0000 0.36220  0.06650  0.98660  Biso   1.000  H
  C1       1.0000 0.90390  0.16420  0.48340  Biso   1.000  C
  C2       1.0000 0.09610  0.66420  0.01660  Biso   1.000  C
  C3       1.0000 0.09610  0.83580  0.51660  Biso   1.000  C
  C4       1.0000 0.90390  0.33580  0.98340  Biso   1.000  C
  C5       1.0000 0.70210  0.17240  0.33190  Biso   1.000  C
  C6       1.0000 0.29790  0.67240  0.16810  Biso   1.000  C
  C7       1.0000 0.29790  0.82760  0.66810  Biso   1.000  C
  C8       1.0000 0.70210  0.32760  0.83190  Biso   1.000  C
  C9       1.0000 0.61550  0.23900  0.27520  Biso   1.000  C
  C10      1.0000 0.38450  0.73900  0.22480  Biso   1.000  C
  C11      1.0000 0.38450  0.76100  0.72480  Biso   1.000  C
  C12      1.0000 0.61550  0.26100  0.77520  Biso   1.000  C
  H17      1.0000 0.48190  0.24440  0.17400  Biso   1.000  H
  H18      1.0000 0.51810  0.74440  0.32600  Biso   1.000  H
  H19      1.0000 0.51810  0.75560  0.82600  Biso   1.000  H
  H20      1.0000 0.48190  0.25560  0.67400  Biso   1.000  H
  C13      1.0000 0.72960  0.29540  0.37010  Biso   1.000  C
  C14      1.0000 0.27040  0.79540  0.12990  Biso   1.000  C
  C15      1.0000 0.27040  0.70460  0.62990  Biso   1.000  C
  C16      1.0000 0.72960  0.20460  0.87010  Biso   1.000  C
  C17      1.0000 0.93640  0.28750  0.51950  Biso   1.000  C
  C18      1.0000 0.06360  0.78750  0.98050  Biso   1.000  C
  C19      1.0000 0.06360  0.71250  0.48050  Biso   1.000  C
  C20      1.0000 0.93640  0.21250  0.01950  Biso   1.000  C
  H21      1.0000 0.01440  0.32730  0.57740  Biso   1.000  H
  H22      1.0000 0.98560  0.82730  0.92260  Biso   1.000  H
  H23      1.0000 0.98560  0.67270  0.42260  Biso   1.000  H
  H24      1.0000 0.01440  0.17270  0.07740  Biso   1.000  H
  C21      1.0000 0.02490  0.22260  0.58120  Biso   1.000  C
  C22      1.0000 0.97510  0.72260  0.91880  Biso   1.000  C
  C23      1.0000 0.97510  0.77740  0.41880  Biso   1.000  C
  C24      1.0000 0.02490  0.27740  0.08120  Biso   1.000  C
  H25      1.0000 0.15840  0.21760  0.68280  Biso   1.000  H
  H26      1.0000 0.84160  0.71760  0.81720  Biso   1.000  H
  H27      1.0000 0.84160  0.78240  0.31720  Biso   1.000  H
  H28      1.0000 0.15840  0.28240  0.18280  Biso   1.000  H
  C25      1.0000 0.64230  0.36900  0.31300  Biso   1.000  C
  C26      1.0000 0.35770  0.86900  0.18700  Biso   1.000  C
  C27      1.0000 0.35770  0.63100  0.68700  Biso   1.000  C
  C28      1.0000 0.64230  0.13100  0.81300  Biso   1.000  C
  N1       1.0000 0.62630  0.10680  0.26860  Biso   1.000  N
  N2       1.0000 0.37370  0.60680  0.23140  Biso   1.000  N
  N3       1.0000 0.37370  0.89320  0.73140  Biso   1.000  N
  N4       1.0000 0.62630  0.39320  0.76860  Biso   1.000  N
  N5       1.0000 0.77910  0.06260  0.37550  Biso   1.000  N
  N6       1.0000 0.22090  0.56260  0.12450  Biso   1.000  N
  N7       1.0000 0.22090  0.93740  0.62450  Biso   1.000  N
  N8       1.0000 0.77910  0.43740  0.87550  Biso   1.000  N
  N9       1.0000 0.94870  0.09510  0.50700  Biso   1.000  N
  N10      1.0000 0.05130  0.59510  0.99300  Biso   1.000  N
  N11      1.0000 0.05130  0.90490  0.49300  Biso   1.000  N
  N12      1.0000 0.94870  0.40490  0.00700  Biso   1.000  N
