data_image0
_cell_length_a       7.9131
_cell_length_b       13.572
_cell_length_c       25.0065
_cell_angle_alpha    90
_cell_angle_beta     90
_cell_angle_gamma    90

_symmetry_space_group_name_H-M    "P 1"
_symmetry_int_tables_number       1

loop_
  _symmetry_equiv_pos_as_xyz
  'x, y, z'

loop_
  _atom_site_label
  _atom_site_occupancy
  _atom_site_fract_x
  _atom_site_fract_y
  _atom_site_fract_z
  _atom_site_thermal_displace_type
  _atom_site_B_iso_or_equiv
  _atom_site_type_symbol
  Br1      1.0000 0.46440  0.86323  0.54705  Biso   1.000  Br
  Br2      1.0000 0.03560  0.13677  0.04705  Biso   1.000  Br
  Br3      1.0000 0.96440  0.63677  0.45295  Biso   1.000  Br
  Br4      1.0000 0.53560  0.36323  0.95295  Biso   1.000  Br
  Br5      1.0000 0.53560  0.13677  0.45295  Biso   1.000  Br
  Br6      1.0000 0.96440  0.86323  0.95295  Biso   1.000  Br
  Br7      1.0000 0.03560  0.36323  0.54705  Biso   1.000  Br
  Br8      1.0000 0.46440  0.63677  0.04705  Biso   1.000  Br
  Cu1      1.0000 0.10149  0.53564  0.75358  Biso   1.000  Cu
  Cu2      1.0000 0.39851  0.46436  0.25358  Biso   1.000  Cu
  Cu3      1.0000 0.60149  0.96436  0.24642  Biso   1.000  Cu
  Cu4      1.0000 0.89851  0.03564  0.74642  Biso   1.000  Cu
  Cu5      1.0000 0.89851  0.46436  0.24642  Biso   1.000  Cu
  Cu6      1.0000 0.60149  0.53564  0.74642  Biso   1.000  Cu
  Cu7      1.0000 0.39851  0.03564  0.75358  Biso   1.000  Cu
  Cu8      1.0000 0.10149  0.96436  0.25358  Biso   1.000  Cu
  Cl1      1.0000 0.89718  0.42011  0.74146  Biso   1.000  Cl
  Cl2      1.0000 0.60282  0.57989  0.24146  Biso   1.000  Cl
  Cl3      1.0000 0.39718  0.07989  0.25854  Biso   1.000  Cl
  Cl4      1.0000 0.10282  0.92011  0.75854  Biso   1.000  Cl
  Cl5      1.0000 0.10282  0.57989  0.25854  Biso   1.000  Cl
  Cl6      1.0000 0.39718  0.42011  0.75854  Biso   1.000  Cl
  Cl7      1.0000 0.60282  0.92011  0.74146  Biso   1.000  Cl
  Cl8      1.0000 0.89718  0.07989  0.24146  Biso   1.000  Cl
  O1       1.0000 0.11510  0.55397  0.67856  Biso   1.000  O
  O2       1.0000 0.38490  0.44603  0.17856  Biso   1.000  O
  O3       1.0000 0.61510  0.94603  0.32144  Biso   1.000  O
  O4       1.0000 0.88490  0.05397  0.82144  Biso   1.000  O
  O5       1.0000 0.88490  0.44603  0.32144  Biso   1.000  O
  O6       1.0000 0.61510  0.55397  0.82144  Biso   1.000  O
  O7       1.0000 0.38490  0.05397  0.67856  Biso   1.000  O
  O8       1.0000 0.11510  0.94603  0.17856  Biso   1.000  O
  N1       1.0000 0.22570  0.65757  0.76859  Biso   1.000  N
  N2       1.0000 0.27430  0.34243  0.26859  Biso   1.000  N
  N3       1.0000 0.72570  0.84243  0.23141  Biso   1.000  N
  N4       1.0000 0.77430  0.15757  0.73141  Biso   1.000  N
  N5       1.0000 0.77430  0.34243  0.23141  Biso   1.000  N
  N6       1.0000 0.72570  0.65757  0.73141  Biso   1.000  N
  N7       1.0000 0.27430  0.15757  0.76859  Biso   1.000  N
  N8       1.0000 0.22570  0.84243  0.26859  Biso   1.000  N
  N9       1.0000 0.10030  0.52500  0.83355  Biso   1.000  N
  N10      1.0000 0.39970  0.47500  0.33355  Biso   1.000  N
  N11      1.0000 0.60030  0.97500  0.16645  Biso   1.000  N
  N12      1.0000 0.89970  0.02500  0.66645  Biso   1.000  N
  N13      1.0000 0.89970  0.47500  0.16645  Biso   1.000  N
  N14      1.0000 0.60030  0.52500  0.66645  Biso   1.000  N
  N15      1.0000 0.39970  0.02500  0.83355  Biso   1.000  N
  N16      1.0000 0.10030  0.97500  0.33355  Biso   1.000  N
  C1       1.0000 0.19110  0.62370  0.65245  Biso   1.000  C
  C2       1.0000 0.30890  0.37630  0.15245  Biso   1.000  C
  C3       1.0000 0.69110  0.87630  0.34755  Biso   1.000  C
  C4       1.0000 0.80890  0.12370  0.84755  Biso   1.000  C
  C5       1.0000 0.80890  0.37630  0.34755  Biso   1.000  C
  C6       1.0000 0.69110  0.62370  0.84755  Biso   1.000  C
  C7       1.0000 0.30890  0.12370  0.65245  Biso   1.000  C
  C8       1.0000 0.19110  0.87630  0.15245  Biso   1.000  C
  C9       1.0000 0.18970  0.62120  0.59609  Biso   1.000  C
  C10      1.0000 0.31030  0.37880  0.09609  Biso   1.000  C
  C11      1.0000 0.68970  0.87880  0.40391  Biso   1.000  C
  C12      1.0000 0.81030  0.12120  0.90391  Biso   1.000  C
  C13      1.0000 0.81030  0.37880  0.40391  Biso   1.000  C
  C14      1.0000 0.68970  0.62120  0.90391  Biso   1.000  C
  C15      1.0000 0.31030  0.12120  0.59609  Biso   1.000  C
  C16      1.0000 0.18970  0.87880  0.09609  Biso   1.000  C
  H1       1.0000 0.13370  0.56990  0.57890  Biso   1.000  H
  H2       1.0000 0.36630  0.43010  0.07890  Biso   1.000  H
  H3       1.0000 0.63370  0.93010  0.42110  Biso   1.000  H
  H4       1.0000 0.86630  0.06990  0.92110  Biso   1.000  H
  H5       1.0000 0.86630  0.43010  0.42110  Biso   1.000  H
  H6       1.0000 0.63370  0.56990  0.92110  Biso   1.000  H
  H7       1.0000 0.36630  0.06990  0.57890  Biso   1.000  H
  H8       1.0000 0.13370  0.93010  0.07890  Biso   1.000  H
  C17      1.0000 0.26780  0.69150  0.56586  Biso   1.000  C
  C18      1.0000 0.23220  0.30850  0.06586  Biso   1.000  C
  C19      1.0000 0.76780  0.80850  0.43414  Biso   1.000  C
  C20      1.0000 0.73220  0.19150  0.93414  Biso   1.000  C
  C21      1.0000 0.73220  0.30850  0.43414  Biso   1.000  C
  C22      1.0000 0.76780  0.69150  0.93414  Biso   1.000  C
  C23      1.0000 0.23220  0.19150  0.56586  Biso   1.000  C
  C24      1.0000 0.26780  0.80850  0.06586  Biso   1.000  C
  H9       1.0000 0.26620  0.68690  0.52880  Biso   1.000  H
  H10      1.0000 0.23380  0.31310  0.02880  Biso   1.000  H
  H11      1.0000 0.76620  0.81310  0.47120  Biso   1.000  H
  H12      1.0000 0.73380  0.18690  0.97120  Biso   1.000  H
  H13      1.0000 0.73380  0.31310  0.47120  Biso   1.000  H
  H14      1.0000 0.76620  0.68690  0.97120  Biso   1.000  H
  H15      1.0000 0.23380  0.18690  0.52880  Biso   1.000  H
  H16      1.0000 0.26620  0.81310  0.02880  Biso   1.000  H
  C25      1.0000 0.34920  0.76940  0.59041  Biso   1.000  C
  C26      1.0000 0.15080  0.23060  0.09041  Biso   1.000  C
  C27      1.0000 0.84920  0.73060  0.40959  Biso   1.000  C
  C28      1.0000 0.65080  0.26940  0.90959  Biso   1.000  C
  C29      1.0000 0.65080  0.23060  0.40959  Biso   1.000  C
  C30      1.0000 0.84920  0.76940  0.90959  Biso   1.000  C
  C31      1.0000 0.15080  0.26940  0.59041  Biso   1.000  C
  C32      1.0000 0.34920  0.73060  0.09041  Biso   1.000  C
  C33      1.0000 0.35200  0.77760  0.64435  Biso   1.000  C
  C34      1.0000 0.14800  0.22240  0.14435  Biso   1.000  C
  C35      1.0000 0.85200  0.72240  0.35565  Biso   1.000  C
  C36      1.0000 0.64800  0.27760  0.85565  Biso   1.000  C
  C37      1.0000 0.64800  0.22240  0.35565  Biso   1.000  C
  C38      1.0000 0.85200  0.77760  0.85565  Biso   1.000  C
  C39      1.0000 0.14800  0.27760  0.64435  Biso   1.000  C
  C40      1.0000 0.35200  0.72240  0.14435  Biso   1.000  C
  H17      1.0000 0.40490  0.83150  0.66010  Biso   1.000  H
  H18      1.0000 0.09510  0.16850  0.16010  Biso   1.000  H
  H19      1.0000 0.90490  0.66850  0.33990  Biso   1.000  H
  H20      1.0000 0.59510  0.33150  0.83990  Biso   1.000  H
  H21      1.0000 0.59510  0.16850  0.33990  Biso   1.000  H
  H22      1.0000 0.90490  0.83150  0.83990  Biso   1.000  H
  H23      1.0000 0.09510  0.33150  0.66010  Biso   1.000  H
  H24      1.0000 0.40490  0.66850  0.16010  Biso   1.000  H
  C41      1.0000 0.27520  0.70510  0.67700  Biso   1.000  C
  C42      1.0000 0.22480  0.29490  0.17700  Biso   1.000  C
  C43      1.0000 0.77520  0.79490  0.32300  Biso   1.000  C
  C44      1.0000 0.72480  0.20510  0.82300  Biso   1.000  C
  C45      1.0000 0.72480  0.29490  0.32300  Biso   1.000  C
  C46      1.0000 0.77520  0.70510  0.82300  Biso   1.000  C
  C47      1.0000 0.22480  0.20510  0.67700  Biso   1.000  C
  C48      1.0000 0.27520  0.79490  0.17700  Biso   1.000  C
  C49      1.0000 0.29010  0.71560  0.73335  Biso   1.000  C
  C50      1.0000 0.20990  0.28440  0.23335  Biso   1.000  C
  C51      1.0000 0.79010  0.78440  0.26665  Biso   1.000  C
  C52      1.0000 0.70990  0.21560  0.76665  Biso   1.000  C
  C53      1.0000 0.70990  0.28440  0.26665  Biso   1.000  C
  C54      1.0000 0.79010  0.71560  0.76665  Biso   1.000  C
  C55      1.0000 0.20990  0.21560  0.73335  Biso   1.000  C
  C56      1.0000 0.29010  0.78440  0.23335  Biso   1.000  C
  H25      1.0000 0.35190  0.76920  0.74590  Biso   1.000  H
  H26      1.0000 0.14810  0.23080  0.24590  Biso   1.000  H
  H27      1.0000 0.85190  0.73080  0.25410  Biso   1.000  H
  H28      1.0000 0.64810  0.26920  0.75410  Biso   1.000  H
  H29      1.0000 0.64810  0.23080  0.25410  Biso   1.000  H
  H30      1.0000 0.85190  0.76920  0.75410  Biso   1.000  H
  H31      1.0000 0.14810  0.26920  0.74590  Biso   1.000  H
  H32      1.0000 0.35190  0.73080  0.24590  Biso   1.000  H
  C57      1.0000 0.25200  0.67840  0.82466  Biso   1.000  C
  C58      1.0000 0.24800  0.32160  0.32466  Biso   1.000  C
  C59      1.0000 0.75200  0.82160  0.17534  Biso   1.000  C
  C60      1.0000 0.74800  0.17840  0.67534  Biso   1.000  C
  C61      1.0000 0.74800  0.32160  0.17534  Biso   1.000  C
  C62      1.0000 0.75200  0.67840  0.67534  Biso   1.000  C
  C63      1.0000 0.24800  0.17840  0.82466  Biso   1.000  C
  C64      1.0000 0.25200  0.82160  0.32466  Biso   1.000  C
  H33      1.0000 0.19500  0.73930  0.83390  Biso   1.000  H
  H34      1.0000 0.30500  0.26070  0.33390  Biso   1.000  H
  H35      1.0000 0.69500  0.76070  0.16610  Biso   1.000  H
  H36      1.0000 0.80500  0.23930  0.66610  Biso   1.000  H
  H37      1.0000 0.80500  0.26070  0.16610  Biso   1.000  H
  H38      1.0000 0.69500  0.73930  0.66610  Biso   1.000  H
  H39      1.0000 0.30500  0.23930  0.83390  Biso   1.000  H
  H40      1.0000 0.19500  0.76070  0.33390  Biso   1.000  H
  H41      1.0000 0.37180  0.68710  0.83140  Biso   1.000  H
  H42      1.0000 0.12820  0.31290  0.33140  Biso   1.000  H
  H43      1.0000 0.87180  0.81290  0.16860  Biso   1.000  H
  H44      1.0000 0.62820  0.18710  0.66860  Biso   1.000  H
  H45      1.0000 0.62820  0.31290  0.16860  Biso   1.000  H
  H46      1.0000 0.87180  0.68710  0.66860  Biso   1.000  H
  H47      1.0000 0.12820  0.18710  0.83140  Biso   1.000  H
  H48      1.0000 0.37180  0.81290  0.33140  Biso   1.000  H
  C65      1.0000 0.18610  0.59690  0.85895  Biso   1.000  C
  C66      1.0000 0.31390  0.40310  0.35895  Biso   1.000  C
  C67      1.0000 0.68610  0.90310  0.14105  Biso   1.000  C
  C68      1.0000 0.81390  0.09690  0.64105  Biso   1.000  C
  C69      1.0000 0.81390  0.40310  0.14105  Biso   1.000  C
  C70      1.0000 0.68610  0.59690  0.64105  Biso   1.000  C
  C71      1.0000 0.31390  0.09690  0.85895  Biso   1.000  C
  C72      1.0000 0.18610  0.90310  0.35895  Biso   1.000  C
  C73      1.0000 0.21170  0.59400  0.91375  Biso   1.000  C
  C74      1.0000 0.28830  0.40600  0.41375  Biso   1.000  C
  C75      1.0000 0.71170  0.90600  0.08625  Biso   1.000  C
  C76      1.0000 0.78830  0.09400  0.58625  Biso   1.000  C
  C77      1.0000 0.78830  0.40600  0.08625  Biso   1.000  C
  C78      1.0000 0.71170  0.59400  0.58625  Biso   1.000  C
  C79      1.0000 0.28830  0.09400  0.91375  Biso   1.000  C
  C80      1.0000 0.21170  0.90600  0.41375  Biso   1.000  C
  H49      1.0000 0.27180  0.64390  0.93060  Biso   1.000  H
  H50      1.0000 0.22820  0.35610  0.43060  Biso   1.000  H
  H51      1.0000 0.77180  0.85610  0.06940  Biso   1.000  H
  H52      1.0000 0.72820  0.14390  0.56940  Biso   1.000  H
  H53      1.0000 0.72820  0.35610  0.06940  Biso   1.000  H
  H54      1.0000 0.77180  0.64390  0.56940  Biso   1.000  H
  H55      1.0000 0.22820  0.14390  0.93060  Biso   1.000  H
  H56      1.0000 0.27180  0.85610  0.43060  Biso   1.000  H
  C81      1.0000 0.14830  0.51760  0.94265  Biso   1.000  C
  C82      1.0000 0.35170  0.48240  0.44265  Biso   1.000  C
  C83      1.0000 0.64830  0.98240  0.05735  Biso   1.000  C
  C84      1.0000 0.85170  0.01760  0.55735  Biso   1.000  C
  C85      1.0000 0.85170  0.48240  0.05735  Biso   1.000  C
  C86      1.0000 0.64830  0.51760  0.55735  Biso   1.000  C
  C87      1.0000 0.35170  0.01760  0.94265  Biso   1.000  C
  C88      1.0000 0.14830  0.98240  0.44265  Biso   1.000  C
  H57      1.0000 0.16530  0.51480  0.97940  Biso   1.000  H
  H58      1.0000 0.33470  0.48520  0.47940  Biso   1.000  H
  H59      1.0000 0.66530  0.98520  0.02060  Biso   1.000  H
  H60      1.0000 0.83470  0.01480  0.52060  Biso   1.000  H
  H61      1.0000 0.83470  0.48520  0.02060  Biso   1.000  H
  H62      1.0000 0.66530  0.51480  0.52060  Biso   1.000  H
  H63      1.0000 0.33470  0.01480  0.97940  Biso   1.000  H
  H64      1.0000 0.16530  0.98520  0.47940  Biso   1.000  H
  C89      1.0000 0.05920  0.44460  0.91727  Biso   1.000  C
  C90      1.0000 0.44080  0.55540  0.41727  Biso   1.000  C
  C91      1.0000 0.55920  0.05540  0.08273  Biso   1.000  C
  C92      1.0000 0.94080  0.94460  0.58273  Biso   1.000  C
  C93      1.0000 0.94080  0.55540  0.08273  Biso   1.000  C
  C94      1.0000 0.55920  0.44460  0.58273  Biso   1.000  C
  C95      1.0000 0.44080  0.94460  0.91727  Biso   1.000  C
  C96      1.0000 0.05920  0.05540  0.41727  Biso   1.000  C
  H65      1.0000 0.01460  0.39200  0.93640  Biso   1.000  H
  H66      1.0000 0.48540  0.60800  0.43640  Biso   1.000  H
  H67      1.0000 0.51460  0.10800  0.06360  Biso   1.000  H
  H68      1.0000 0.98540  0.89200  0.56360  Biso   1.000  H
  H69      1.0000 0.98540  0.60800  0.06360  Biso   1.000  H
  H70      1.0000 0.51460  0.39200  0.56360  Biso   1.000  H
  H71      1.0000 0.48540  0.89200  0.93640  Biso   1.000  H
  H72      1.0000 0.01460  0.10800  0.43640  Biso   1.000  H
  C97      1.0000 0.03730  0.45110  0.86282  Biso   1.000  C
  C98      1.0000 0.46270  0.54890  0.36282  Biso   1.000  C
  C99      1.0000 0.53730  0.04890  0.13718  Biso   1.000  C
  C100     1.0000 0.96270  0.95110  0.63718  Biso   1.000  C
  C101     1.0000 0.96270  0.54890  0.13718  Biso   1.000  C
  C102     1.0000 0.53730  0.45110  0.63718  Biso   1.000  C
  C103     1.0000 0.46270  0.95110  0.86282  Biso   1.000  C
  C104     1.0000 0.03730  0.04890  0.36282  Biso   1.000  C
  H73      1.0000 0.97610  0.40190  0.84560  Biso   1.000  H
  H74      1.0000 0.52390  0.59810  0.34560  Biso   1.000  H
  H75      1.0000 0.47610  0.09810  0.15440  Biso   1.000  H
  H76      1.0000 0.02390  0.90190  0.65440  Biso   1.000  H
  H77      1.0000 0.02390  0.59810  0.15440  Biso   1.000  H
  H78      1.0000 0.47610  0.40190  0.65440  Biso   1.000  H
  H79      1.0000 0.52390  0.90190  0.84560  Biso   1.000  H
  H80      1.0000 0.97610  0.09810  0.34560  Biso   1.000  H
