data_image0
_cell_length_a       7.945
_cell_length_b       19.351
_cell_length_c       9.019
_cell_angle_alpha    90
_cell_angle_beta     94.303
_cell_angle_gamma    90

_symmetry_space_group_name_H-M    "P 1"
_symmetry_int_tables_number       1

loop_
  _symmetry_equiv_pos_as_xyz
  'x, y, z'

loop_
  _atom_site_label
  _atom_site_occupancy
  _atom_site_fract_x
  _atom_site_fract_y
  _atom_site_fract_z
  _atom_site_thermal_displace_type
  _atom_site_B_iso_or_equiv
  _atom_site_type_symbol
  Cu1      1.0000 0.00383  0.72913  0.79473  Biso   1.000  Cu
  Cu2      1.0000 0.99617  0.22913  0.70527  Biso   1.000  Cu
  Cu3      1.0000 0.99617  0.27087  0.20527  Biso   1.000  Cu
  Cu4      1.0000 0.00383  0.77087  0.29473  Biso   1.000  Cu
  N1       1.0000 0.18550  0.78262  0.90730  Biso   1.000  N
  N2       1.0000 0.81450  0.28262  0.59270  Biso   1.000  N
  N3       1.0000 0.81450  0.21738  0.09270  Biso   1.000  N
  N4       1.0000 0.18550  0.71738  0.40730  Biso   1.000  N
  N5       1.0000 0.35710  0.86745  0.97790  Biso   1.000  N
  N6       1.0000 0.64290  0.36745  0.52210  Biso   1.000  N
  N7       1.0000 0.64290  0.13255  0.02210  Biso   1.000  N
  N8       1.0000 0.35710  0.63255  0.47790  Biso   1.000  N
  O1       1.0000 0.90730  0.81768  0.72230  Biso   1.000  O
  O2       1.0000 0.09270  0.31768  0.77770  Biso   1.000  O
  O3       1.0000 0.09270  0.18232  0.27770  Biso   1.000  O
  O4       1.0000 0.90730  0.68232  0.22230  Biso   1.000  O
  O5       1.0000 0.82520  0.78536  0.48970  Biso   1.000  O
  O6       1.0000 0.17480  0.28536  0.01030  Biso   1.000  O
  O7       1.0000 0.17480  0.21464  0.51030  Biso   1.000  O
  O8       1.0000 0.82520  0.71464  0.98970  Biso   1.000  O
  O9       1.0000 0.87940  0.14372  0.64210  Biso   1.000  O
  O10      1.0000 0.12060  0.64372  0.85790  Biso   1.000  O
  O11      1.0000 0.12060  0.85628  0.35790  Biso   1.000  O
  O12      1.0000 0.87940  0.35628  0.14210  Biso   1.000  O
  O13      1.0000 0.97410  0.06904  0.81920  Biso   1.000  O
  O14      1.0000 0.02590  0.56904  0.68080  Biso   1.000  O
  O15      1.0000 0.02590  0.93096  0.18080  Biso   1.000  O
  O16      1.0000 0.97410  0.43096  0.31920  Biso   1.000  O
  O17      1.0000 0.84770  0.67864  0.65630  Biso   1.000  O
  O18      1.0000 0.15230  0.17864  0.84370  Biso   1.000  O
  O19      1.0000 0.15230  0.32136  0.34370  Biso   1.000  O
  O20      1.0000 0.84770  0.82136  0.15630  Biso   1.000  O
  C1       1.0000 0.21290  0.84961  0.89940  Biso   1.000  C
  C2       1.0000 0.78710  0.34961  0.60060  Biso   1.000  C
  C3       1.0000 0.78710  0.15039  0.10060  Biso   1.000  C
  C4       1.0000 0.21290  0.65039  0.39940  Biso   1.000  C
  H1       1.0000 0.14190  0.88060  0.84640  Biso   1.000  H
  H2       1.0000 0.85810  0.38060  0.65360  Biso   1.000  H
  H3       1.0000 0.85810  0.11940  0.15360  Biso   1.000  H
  H4       1.0000 0.14190  0.61940  0.34640  Biso   1.000  H
  C5       1.0000 0.31670  0.75630  0.99730  Biso   1.000  C
  C6       1.0000 0.68330  0.25630  0.50270  Biso   1.000  C
  C7       1.0000 0.68330  0.24370  0.00270  Biso   1.000  C
  C8       1.0000 0.31670  0.74370  0.49730  Biso   1.000  C
  H5       1.0000 0.33120  0.71000  0.02300  Biso   1.000  H
  H6       1.0000 0.66880  0.21000  0.47700  Biso   1.000  H
  H7       1.0000 0.66880  0.29000  0.97700  Biso   1.000  H
  H8       1.0000 0.33120  0.79000  0.52300  Biso   1.000  H
  C9       1.0000 0.42180  0.80840  0.04250  Biso   1.000  C
  C10      1.0000 0.57820  0.30840  0.45750  Biso   1.000  C
  C11      1.0000 0.57820  0.19160  0.95750  Biso   1.000  C
  C12      1.0000 0.42180  0.69160  0.54250  Biso   1.000  C
  H9       1.0000 0.51940  0.80470  0.10560  Biso   1.000  H
  H10      1.0000 0.48060  0.30470  0.39440  Biso   1.000  H
  H11      1.0000 0.48060  0.19530  0.89440  Biso   1.000  H
  H12      1.0000 0.51940  0.69530  0.60560  Biso   1.000  H
  C13      1.0000 0.42970  0.93548  0.98950  Biso   1.000  C
  C14      1.0000 0.57030  0.43548  0.51050  Biso   1.000  C
  C15      1.0000 0.57030  0.06452  0.01050  Biso   1.000  C
  C16      1.0000 0.42970  0.56452  0.48950  Biso   1.000  C
  C17      1.0000 0.32780  0.99145  0.01290  Biso   1.000  C
  C18      1.0000 0.67220  0.49145  0.48710  Biso   1.000  C
  C19      1.0000 0.67220  0.00855  0.98710  Biso   1.000  C
  C20      1.0000 0.32780  0.50855  0.51290  Biso   1.000  C
  H13      1.0000 0.21280  0.98560  0.02180  Biso   1.000  H
  H14      1.0000 0.78720  0.48560  0.47820  Biso   1.000  H
  H15      1.0000 0.78720  0.01440  0.97820  Biso   1.000  H
  H16      1.0000 0.21280  0.51440  0.52180  Biso   1.000  H
  C21      1.0000 0.59990  0.94314  0.97700  Biso   1.000  C
  C22      1.0000 0.40010  0.44314  0.52300  Biso   1.000  C
  C23      1.0000 0.40010  0.05686  0.02300  Biso   1.000  C
  C24      1.0000 0.59990  0.55686  0.47700  Biso   1.000  C
  H17      1.0000 0.66660  0.90470  0.96190  Biso   1.000  H
  H18      1.0000 0.33340  0.40470  0.53810  Biso   1.000  H
  H19      1.0000 0.33340  0.09530  0.03810  Biso   1.000  H
  H20      1.0000 0.66660  0.59530  0.46190  Biso   1.000  H
  C25      1.0000 0.79740  0.90322  0.55410  Biso   1.000  C
  C26      1.0000 0.20260  0.40322  0.94590  Biso   1.000  C
  C27      1.0000 0.20260  0.09678  0.44590  Biso   1.000  C
  C28      1.0000 0.79740  0.59678  0.05410  Biso   1.000  C
  C29      1.0000 0.85490  0.95745  0.64500  Biso   1.000  C
  C30      1.0000 0.14510  0.45745  0.85500  Biso   1.000  C
  C31      1.0000 0.14510  0.04255  0.35500  Biso   1.000  C
  C32      1.0000 0.85490  0.54255  0.14500  Biso   1.000  C
  H21      1.0000 0.91670  0.94810  0.73440  Biso   1.000  H
  H22      1.0000 0.08330  0.44810  0.76560  Biso   1.000  H
  H23      1.0000 0.08330  0.05190  0.26560  Biso   1.000  H
  H24      1.0000 0.91670  0.55190  0.23440  Biso   1.000  H
  C33      1.0000 0.82110  0.02568  0.60380  Biso   1.000  C
  C34      1.0000 0.17890  0.52568  0.89620  Biso   1.000  C
  C35      1.0000 0.17890  0.97432  0.39620  Biso   1.000  C
  C36      1.0000 0.82110  0.47432  0.10380  Biso   1.000  C
  C37      1.0000 0.72230  0.03875  0.47280  Biso   1.000  C
  C38      1.0000 0.27770  0.53875  0.02720  Biso   1.000  C
  C39      1.0000 0.27770  0.96125  0.52720  Biso   1.000  C
  C40      1.0000 0.72230  0.46125  0.97280  Biso   1.000  C
  H25      1.0000 0.69860  0.08410  0.44450  Biso   1.000  H
  H26      1.0000 0.30140  0.58410  0.05550  Biso   1.000  H
  H27      1.0000 0.30140  0.91590  0.55550  Biso   1.000  H
  H28      1.0000 0.69860  0.41590  0.94450  Biso   1.000  H
  C41      1.0000 0.65930  0.98518  0.38450  Biso   1.000  C
  C42      1.0000 0.34070  0.48518  0.11550  Biso   1.000  C
  C43      1.0000 0.34070  0.01482  0.61550  Biso   1.000  C
  C44      1.0000 0.65930  0.51482  0.88450  Biso   1.000  C
  H29      1.0000 0.59100  0.99450  0.29860  Biso   1.000  H
  H30      1.0000 0.40900  0.49450  0.20140  Biso   1.000  H
  H31      1.0000 0.40900  0.00550  0.70140  Biso   1.000  H
  H32      1.0000 0.59100  0.50550  0.79860  Biso   1.000  H
  C45      1.0000 0.69800  0.91734  0.42400  Biso   1.000  C
  C46      1.0000 0.30200  0.41734  0.07600  Biso   1.000  C
  C47      1.0000 0.30200  0.08266  0.57600  Biso   1.000  C
  C48      1.0000 0.69800  0.58266  0.92400  Biso   1.000  C
  H33      1.0000 0.65750  0.88120  0.36330  Biso   1.000  H
  H34      1.0000 0.34250  0.38120  0.13670  Biso   1.000  H
  H35      1.0000 0.34250  0.11880  0.63670  Biso   1.000  H
  H36      1.0000 0.65750  0.61880  0.86330  Biso   1.000  H
  C49      1.0000 0.84570  0.82998  0.59000  Biso   1.000  C
  C50      1.0000 0.15430  0.32998  0.91000  Biso   1.000  C
  C51      1.0000 0.15430  0.17002  0.41000  Biso   1.000  C
  C52      1.0000 0.84570  0.67002  0.09000  Biso   1.000  C
  C53      1.0000 0.89770  0.08331  0.69750  Biso   1.000  C
  C54      1.0000 0.10230  0.58331  0.80250  Biso   1.000  C
  C55      1.0000 0.10230  0.91669  0.30250  Biso   1.000  C
  C56      1.0000 0.89770  0.41669  0.19750  Biso   1.000  C
  H37      1.0000 0.84710  0.70610  0.58190  Biso   1.000  H
  H38      1.0000 0.15290  0.20610  0.91810  Biso   1.000  H
  H39      1.0000 0.15290  0.29390  0.41810  Biso   1.000  H
  H40      1.0000 0.84710  0.79390  0.08190  Biso   1.000  H
  H41      1.0000 0.91430  0.64490  0.64610  Biso   1.000  H
  H42      1.0000 0.08570  0.14490  0.85390  Biso   1.000  H
  H43      1.0000 0.08570  0.35510  0.35390  Biso   1.000  H
  H44      1.0000 0.91430  0.85510  0.14610  Biso   1.000  H
