data_image0
_cell_length_a       12.969
_cell_length_b       8.3153
_cell_length_c       16.004
_cell_angle_alpha    90
_cell_angle_beta     103.36
_cell_angle_gamma    90

_symmetry_space_group_name_H-M    "P 1"
_symmetry_int_tables_number       1

loop_
  _symmetry_equiv_pos_as_xyz
  'x, y, z'

loop_
  _atom_site_label
  _atom_site_occupancy
  _atom_site_fract_x
  _atom_site_fract_y
  _atom_site_fract_z
  _atom_site_thermal_displace_type
  _atom_site_B_iso_or_equiv
  _atom_site_type_symbol
  Cu1      1.0000 0.12620  0.11400  0.00290  Biso   1.000  Cu
  Cu2      1.0000 0.37380  0.61400  0.99710  Biso   1.000  Cu
  Cu3      1.0000 0.87380  0.88600  0.99710  Biso   1.000  Cu
  Cu4      1.0000 0.62620  0.38600  0.00290  Biso   1.000  Cu
  O1       1.0000 0.10360  0.90090  0.94870  Biso   1.000  O
  O2       1.0000 0.39640  0.40090  0.05130  Biso   1.000  O
  O3       1.0000 0.89640  0.09910  0.05130  Biso   1.000  O
  O4       1.0000 0.60360  0.59910  0.94870  Biso   1.000  O
  O5       1.0000 0.09380  0.78330  0.82240  Biso   1.000  O
  O6       1.0000 0.40620  0.28330  0.17760  Biso   1.000  O
  O7       1.0000 0.90620  0.21670  0.17760  Biso   1.000  O
  O8       1.0000 0.59380  0.71670  0.82240  Biso   1.000  O
  O9       1.0000 0.05320  0.41820  0.58760  Biso   1.000  O
  O10      1.0000 0.44680  0.91820  0.41240  Biso   1.000  O
  O11      1.0000 0.94680  0.58180  0.41240  Biso   1.000  O
  O12      1.0000 0.55320  0.08180  0.58760  Biso   1.000  O
  O13      1.0000 0.03920  0.15410  0.56500  Biso   1.000  O
  O14      1.0000 0.46080  0.65410  0.43500  Biso   1.000  O
  O15      1.0000 0.96080  0.84590  0.43500  Biso   1.000  O
  O16      1.0000 0.53920  0.34590  0.56500  Biso   1.000  O
  N1       1.0000 0.08130  0.18860  0.88060  Biso   1.000  N
  N2       1.0000 0.41870  0.68860  0.11940  Biso   1.000  N
  N3       1.0000 0.91870  0.81140  0.11940  Biso   1.000  N
  N4       1.0000 0.58130  0.31140  0.88060  Biso   1.000  N
  C1       1.0000 0.08130  0.06740  0.82750  Biso   1.000  C
  C2       1.0000 0.41870  0.56740  0.17250  Biso   1.000  C
  C3       1.0000 0.91870  0.93260  0.17250  Biso   1.000  C
  C4       1.0000 0.58130  0.43260  0.82750  Biso   1.000  C
  C5       1.0000 0.07050  0.09200  0.74050  Biso   1.000  C
  C6       1.0000 0.42950  0.59200  0.25950  Biso   1.000  C
  C7       1.0000 0.92950  0.90800  0.25950  Biso   1.000  C
  C8       1.0000 0.57050  0.40800  0.74050  Biso   1.000  C
  C9       1.0000 0.05520  0.24740  0.70880  Biso   1.000  C
  C10      1.0000 0.44480  0.74740  0.29120  Biso   1.000  C
  C11      1.0000 0.94480  0.75260  0.29120  Biso   1.000  C
  C12      1.0000 0.55520  0.25260  0.70880  Biso   1.000  C
  C13      1.0000 0.04860  0.37090  0.76350  Biso   1.000  C
  C14      1.0000 0.45140  0.87090  0.23650  Biso   1.000  C
  C15      1.0000 0.95140  0.62910  0.23650  Biso   1.000  C
  C16      1.0000 0.54860  0.12910  0.76350  Biso   1.000  C
  C17      1.0000 0.06260  0.33910  0.85170  Biso   1.000  C
  C18      1.0000 0.43740  0.83910  0.14830  Biso   1.000  C
  C19      1.0000 0.93740  0.66090  0.14830  Biso   1.000  C
  C20      1.0000 0.56260  0.16090  0.85170  Biso   1.000  C
  C21      1.0000 0.09630  0.90260  0.86610  Biso   1.000  C
  C22      1.0000 0.40370  0.40260  0.13390  Biso   1.000  C
  C23      1.0000 0.90370  0.09740  0.13390  Biso   1.000  C
  C24      1.0000 0.59630  0.59740  0.86610  Biso   1.000  C
  C25      1.0000 0.04800  0.27650  0.61200  Biso   1.000  C
  C26      1.0000 0.45200  0.77650  0.38800  Biso   1.000  C
  C27      1.0000 0.95200  0.72350  0.38800  Biso   1.000  C
  C28      1.0000 0.54800  0.22350  0.61200  Biso   1.000  C
  O17      1.0000 0.12750  0.32400  0.05730  Biso   1.000  O
  O18      1.0000 0.37250  0.82400  0.94270  Biso   1.000  O
  O19      1.0000 0.87250  0.67600  0.94270  Biso   1.000  O
  O20      1.0000 0.62750  0.17600  0.05730  Biso   1.000  O
  O21      1.0000 0.15430  0.44160  0.18740  Biso   1.000  O
  O22      1.0000 0.34570  0.94160  0.81260  Biso   1.000  O
  O23      1.0000 0.84570  0.55840  0.81260  Biso   1.000  O
  O24      1.0000 0.65430  0.05840  0.18740  Biso   1.000  O
  O25      1.0000 0.20960  0.80300  0.41910  Biso   1.000  O
  O26      1.0000 0.29040  0.30300  0.58090  Biso   1.000  O
  O27      1.0000 0.79040  0.19700  0.58090  Biso   1.000  O
  O28      1.0000 0.70960  0.69700  0.41910  Biso   1.000  O
  O29      1.0000 0.18620  0.06530  0.43500  Biso   1.000  O
  O30      1.0000 0.31380  0.56530  0.56500  Biso   1.000  O
  O31      1.0000 0.81380  0.93470  0.56500  Biso   1.000  O
  O32      1.0000 0.68620  0.43470  0.43500  Biso   1.000  O
  N5       1.0000 0.15400  0.03630  0.12430  Biso   1.000  N
  N6       1.0000 0.34600  0.53630  0.87570  Biso   1.000  N
  N7       1.0000 0.84600  0.96370  0.87570  Biso   1.000  N
  N8       1.0000 0.65400  0.46370  0.12430  Biso   1.000  N
  C29      1.0000 0.16170  0.15660  0.17760  Biso   1.000  C
  C30      1.0000 0.33830  0.65660  0.82240  Biso   1.000  C
  C31      1.0000 0.83830  0.84340  0.82240  Biso   1.000  C
  C32      1.0000 0.66170  0.34340  0.17760  Biso   1.000  C
  C33      1.0000 0.17650  0.12930  0.26510  Biso   1.000  C
  C34      1.0000 0.32350  0.62930  0.73490  Biso   1.000  C
  C35      1.0000 0.82350  0.87070  0.73490  Biso   1.000  C
  C36      1.0000 0.67650  0.37070  0.26510  Biso   1.000  C
  C37      1.0000 0.18890  0.97160  0.29620  Biso   1.000  C
  C38      1.0000 0.31110  0.47160  0.70380  Biso   1.000  C
  C39      1.0000 0.81110  0.02840  0.70380  Biso   1.000  C
  C40      1.0000 0.68890  0.52840  0.29620  Biso   1.000  C
  C41      1.0000 0.18400  0.84950  0.23940  Biso   1.000  C
  C42      1.0000 0.31600  0.34950  0.76060  Biso   1.000  C
  C43      1.0000 0.81600  0.15050  0.76060  Biso   1.000  C
  C44      1.0000 0.68400  0.65050  0.23940  Biso   1.000  C
  C45      1.0000 0.16890  0.88530  0.15260  Biso   1.000  C
  C46      1.0000 0.33110  0.38530  0.84740  Biso   1.000  C
  C47      1.0000 0.83110  0.11470  0.84740  Biso   1.000  C
  C48      1.0000 0.66890  0.61470  0.15260  Biso   1.000  C
  C49      1.0000 0.14730  0.32210  0.13890  Biso   1.000  C
  C50      1.0000 0.35270  0.82210  0.86110  Biso   1.000  C
  C51      1.0000 0.85270  0.67790  0.86110  Biso   1.000  C
  C52      1.0000 0.64730  0.17790  0.13890  Biso   1.000  C
  C53      1.0000 0.19590  0.94550  0.39130  Biso   1.000  C
  C54      1.0000 0.30410  0.44550  0.60870  Biso   1.000  C
  C55      1.0000 0.80410  0.05450  0.60870  Biso   1.000  C
  C56      1.0000 0.69590  0.55450  0.39130  Biso   1.000  C
  Na1      1.0000 0.12080  0.90550  0.54010  Biso   1.000  Na
  Na2      1.0000 0.37920  0.40550  0.45990  Biso   1.000  Na
  Na3      1.0000 0.87920  0.09450  0.45990  Biso   1.000  Na
  Na4      1.0000 0.62080  0.59450  0.54010  Biso   1.000  Na
  Na5      1.0000 0.11950  0.31530  0.46390  Biso   1.000  Na
  Na6      1.0000 0.38050  0.81530  0.53610  Biso   1.000  Na
  Na7      1.0000 0.88050  0.68470  0.53610  Biso   1.000  Na
  Na8      1.0000 0.61950  0.18470  0.46390  Biso   1.000  Na
  O33      1.0000 0.29750  0.11130  0.99430  Biso   1.000  O
  O34      1.0000 0.20250  0.61130  0.00570  Biso   1.000  O
  O35      1.0000 0.70250  0.88870  0.00570  Biso   1.000  O
  O36      1.0000 0.79750  0.38870  0.99430  Biso   1.000  O
  O37      1.0000 0.29420  0.98210  0.62770  Biso   1.000  O
  O38      1.0000 0.20580  0.48210  0.37230  Biso   1.000  O
  O39      1.0000 0.70580  0.01790  0.37230  Biso   1.000  O
  O40      1.0000 0.79420  0.51790  0.62770  Biso   1.000  O
  O41      1.0000 0.06180  0.72760  0.63750  Biso   1.000  O
  O42      1.0000 0.43820  0.22760  0.36250  Biso   1.000  O
  O43      1.0000 0.93820  0.27240  0.36250  Biso   1.000  O
  O44      1.0000 0.56180  0.77240  0.63750  Biso   1.000  O
  H1       1.0000 0.07340  0.00600  0.70390  Biso   1.000  H
  H2       1.0000 0.42660  0.50600  0.29610  Biso   1.000  H
  H3       1.0000 0.92660  0.99400  0.29610  Biso   1.000  H
  H4       1.0000 0.57340  0.49400  0.70390  Biso   1.000  H
  H5       1.0000 0.03490  0.47500  0.74260  Biso   1.000  H
  H6       1.0000 0.46510  0.97500  0.25740  Biso   1.000  H
  H7       1.0000 0.96510  0.52500  0.25740  Biso   1.000  H
  H8       1.0000 0.53490  0.02500  0.74260  Biso   1.000  H
  H9       1.0000 0.05890  0.42230  0.88980  Biso   1.000  H
  H10      1.0000 0.44110  0.92230  0.11020  Biso   1.000  H
  H11      1.0000 0.94110  0.57770  0.11020  Biso   1.000  H
  H12      1.0000 0.55890  0.07770  0.88980  Biso   1.000  H
  H13      1.0000 0.17820  0.21500  0.30270  Biso   1.000  H
  H14      1.0000 0.32180  0.71500  0.69730  Biso   1.000  H
  H15      1.0000 0.82180  0.78500  0.69730  Biso   1.000  H
  H16      1.0000 0.67820  0.28500  0.30270  Biso   1.000  H
  H17      1.0000 0.19070  0.74340  0.25820  Biso   1.000  H
  H18      1.0000 0.30930  0.24340  0.74180  Biso   1.000  H
  H19      1.0000 0.80930  0.25660  0.74180  Biso   1.000  H
  H20      1.0000 0.69070  0.75660  0.25820  Biso   1.000  H
  H21      1.0000 0.16910  0.80250  0.11360  Biso   1.000  H
  H22      1.0000 0.33090  0.30250  0.88640  Biso   1.000  H
  H23      1.0000 0.83090  0.19750  0.88640  Biso   1.000  H
  H24      1.0000 0.66910  0.69750  0.11360  Biso   1.000  H
