data_image0
_cell_length_a       15.5323
_cell_length_b       9.6926
_cell_length_c       16.0408
_cell_angle_alpha    90
_cell_angle_beta     97.406
_cell_angle_gamma    90

_symmetry_space_group_name_H-M    "P 1"
_symmetry_int_tables_number       1

loop_
  _symmetry_equiv_pos_as_xyz
  'x, y, z'

loop_
  _atom_site_label
  _atom_site_occupancy
  _atom_site_fract_x
  _atom_site_fract_y
  _atom_site_fract_z
  _atom_site_thermal_displace_type
  _atom_site_B_iso_or_equiv
  _atom_site_type_symbol
  C1       1.0000 0.85820  0.71110  0.03513  Biso   1.000  C
  C2       1.0000 0.14180  0.21110  0.46487  Biso   1.000  C
  C3       1.0000 0.14180  0.28890  0.96487  Biso   1.000  C
  C4       1.0000 0.85820  0.78890  0.53513  Biso   1.000  C
  H1       1.0000 0.80580  0.74810  0.00860  Biso   1.000  H
  H2       1.0000 0.19420  0.24810  0.49140  Biso   1.000  H
  H3       1.0000 0.19420  0.25190  0.99140  Biso   1.000  H
  H4       1.0000 0.80580  0.75190  0.50860  Biso   1.000  H
  C5       1.0000 0.93320  0.69980  0.99698  Biso   1.000  C
  C6       1.0000 0.06680  0.19980  0.50302  Biso   1.000  C
  C7       1.0000 0.06680  0.30020  0.00302  Biso   1.000  C
  C8       1.0000 0.93320  0.80020  0.49698  Biso   1.000  C
  H5       1.0000 0.94010  0.72660  0.94190  Biso   1.000  H
  H6       1.0000 0.05990  0.22660  0.55810  Biso   1.000  H
  H7       1.0000 0.05990  0.27340  0.05810  Biso   1.000  H
  H8       1.0000 0.94010  0.77340  0.44190  Biso   1.000  H
  C9       1.0000 0.99500  0.64180  0.05505  Biso   1.000  C
  C10      1.0000 0.00500  0.14180  0.44495  Biso   1.000  C
  C11      1.0000 0.00500  0.35820  0.94495  Biso   1.000  C
  C12      1.0000 0.99500  0.85820  0.55505  Biso   1.000  C
  H9       1.0000 0.05280  0.62150  0.04770  Biso   1.000  H
  H10      1.0000 0.94720  0.12150  0.45230  Biso   1.000  H
  H11      1.0000 0.94720  0.37850  0.95230  Biso   1.000  H
  H12      1.0000 0.05280  0.87850  0.54770  Biso   1.000  H
  C13      1.0000 0.95470  0.61830  0.12895  Biso   1.000  C
  C14      1.0000 0.04530  0.11830  0.37105  Biso   1.000  C
  C15      1.0000 0.04530  0.38170  0.87105  Biso   1.000  C
  C16      1.0000 0.95470  0.88170  0.62895  Biso   1.000  C
  C17      1.0000 0.99208  0.55960  0.20394  Biso   1.000  C
  C18      1.0000 0.00792  0.05960  0.29606  Biso   1.000  C
  C19      1.0000 0.00792  0.44040  0.79606  Biso   1.000  C
  C20      1.0000 0.99208  0.94040  0.70394  Biso   1.000  C
  C21      1.0000 0.94842  0.53070  0.27360  Biso   1.000  C
  C22      1.0000 0.05158  0.03070  0.22640  Biso   1.000  C
  C23      1.0000 0.05158  0.46930  0.72640  Biso   1.000  C
  C24      1.0000 0.94842  0.96930  0.77360  Biso   1.000  C
  C25      1.0000 0.98411  0.47970  0.35351  Biso   1.000  C
  C26      1.0000 0.01589  0.97970  0.14649  Biso   1.000  C
  C27      1.0000 0.01589  0.52030  0.64649  Biso   1.000  C
  C28      1.0000 0.98411  0.02030  0.85351  Biso   1.000  C
  H13      1.0000 0.04260  0.45690  0.37050  Biso   1.000  H
  H14      1.0000 0.95740  0.95690  0.12950  Biso   1.000  H
  H15      1.0000 0.95740  0.54310  0.62950  Biso   1.000  H
  H16      1.0000 0.04260  0.04310  0.87050  Biso   1.000  H
  C29      1.0000 0.91730  0.46970  0.40145  Biso   1.000  C
  C30      1.0000 0.08270  0.96970  0.09855  Biso   1.000  C
  C31      1.0000 0.08270  0.53030  0.59855  Biso   1.000  C
  C32      1.0000 0.91730  0.03030  0.90145  Biso   1.000  C
  H17      1.0000 0.92090  0.43910  0.45740  Biso   1.000  H
  H18      1.0000 0.07910  0.93910  0.04260  Biso   1.000  H
  H19      1.0000 0.07910  0.56090  0.54260  Biso   1.000  H
  H20      1.0000 0.92090  0.06090  0.95740  Biso   1.000  H
  C33      1.0000 0.84223  0.51440  0.34997  Biso   1.000  C
  C34      1.0000 0.15777  0.01440  0.15003  Biso   1.000  C
  C35      1.0000 0.15777  0.48560  0.65003  Biso   1.000  C
  C36      1.0000 0.84223  0.98560  0.84997  Biso   1.000  C
  H21      1.0000 0.78670  0.51830  0.36710  Biso   1.000  H
  H22      1.0000 0.21330  0.01830  0.13290  Biso   1.000  H
  H23      1.0000 0.21330  0.48170  0.63290  Biso   1.000  H
  H24      1.0000 0.78670  0.98170  0.86710  Biso   1.000  H
  C37      1.0000 0.08640  0.52580  0.21238  Biso   1.000  C
  C38      1.0000 0.91360  0.02580  0.28762  Biso   1.000  C
  C39      1.0000 0.91360  0.47420  0.78762  Biso   1.000  C
  C40      1.0000 0.08640  0.97420  0.71238  Biso   1.000  C
  C41      1.0000 0.14970  0.62420  0.20190  Biso   1.000  C
  C42      1.0000 0.85030  0.12420  0.29810  Biso   1.000  C
  C43      1.0000 0.85030  0.37580  0.79810  Biso   1.000  C
  C44      1.0000 0.14970  0.87580  0.70190  Biso   1.000  C
  H25      1.0000 0.13420  0.71580  0.18760  Biso   1.000  H
  H26      1.0000 0.86580  0.21580  0.31240  Biso   1.000  H
  H27      1.0000 0.86580  0.28420  0.81240  Biso   1.000  H
  H28      1.0000 0.13420  0.78420  0.68760  Biso   1.000  H
  C45      1.0000 0.23570  0.58390  0.21280  Biso   1.000  C
  C46      1.0000 0.76430  0.08390  0.28720  Biso   1.000  C
  C47      1.0000 0.76430  0.41610  0.78720  Biso   1.000  C
  C48      1.0000 0.23570  0.91610  0.71280  Biso   1.000  C
  H29      1.0000 0.27940  0.64800  0.20510  Biso   1.000  H
  H30      1.0000 0.72060  0.14800  0.29490  Biso   1.000  H
  H31      1.0000 0.72060  0.35200  0.79490  Biso   1.000  H
  H32      1.0000 0.27940  0.85200  0.70510  Biso   1.000  H
  C49      1.0000 0.11485  0.39290  0.23266  Biso   1.000  C
  C50      1.0000 0.88515  0.89290  0.26734  Biso   1.000  C
  C51      1.0000 0.88515  0.60710  0.76734  Biso   1.000  C
  C52      1.0000 0.11485  0.10710  0.73266  Biso   1.000  C
  H33      1.0000 0.07260  0.32520  0.23820  Biso   1.000  H
  H34      1.0000 0.92740  0.82520  0.26180  Biso   1.000  H
  H35      1.0000 0.92740  0.67480  0.76180  Biso   1.000  H
  H36      1.0000 0.07260  0.17480  0.73820  Biso   1.000  H
  C53      1.0000 0.25730  0.45160  0.23500  Biso   1.000  C
  C54      1.0000 0.74270  0.95160  0.26500  Biso   1.000  C
  C55      1.0000 0.74270  0.54840  0.76500  Biso   1.000  C
  C56      1.0000 0.25730  0.04840  0.73500  Biso   1.000  C
  H37      1.0000 0.31640  0.42700  0.24360  Biso   1.000  H
  H38      1.0000 0.68360  0.92700  0.25640  Biso   1.000  H
  H39      1.0000 0.68360  0.57300  0.75640  Biso   1.000  H
  H40      1.0000 0.31640  0.07300  0.74360  Biso   1.000  H
  C57      1.0000 0.57170  0.75630  0.00270  Biso   1.000  C
  C58      1.0000 0.42830  0.25630  0.49730  Biso   1.000  C
  C59      1.0000 0.42830  0.24370  0.99730  Biso   1.000  C
  C60      1.0000 0.57170  0.74370  0.50270  Biso   1.000  C
  C61      1.0000 0.61510  0.69730  0.08750  Biso   1.000  C
  C62      1.0000 0.38490  0.19730  0.41250  Biso   1.000  C
  C63      1.0000 0.38490  0.30270  0.91250  Biso   1.000  C
  C64      1.0000 0.61510  0.80270  0.58750  Biso   1.000  C
  C65      1.0000 0.56700  0.61920  0.13470  Biso   1.000  C
  C66      1.0000 0.43300  0.11920  0.36530  Biso   1.000  C
  C67      1.0000 0.43300  0.38080  0.86530  Biso   1.000  C
  C68      1.0000 0.56700  0.88080  0.63470  Biso   1.000  C
  H41      1.0000 0.50790  0.60350  0.11610  Biso   1.000  H
  H42      1.0000 0.49210  0.10350  0.38390  Biso   1.000  H
  H43      1.0000 0.49210  0.39650  0.88390  Biso   1.000  H
  H44      1.0000 0.50790  0.89650  0.61610  Biso   1.000  H
  C69      1.0000 0.60390  0.56390  0.20850  Biso   1.000  C
  C70      1.0000 0.39610  0.06390  0.29150  Biso   1.000  C
  C71      1.0000 0.39610  0.43610  0.79150  Biso   1.000  C
  C72      1.0000 0.60390  0.93610  0.70850  Biso   1.000  C
  C73      1.0000 0.54680  0.47440  0.25820  Biso   1.000  C
  C74      1.0000 0.45320  0.97440  0.24180  Biso   1.000  C
  C75      1.0000 0.45320  0.52560  0.74180  Biso   1.000  C
  C76      1.0000 0.54680  0.02560  0.75820  Biso   1.000  C
  Cu1      1.0000 0.78073  0.64677  0.18985  Biso   1.000  Cu
  Cu2      1.0000 0.21927  0.14677  0.31015  Biso   1.000  Cu
  Cu3      1.0000 0.21927  0.35323  0.81015  Biso   1.000  Cu
  Cu4      1.0000 0.78073  0.85323  0.68985  Biso   1.000  Cu
  F1       1.0000 0.50000  0.70430  0.97640  Biso   1.000  F
  F2       1.0000 0.50000  0.20430  0.52360  Biso   1.000  F
  F3       1.0000 0.50000  0.29570  0.02360  Biso   1.000  F
  F4       1.0000 0.50000  0.79570  0.47640  Biso   1.000  F
  F5       1.0000 0.55610  0.88200  0.01090  Biso   1.000  F
  F6       1.0000 0.44390  0.38200  0.48910  Biso   1.000  F
  F7       1.0000 0.44390  0.11800  0.98910  Biso   1.000  F
  F8       1.0000 0.55610  0.61800  0.51090  Biso   1.000  F
  F9       1.0000 0.61820  0.74860  0.94490  Biso   1.000  F
  F10      1.0000 0.38180  0.24860  0.55510  Biso   1.000  F
  F11      1.0000 0.38180  0.25140  0.05510  Biso   1.000  F
  F12      1.0000 0.61820  0.75140  0.44490  Biso   1.000  F
  F13      1.0000 0.57540  0.35260  0.26560  Biso   1.000  F
  F14      1.0000 0.42460  0.85260  0.23440  Biso   1.000  F
  F15      1.0000 0.42460  0.64740  0.73440  Biso   1.000  F
  F16      1.0000 0.57540  0.14740  0.76560  Biso   1.000  F
  F17      1.0000 0.47440  0.44590  0.22380  Biso   1.000  F
  F18      1.0000 0.52560  0.94590  0.27620  Biso   1.000  F
  F19      1.0000 0.52560  0.55410  0.77620  Biso   1.000  F
  F20      1.0000 0.47440  0.05410  0.72380  Biso   1.000  F
  F21      1.0000 0.54300  0.51030  0.32550  Biso   1.000  F
  F22      1.0000 0.45700  0.01030  0.17450  Biso   1.000  F
  F23      1.0000 0.45700  0.48970  0.67450  Biso   1.000  F
  F24      1.0000 0.54300  0.98970  0.82550  Biso   1.000  F
  N1       1.0000 0.86906  0.66350  0.11395  Biso   1.000  N
  N2       1.0000 0.13094  0.16350  0.38605  Biso   1.000  N
  N3       1.0000 0.13094  0.33650  0.88605  Biso   1.000  N
  N4       1.0000 0.86906  0.83650  0.61395  Biso   1.000  N
  N5       1.0000 0.85990  0.55050  0.27366  Biso   1.000  N
  N6       1.0000 0.14010  0.05050  0.22634  Biso   1.000  N
  N7       1.0000 0.14010  0.44950  0.72634  Biso   1.000  N
  N8       1.0000 0.85990  0.94950  0.77366  Biso   1.000  N
  N9       1.0000 0.19763  0.35490  0.24483  Biso   1.000  N
  N10      1.0000 0.80237  0.85490  0.25517  Biso   1.000  N
  N11      1.0000 0.80237  0.64510  0.75517  Biso   1.000  N
  N12      1.0000 0.19763  0.14510  0.74483  Biso   1.000  N
  O1       1.0000 0.69429  0.72650  0.10183  Biso   1.000  O
  O2       1.0000 0.30571  0.22650  0.39817  Biso   1.000  O
  O3       1.0000 0.30571  0.27350  0.89817  Biso   1.000  O
  O4       1.0000 0.69429  0.77350  0.60183  Biso   1.000  O
  O5       1.0000 0.68070  0.57150  0.24307  Biso   1.000  O
  O6       1.0000 0.31930  0.07150  0.25693  Biso   1.000  O
  O7       1.0000 0.31930  0.42850  0.75693  Biso   1.000  O
  O8       1.0000 0.68070  0.92850  0.74307  Biso   1.000  O
