data_image0
_cell_length_a       8.4016
_cell_length_b       28.5805
_cell_length_c       16.3187
_cell_angle_alpha    90
_cell_angle_beta     95.745
_cell_angle_gamma    90

_symmetry_space_group_name_H-M    "P 1"
_symmetry_int_tables_number       1

loop_
  _symmetry_equiv_pos_as_xyz
  'x, y, z'

loop_
  _atom_site_label
  _atom_site_occupancy
  _atom_site_fract_x
  _atom_site_fract_y
  _atom_site_fract_z
  _atom_site_thermal_displace_type
  _atom_site_B_iso_or_equiv
  _atom_site_type_symbol
  C1       1.0000 0.36300  0.74538  0.45570  Biso   1.000  C
  C2       1.0000 0.63700  0.24538  0.04430  Biso   1.000  C
  C3       1.0000 0.63700  0.25462  0.54430  Biso   1.000  C
  C4       1.0000 0.36300  0.75462  0.95570  Biso   1.000  C
  H1       1.0000 0.28110  0.75750  0.48580  Biso   1.000  H
  H2       1.0000 0.71890  0.25750  0.01420  Biso   1.000  H
  H3       1.0000 0.71890  0.24250  0.51420  Biso   1.000  H
  H4       1.0000 0.28110  0.74250  0.98580  Biso   1.000  H
  C5       1.0000 0.49350  0.77193  0.43340  Biso   1.000  C
  C6       1.0000 0.50650  0.27193  0.06660  Biso   1.000  C
  C7       1.0000 0.50650  0.22807  0.56660  Biso   1.000  C
  C8       1.0000 0.49350  0.72807  0.93340  Biso   1.000  C
  H5       1.0000 0.51380  0.80410  0.44470  Biso   1.000  H
  H6       1.0000 0.48620  0.30410  0.05530  Biso   1.000  H
  H7       1.0000 0.48620  0.19590  0.55530  Biso   1.000  H
  H8       1.0000 0.51380  0.69590  0.94470  Biso   1.000  H
  C9       1.0000 0.58480  0.74218  0.39250  Biso   1.000  C
  C10      1.0000 0.41520  0.24218  0.10750  Biso   1.000  C
  C11      1.0000 0.41520  0.25782  0.60750  Biso   1.000  C
  C12      1.0000 0.58480  0.75782  0.89250  Biso   1.000  C
  H9       1.0000 0.68200  0.74960  0.37030  Biso   1.000  H
  H10      1.0000 0.31800  0.24960  0.12970  Biso   1.000  H
  H11      1.0000 0.31800  0.25040  0.62970  Biso   1.000  H
  H12      1.0000 0.68200  0.75040  0.87030  Biso   1.000  H
  C13      1.0000 0.50730  0.69784  0.38950  Biso   1.000  C
  C14      1.0000 0.49270  0.19784  0.11050  Biso   1.000  C
  C15      1.0000 0.49270  0.30216  0.61050  Biso   1.000  C
  C16      1.0000 0.50730  0.80216  0.88950  Biso   1.000  C
  C17      1.0000 0.55420  0.65690  0.35200  Biso   1.000  C
  C18      1.0000 0.44580  0.15690  0.14800  Biso   1.000  C
  C19      1.0000 0.44580  0.34310  0.64800  Biso   1.000  C
  C20      1.0000 0.55420  0.84310  0.85200  Biso   1.000  C
  C21      1.0000 0.47080  0.61460  0.34690  Biso   1.000  C
  C22      1.0000 0.52920  0.11460  0.15310  Biso   1.000  C
  C23      1.0000 0.52920  0.38540  0.65310  Biso   1.000  C
  C24      1.0000 0.47080  0.88540  0.84690  Biso   1.000  C
  C25      1.0000 0.51300  0.57285  0.30710  Biso   1.000  C
  C26      1.0000 0.48700  0.07285  0.19290  Biso   1.000  C
  C27      1.0000 0.48700  0.42715  0.69290  Biso   1.000  C
  C28      1.0000 0.51300  0.92715  0.80710  Biso   1.000  C
  H13      1.0000 0.60690  0.56780  0.28040  Biso   1.000  H
  H14      1.0000 0.39310  0.06780  0.21960  Biso   1.000  H
  H15      1.0000 0.39310  0.43220  0.71960  Biso   1.000  H
  H16      1.0000 0.60690  0.93220  0.78040  Biso   1.000  H
  C29      1.0000 0.39290  0.54126  0.31440  Biso   1.000  C
  C30      1.0000 0.60710  0.04126  0.18560  Biso   1.000  C
  C31      1.0000 0.60710  0.45874  0.68560  Biso   1.000  C
  C32      1.0000 0.39290  0.95874  0.81440  Biso   1.000  C
  H17      1.0000 0.38720  0.51020  0.29370  Biso   1.000  H
  H18      1.0000 0.61280  0.01020  0.20630  Biso   1.000  H
  H19      1.0000 0.61280  0.48980  0.70630  Biso   1.000  H
  H20      1.0000 0.38720  0.98980  0.79370  Biso   1.000  H
  C33      1.0000 0.27930  0.56386  0.35880  Biso   1.000  C
  C34      1.0000 0.72070  0.06386  0.14120  Biso   1.000  C
  C35      1.0000 0.72070  0.43614  0.64120  Biso   1.000  C
  C36      1.0000 0.27930  0.93614  0.85880  Biso   1.000  C
  H21      1.0000 0.18260  0.55000  0.37240  Biso   1.000  H
  H22      1.0000 0.81740  0.05000  0.12760  Biso   1.000  H
  H23      1.0000 0.81740  0.45000  0.62760  Biso   1.000  H
  H24      1.0000 0.18260  0.95000  0.87240  Biso   1.000  H
  C37      1.0000 0.70850  0.65885  0.31290  Biso   1.000  C
  C38      1.0000 0.29150  0.15885  0.18710  Biso   1.000  C
  C39      1.0000 0.29150  0.34115  0.68710  Biso   1.000  C
  C40      1.0000 0.70850  0.84115  0.81290  Biso   1.000  C
  C41      1.0000 0.85460  0.66273  0.36410  Biso   1.000  C
  C42      1.0000 0.14540  0.16273  0.13590  Biso   1.000  C
  C43      1.0000 0.14540  0.33727  0.63590  Biso   1.000  C
  C44      1.0000 0.85460  0.83727  0.86410  Biso   1.000  C
  H25      1.0000 0.84930  0.66400  0.42200  Biso   1.000  H
  H26      1.0000 0.15070  0.16400  0.07800  Biso   1.000  H
  H27      1.0000 0.15070  0.33600  0.57800  Biso   1.000  H
  H28      1.0000 0.84930  0.83600  0.92200  Biso   1.000  H
  C45      1.0000 0.00350  0.66251  0.25340  Biso   1.000  C
  C46      1.0000 0.99650  0.16251  0.24660  Biso   1.000  C
  C47      1.0000 0.99650  0.33749  0.74660  Biso   1.000  C
  C48      1.0000 0.00350  0.83749  0.75340  Biso   1.000  C
  C49      1.0000 0.15510  0.66602  0.22210  Biso   1.000  C
  C50      1.0000 0.84490  0.16602  0.27790  Biso   1.000  C
  C51      1.0000 0.84490  0.33398  0.77790  Biso   1.000  C
  C52      1.0000 0.15510  0.83398  0.72210  Biso   1.000  C
  H29      1.0000 0.24870  0.67100  0.25880  Biso   1.000  H
  H30      1.0000 0.75130  0.17100  0.24120  Biso   1.000  H
  H31      1.0000 0.75130  0.32900  0.74120  Biso   1.000  H
  H32      1.0000 0.24870  0.82900  0.75880  Biso   1.000  H
  C53      1.0000 0.16660  0.66235  0.14010  Biso   1.000  C
  C54      1.0000 0.83340  0.16235  0.35990  Biso   1.000  C
  C55      1.0000 0.83340  0.33765  0.85990  Biso   1.000  C
  C56      1.0000 0.16660  0.83765  0.64010  Biso   1.000  C
  H33      1.0000 0.26820  0.66480  0.11960  Biso   1.000  H
  H34      1.0000 0.73180  0.16480  0.38040  Biso   1.000  H
  H35      1.0000 0.73180  0.33520  0.88040  Biso   1.000  H
  H36      1.0000 0.26820  0.83520  0.61960  Biso   1.000  H
  C57      1.0000 0.02830  0.65487  0.08480  Biso   1.000  C
  C58      1.0000 0.97170  0.15487  0.41520  Biso   1.000  C
  C59      1.0000 0.97170  0.34513  0.91520  Biso   1.000  C
  C60      1.0000 0.02830  0.84513  0.58480  Biso   1.000  C
  H37      1.0000 0.03810  0.65110  0.02770  Biso   1.000  H
  H38      1.0000 0.96190  0.15110  0.47230  Biso   1.000  H
  H39      1.0000 0.96190  0.34890  0.97230  Biso   1.000  H
  H40      1.0000 0.03810  0.84890  0.52770  Biso   1.000  H
  C61      1.0000 0.88150  0.65304  0.11270  Biso   1.000  C
  C62      1.0000 0.11850  0.15304  0.38730  Biso   1.000  C
  C63      1.0000 0.11850  0.34696  0.88730  Biso   1.000  C
  C64      1.0000 0.88150  0.84696  0.61270  Biso   1.000  C
  H41      1.0000 0.78910  0.64910  0.07480  Biso   1.000  H
  H42      1.0000 0.21090  0.14910  0.42520  Biso   1.000  H
  H43      1.0000 0.21090  0.35090  0.92520  Biso   1.000  H
  H44      1.0000 0.78910  0.85090  0.57480  Biso   1.000  H
  C65      1.0000 0.86540  0.65694  0.19760  Biso   1.000  C
  C66      1.0000 0.13460  0.15694  0.30240  Biso   1.000  C
  C67      1.0000 0.13460  0.34306  0.80240  Biso   1.000  C
  C68      1.0000 0.86540  0.84306  0.69760  Biso   1.000  C
  C69      1.0000 0.71450  0.65509  0.23000  Biso   1.000  C
  C70      1.0000 0.28550  0.15509  0.27000  Biso   1.000  C
  C71      1.0000 0.28550  0.34491  0.77000  Biso   1.000  C
  C72      1.0000 0.71450  0.84491  0.73000  Biso   1.000  C
  H45      1.0000 0.61900  0.65130  0.19420  Biso   1.000  H
  H46      1.0000 0.38100  0.15130  0.30580  Biso   1.000  H
  H47      1.0000 0.38100  0.34870  0.80580  Biso   1.000  H
  H48      1.0000 0.61900  0.84870  0.69420  Biso   1.000  H
  C73      1.0000 0.96670  0.72058  0.62630  Biso   1.000  C
  C74      1.0000 0.03330  0.22058  0.87370  Biso   1.000  C
  C75      1.0000 0.03330  0.27942  0.37370  Biso   1.000  C
  C76      1.0000 0.96670  0.77942  0.12630  Biso   1.000  C
  H49      1.0000 0.05900  0.73840  0.65100  Biso   1.000  H
  H50      1.0000 0.94100  0.23840  0.84900  Biso   1.000  H
  H51      1.0000 0.94100  0.26160  0.34900  Biso   1.000  H
  H52      1.0000 0.05900  0.76160  0.15100  Biso   1.000  H
  H53      1.0000 0.90630  0.70820  0.66980  Biso   1.000  H
  H54      1.0000 0.09370  0.20820  0.83020  Biso   1.000  H
  H55      1.0000 0.09370  0.29180  0.33020  Biso   1.000  H
  H56      1.0000 0.90630  0.79180  0.16980  Biso   1.000  H
  H57      1.0000 0.89750  0.74120  0.59020  Biso   1.000  H
  H58      1.0000 0.10250  0.24120  0.90980  Biso   1.000  H
  H59      1.0000 0.10250  0.25880  0.40980  Biso   1.000  H
  H60      1.0000 0.89750  0.75880  0.09020  Biso   1.000  H
  C77      1.0000 0.02340  0.68089  0.57680  Biso   1.000  C
  C78      1.0000 0.97660  0.18089  0.92320  Biso   1.000  C
  C79      1.0000 0.97660  0.31911  0.42320  Biso   1.000  C
  C80      1.0000 0.02340  0.81911  0.07680  Biso   1.000  C
  C81      1.0000 0.97660  0.63530  0.59310  Biso   1.000  C
  C82      1.0000 0.02340  0.13530  0.90690  Biso   1.000  C
  C83      1.0000 0.02340  0.36470  0.40690  Biso   1.000  C
  C84      1.0000 0.97660  0.86470  0.09310  Biso   1.000  C
  H61      1.0000 0.91390  0.63060  0.63770  Biso   1.000  H
  H62      1.0000 0.08610  0.13060  0.86230  Biso   1.000  H
  H63      1.0000 0.08610  0.36940  0.36230  Biso   1.000  H
  H64      1.0000 0.91390  0.86940  0.13770  Biso   1.000  H
  C85      1.0000 0.01560  0.59630  0.54830  Biso   1.000  C
  C86      1.0000 0.98440  0.09630  0.95170  Biso   1.000  C
  C87      1.0000 0.98440  0.40370  0.45170  Biso   1.000  C
  C88      1.0000 0.01560  0.90370  0.04830  Biso   1.000  C
  C89      1.0000 0.95490  0.54857  0.57000  Biso   1.000  C
  C90      1.0000 0.04510  0.04857  0.93000  Biso   1.000  C
  C91      1.0000 0.04510  0.45143  0.43000  Biso   1.000  C
  C92      1.0000 0.95490  0.95143  0.07000  Biso   1.000  C
  H65      1.0000 0.88080  0.53690  0.52440  Biso   1.000  H
  H66      1.0000 0.11920  0.03690  0.97560  Biso   1.000  H
  H67      1.0000 0.11920  0.46310  0.47560  Biso   1.000  H
  H68      1.0000 0.88080  0.96310  0.02440  Biso   1.000  H
  H69      1.0000 0.89920  0.55090  0.61980  Biso   1.000  H
  H70      1.0000 0.10080  0.05090  0.88020  Biso   1.000  H
  H71      1.0000 0.10080  0.44910  0.38020  Biso   1.000  H
  H72      1.0000 0.89920  0.94910  0.11980  Biso   1.000  H
  H73      1.0000 0.04530  0.52700  0.57990  Biso   1.000  H
  H74      1.0000 0.95470  0.02700  0.92010  Biso   1.000  H
  H75      1.0000 0.95470  0.47300  0.42010  Biso   1.000  H
  H76      1.0000 0.04530  0.97300  0.07990  Biso   1.000  H
  C93      1.0000 0.13430  0.69623  0.82090  Biso   1.000  C
  C94      1.0000 0.86570  0.19623  0.67910  Biso   1.000  C
  C95      1.0000 0.86570  0.30377  0.17910  Biso   1.000  C
  C96      1.0000 0.13430  0.80377  0.32090  Biso   1.000  C
  H77      1.0000 0.22130  0.71480  0.80700  Biso   1.000  H
  H78      1.0000 0.77870  0.21480  0.69300  Biso   1.000  H
  H79      1.0000 0.77870  0.28520  0.19300  Biso   1.000  H
  H80      1.0000 0.22130  0.78520  0.30700  Biso   1.000  H
  C97      1.0000 0.00630  0.71343  0.86210  Biso   1.000  C
  C98      1.0000 0.99370  0.21343  0.63790  Biso   1.000  C
  C99      1.0000 0.99370  0.28657  0.13790  Biso   1.000  C
  C100     1.0000 0.00630  0.78657  0.36210  Biso   1.000  C
  H81      1.0000 0.99250  0.74460  0.88060  Biso   1.000  H
  H82      1.0000 0.00750  0.24460  0.61940  Biso   1.000  H
  H83      1.0000 0.00750  0.25540  0.11940  Biso   1.000  H
  H84      1.0000 0.99250  0.75540  0.38060  Biso   1.000  H
  C101     1.0000 0.90650  0.67635  0.87010  Biso   1.000  C
  C102     1.0000 0.09350  0.17635  0.62990  Biso   1.000  C
  C103     1.0000 0.09350  0.32365  0.12990  Biso   1.000  C
  C104     1.0000 0.90650  0.82365  0.37010  Biso   1.000  C
  H85      1.0000 0.80910  0.67680  0.89500  Biso   1.000  H
  H86      1.0000 0.19090  0.17680  0.60500  Biso   1.000  H
  H87      1.0000 0.19090  0.32320  0.10500  Biso   1.000  H
  H88      1.0000 0.80910  0.82320  0.39500  Biso   1.000  H
  C105     1.0000 0.97600  0.63676  0.83380  Biso   1.000  C
  C106     1.0000 0.02400  0.13676  0.66620  Biso   1.000  C
  C107     1.0000 0.02400  0.36324  0.16620  Biso   1.000  C
  C108     1.0000 0.97600  0.86324  0.33380  Biso   1.000  C
  C109     1.0000 0.92240  0.59079  0.83290  Biso   1.000  C
  C110     1.0000 0.07760  0.09079  0.66710  Biso   1.000  C
  C111     1.0000 0.07760  0.40921  0.16710  Biso   1.000  C
  C112     1.0000 0.92240  0.90921  0.33290  Biso   1.000  C
  C113     1.0000 0.00050  0.55213  0.80320  Biso   1.000  C
  C114     1.0000 0.99950  0.05213  0.69680  Biso   1.000  C
  C115     1.0000 0.99950  0.44787  0.19680  Biso   1.000  C
  C116     1.0000 0.00050  0.94787  0.30320  Biso   1.000  C
  C117     1.0000 0.95460  0.50447  0.80430  Biso   1.000  C
  C118     1.0000 0.04540  0.00447  0.69570  Biso   1.000  C
  C119     1.0000 0.04540  0.49553  0.19570  Biso   1.000  C
  C120     1.0000 0.95460  0.99553  0.30430  Biso   1.000  C
  H89      1.0000 0.86170  0.49230  0.82530  Biso   1.000  H
  H90      1.0000 0.13830  0.99230  0.67470  Biso   1.000  H
  H91      1.0000 0.13830  0.50770  0.17470  Biso   1.000  H
  H92      1.0000 0.86170  0.00770  0.32530  Biso   1.000  H
  C121     1.0000 0.06870  0.47927  0.76950  Biso   1.000  C
  C122     1.0000 0.93130  0.97927  0.73050  Biso   1.000  C
  C123     1.0000 0.93130  0.52073  0.23050  Biso   1.000  C
  C124     1.0000 0.06870  0.02073  0.26950  Biso   1.000  C
  H93      1.0000 0.07090  0.44630  0.76170  Biso   1.000  H
  H94      1.0000 0.92910  0.94630  0.73830  Biso   1.000  H
  H95      1.0000 0.92910  0.55370  0.23830  Biso   1.000  H
  H96      1.0000 0.07090  0.05370  0.26170  Biso   1.000  H
  C125     1.0000 0.18230  0.51196  0.74770  Biso   1.000  C
  C126     1.0000 0.81770  0.01196  0.75230  Biso   1.000  C
  C127     1.0000 0.81770  0.48804  0.25230  Biso   1.000  C
  C128     1.0000 0.18230  0.98804  0.24770  Biso   1.000  C
  H97      1.0000 0.27580  0.50390  0.72260  Biso   1.000  H
  H98      1.0000 0.72420  0.00390  0.77740  Biso   1.000  H
  H99      1.0000 0.72420  0.49610  0.27740  Biso   1.000  H
  H100     1.0000 0.27580  0.99610  0.22260  Biso   1.000  H
  C129     1.0000 0.76760  0.58315  0.86920  Biso   1.000  C
  C130     1.0000 0.23240  0.08315  0.63080  Biso   1.000  C
  C131     1.0000 0.23240  0.41685  0.13080  Biso   1.000  C
  C132     1.0000 0.76760  0.91685  0.36920  Biso   1.000  C
  C133     1.0000 0.62330  0.59732  0.82330  Biso   1.000  C
  C134     1.0000 0.37670  0.09732  0.67670  Biso   1.000  C
  C135     1.0000 0.37670  0.40268  0.17670  Biso   1.000  C
  C136     1.0000 0.62330  0.90268  0.32330  Biso   1.000  C
  H101     1.0000 0.62950  0.60880  0.76900  Biso   1.000  H
  H102     1.0000 0.37050  0.10880  0.73100  Biso   1.000  H
  H103     1.0000 0.37050  0.39120  0.23100  Biso   1.000  H
  H104     1.0000 0.62950  0.89120  0.26900  Biso   1.000  H
  C137     1.0000 0.47240  0.57993  0.92960  Biso   1.000  C
  C138     1.0000 0.52760  0.07993  0.57040  Biso   1.000  C
  C139     1.0000 0.52760  0.42007  0.07040  Biso   1.000  C
  C140     1.0000 0.47240  0.92007  0.42960  Biso   1.000  C
  C141     1.0000 0.32270  0.57921  0.96230  Biso   1.000  C
  C142     1.0000 0.67730  0.07921  0.53770  Biso   1.000  C
  C143     1.0000 0.67730  0.42079  0.03770  Biso   1.000  C
  C144     1.0000 0.32270  0.92079  0.46230  Biso   1.000  C
  H105     1.0000 0.22960  0.59000  0.93000  Biso   1.000  H
  H106     1.0000 0.77040  0.09000  0.57000  Biso   1.000  H
  H107     1.0000 0.77040  0.41000  0.07000  Biso   1.000  H
  H108     1.0000 0.22960  0.91000  0.43000  Biso   1.000  H
  C145     1.0000 0.31190  0.56308  0.04040  Biso   1.000  C
  C146     1.0000 0.68810  0.06308  0.45960  Biso   1.000  C
  C147     1.0000 0.68810  0.43692  0.95960  Biso   1.000  C
  C148     1.0000 0.31190  0.93692  0.54040  Biso   1.000  C
  H109     1.0000 0.21090  0.56270  0.06180  Biso   1.000  H
  H110     1.0000 0.78910  0.06270  0.43820  Biso   1.000  H
  H111     1.0000 0.78910  0.43730  0.93820  Biso   1.000  H
  H112     1.0000 0.21090  0.93730  0.56180  Biso   1.000  H
  C149     1.0000 0.44690  0.54712  0.08900  Biso   1.000  C
  C150     1.0000 0.55310  0.04712  0.41100  Biso   1.000  C
  C151     1.0000 0.55310  0.45288  0.91100  Biso   1.000  C
  C152     1.0000 0.44690  0.95288  0.58900  Biso   1.000  C
  H113     1.0000 0.43680  0.53580  0.14300  Biso   1.000  H
  H114     1.0000 0.56320  0.03580  0.35700  Biso   1.000  H
  H115     1.0000 0.56320  0.46420  0.85700  Biso   1.000  H
  H116     1.0000 0.43680  0.96420  0.64300  Biso   1.000  H
  C153     1.0000 0.59280  0.54759  0.05970  Biso   1.000  C
  C154     1.0000 0.40720  0.04759  0.44030  Biso   1.000  C
  C155     1.0000 0.40720  0.45241  0.94030  Biso   1.000  C
  C156     1.0000 0.59280  0.95241  0.55970  Biso   1.000  C
  H117     1.0000 0.68400  0.53670  0.09350  Biso   1.000  H
  H118     1.0000 0.31600  0.03670  0.40650  Biso   1.000  H
  H119     1.0000 0.31600  0.46330  0.90650  Biso   1.000  H
  H120     1.0000 0.68400  0.96330  0.59350  Biso   1.000  H
  C157     1.0000 0.60970  0.56409  0.98000  Biso   1.000  C
  C158     1.0000 0.39030  0.06409  0.52000  Biso   1.000  C
  C159     1.0000 0.39030  0.43591  0.02000  Biso   1.000  C
  C160     1.0000 0.60970  0.93591  0.48000  Biso   1.000  C
  C161     1.0000 0.75900  0.56623  0.94630  Biso   1.000  C
  C162     1.0000 0.24100  0.06623  0.55370  Biso   1.000  C
  C163     1.0000 0.24100  0.43377  0.05370  Biso   1.000  C
  C164     1.0000 0.75900  0.93377  0.44630  Biso   1.000  C
  H121     1.0000 0.85340  0.55580  0.97790  Biso   1.000  H
  H122     1.0000 0.14660  0.05580  0.52210  Biso   1.000  H
  H123     1.0000 0.14660  0.44420  0.02210  Biso   1.000  H
  H124     1.0000 0.85340  0.94420  0.47790  Biso   1.000  H
  C165     1.0000 0.52240  0.72457  0.65200  Biso   1.000  C
  C166     1.0000 0.47760  0.22457  0.84800  Biso   1.000  C
  C167     1.0000 0.47760  0.27543  0.34800  Biso   1.000  C
  C168     1.0000 0.52240  0.77543  0.15200  Biso   1.000  C
  H125     1.0000 0.43220  0.74650  0.64730  Biso   1.000  H
  H126     1.0000 0.56780  0.24650  0.85270  Biso   1.000  H
  H127     1.0000 0.56780  0.25350  0.35270  Biso   1.000  H
  H128     1.0000 0.43220  0.75350  0.14730  Biso   1.000  H
  H129     1.0000 0.58070  0.72710  0.60310  Biso   1.000  H
  H130     1.0000 0.41930  0.22710  0.89690  Biso   1.000  H
  H131     1.0000 0.41930  0.27290  0.39690  Biso   1.000  H
  H132     1.0000 0.58070  0.77290  0.10310  Biso   1.000  H
  H133     1.0000 0.59440  0.73210  0.70120  Biso   1.000  H
  H134     1.0000 0.40560  0.23210  0.79880  Biso   1.000  H
  H135     1.0000 0.40560  0.26790  0.29880  Biso   1.000  H
  H136     1.0000 0.59440  0.76790  0.20120  Biso   1.000  H
  C169     1.0000 0.46080  0.67540  0.65880  Biso   1.000  C
  C170     1.0000 0.53920  0.17540  0.84120  Biso   1.000  C
  C171     1.0000 0.53920  0.32460  0.34120  Biso   1.000  C
  C172     1.0000 0.46080  0.82460  0.15880  Biso   1.000  C
  C173     1.0000 0.50410  0.64071  0.60580  Biso   1.000  C
  C174     1.0000 0.49590  0.14071  0.89420  Biso   1.000  C
  C175     1.0000 0.49590  0.35929  0.39420  Biso   1.000  C
  C176     1.0000 0.50410  0.85929  0.10580  Biso   1.000  C
  H137     1.0000 0.57020  0.64930  0.56430  Biso   1.000  H
  H138     1.0000 0.42980  0.14930  0.93570  Biso   1.000  H
  H139     1.0000 0.42980  0.35070  0.43570  Biso   1.000  H
  H140     1.0000 0.57020  0.85070  0.06430  Biso   1.000  H
  C177     1.0000 0.45650  0.59402  0.60980  Biso   1.000  C
  C178     1.0000 0.54350  0.09402  0.89020  Biso   1.000  C
  C179     1.0000 0.54350  0.40598  0.39020  Biso   1.000  C
  C180     1.0000 0.45650  0.90598  0.10980  Biso   1.000  C
  C181     1.0000 0.50810  0.55901  0.54840  Biso   1.000  C
  C182     1.0000 0.49190  0.05901  0.95160  Biso   1.000  C
  C183     1.0000 0.49190  0.44099  0.45160  Biso   1.000  C
  C184     1.0000 0.50810  0.94099  0.04840  Biso   1.000  C
  H141     1.0000 0.57500  0.53490  0.57740  Biso   1.000  H
  H142     1.0000 0.42500  0.03490  0.92260  Biso   1.000  H
  H143     1.0000 0.42500  0.46510  0.42260  Biso   1.000  H
  H144     1.0000 0.57500  0.96510  0.07740  Biso   1.000  H
  H145     1.0000 0.56930  0.57500  0.50870  Biso   1.000  H
  H146     1.0000 0.43070  0.07500  0.99130  Biso   1.000  H
  H147     1.0000 0.43070  0.42500  0.49130  Biso   1.000  H
  H148     1.0000 0.56930  0.92500  0.00870  Biso   1.000  H
  H149     1.0000 0.41330  0.54430  0.51920  Biso   1.000  H
  H150     1.0000 0.58670  0.04430  0.98080  Biso   1.000  H
  H151     1.0000 0.58670  0.45570  0.48080  Biso   1.000  H
  H152     1.0000 0.41330  0.95570  0.01920  Biso   1.000  H
  Cu1      1.0000 0.21438  0.65090  0.44779  Biso   1.000  Cu
  Cu2      1.0000 0.78562  0.15090  0.05221  Biso   1.000  Cu
  Cu3      1.0000 0.78562  0.34910  0.55221  Biso   1.000  Cu
  Cu4      1.0000 0.21438  0.84910  0.94779  Biso   1.000  Cu
  Cu5      1.0000 0.26302  0.61239  0.74400  Biso   1.000  Cu
  Cu6      1.0000 0.73698  0.11239  0.75600  Biso   1.000  Cu
  Cu7      1.0000 0.73698  0.38761  0.25600  Biso   1.000  Cu
  Cu8      1.0000 0.26302  0.88761  0.24400  Biso   1.000  Cu
  N1       1.0000 0.36830  0.70154  0.42968  Biso   1.000  N
  N2       1.0000 0.63170  0.20154  0.07032  Biso   1.000  N
  N3       1.0000 0.63170  0.29846  0.57032  Biso   1.000  N
  N4       1.0000 0.36830  0.79846  0.92968  Biso   1.000  N
  N5       1.0000 0.32580  0.60735  0.37922  Biso   1.000  N
  N6       1.0000 0.67420  0.10735  0.12078  Biso   1.000  N
  N7       1.0000 0.67420  0.39265  0.62078  Biso   1.000  N
  N8       1.0000 0.32580  0.89265  0.87922  Biso   1.000  N
  N9       1.0000 0.99690  0.66472  0.33720  Biso   1.000  N
  N10      1.0000 0.00310  0.16472  0.16280  Biso   1.000  N
  N11      1.0000 0.00310  0.33528  0.66280  Biso   1.000  N
  N12      1.0000 0.99690  0.83528  0.83720  Biso   1.000  N
  N13      1.0000 0.11860  0.65120  0.80404  Biso   1.000  N
  N14      1.0000 0.88140  0.15120  0.69596  Biso   1.000  N
  N15      1.0000 0.88140  0.34880  0.19596  Biso   1.000  N
  N16      1.0000 0.11860  0.84880  0.30404  Biso   1.000  N
  N17      1.0000 0.14350  0.55545  0.76638  Biso   1.000  N
  N18      1.0000 0.85650  0.05545  0.73362  Biso   1.000  N
  N19      1.0000 0.85650  0.44455  0.23362  Biso   1.000  N
  N20      1.0000 0.14350  0.94455  0.26638  Biso   1.000  N
  N21      1.0000 0.48090  0.59561  0.85090  Biso   1.000  N
  N22      1.0000 0.51910  0.09561  0.64910  Biso   1.000  N
  N23      1.0000 0.51910  0.40439  0.14910  Biso   1.000  N
  N24      1.0000 0.48090  0.90439  0.35090  Biso   1.000  N
  O1       1.0000 0.11090  0.69263  0.52024  Biso   1.000  O
  O2       1.0000 0.88910  0.19263  0.97976  Biso   1.000  O
  O3       1.0000 0.88910  0.30737  0.47976  Biso   1.000  O
  O4       1.0000 0.11090  0.80737  0.02024  Biso   1.000  O
  O5       1.0000 0.10130  0.59700  0.48796  Biso   1.000  O
  O6       1.0000 0.89870  0.09700  0.01204  Biso   1.000  O
  O7       1.0000 0.89870  0.40300  0.51204  Biso   1.000  O
  O8       1.0000 0.10130  0.90300  0.98796  Biso   1.000  O
  O9       1.0000 0.37060  0.66951  0.71598  Biso   1.000  O
  O10      1.0000 0.62940  0.16951  0.78402  Biso   1.000  O
  O11      1.0000 0.62940  0.33049  0.28402  Biso   1.000  O
  O12      1.0000 0.37060  0.83049  0.21598  Biso   1.000  O
  O13      1.0000 0.37010  0.57734  0.66267  Biso   1.000  O
  O14      1.0000 0.62990  0.07734  0.83733  Biso   1.000  O
  O15      1.0000 0.62990  0.42266  0.33733  Biso   1.000  O
  O16      1.0000 0.37010  0.92266  0.16267  Biso   1.000  O
