data_image0
_cell_length_a       15.7479
_cell_length_b       9.6616
_cell_length_c       32.162
_cell_angle_alpha    90
_cell_angle_beta     94.283
_cell_angle_gamma    90

_symmetry_space_group_name_H-M    "P 1"
_symmetry_int_tables_number       1

loop_
  _symmetry_equiv_pos_as_xyz
  'x, y, z'

loop_
  _atom_site_label
  _atom_site_occupancy
  _atom_site_fract_x
  _atom_site_fract_y
  _atom_site_fract_z
  _atom_site_thermal_displace_type
  _atom_site_B_iso_or_equiv
  _atom_site_type_symbol
  C1       1.0000 0.00730  0.85090  0.25633  Biso   1.000  C
  C2       1.0000 0.49270  0.35090  0.24367  Biso   1.000  C
  C3       1.0000 0.99270  0.14910  0.74367  Biso   1.000  C
  C4       1.0000 0.50730  0.64910  0.75633  Biso   1.000  C
  H1       1.0000 0.95610  0.88730  0.24310  Biso   1.000  H
  H2       1.0000 0.54390  0.38730  0.25690  Biso   1.000  H
  H3       1.0000 0.04390  0.11270  0.75690  Biso   1.000  H
  H4       1.0000 0.45610  0.61270  0.74310  Biso   1.000  H
  C5       1.0000 0.02360  0.83770  0.30003  Biso   1.000  C
  C6       1.0000 0.47640  0.33770  0.19997  Biso   1.000  C
  C7       1.0000 0.97640  0.16230  0.69997  Biso   1.000  C
  C8       1.0000 0.52360  0.66230  0.80003  Biso   1.000  C
  H5       1.0000 0.98660  0.86290  0.32080  Biso   1.000  H
  H6       1.0000 0.51340  0.36290  0.17920  Biso   1.000  H
  H7       1.0000 0.01340  0.13710  0.67920  Biso   1.000  H
  H8       1.0000 0.48660  0.63710  0.82080  Biso   1.000  H
  C9       1.0000 0.10290  0.78170  0.30641  Biso   1.000  C
  C10      1.0000 0.39710  0.28170  0.19359  Biso   1.000  C
  C11      1.0000 0.89710  0.21830  0.69359  Biso   1.000  C
  C12      1.0000 0.60290  0.71830  0.80641  Biso   1.000  C
  H9       1.0000 0.13160  0.75930  0.33260  Biso   1.000  H
  H10      1.0000 0.36840  0.25930  0.16740  Biso   1.000  H
  H11      1.0000 0.86840  0.24070  0.66740  Biso   1.000  H
  H12      1.0000 0.63160  0.74070  0.83260  Biso   1.000  H
  C13      1.0000 0.13490  0.76300  0.26651  Biso   1.000  C
  C14      1.0000 0.36510  0.26300  0.23349  Biso   1.000  C
  C15      1.0000 0.86510  0.23700  0.73349  Biso   1.000  C
  C16      1.0000 0.63490  0.73700  0.76651  Biso   1.000  C
  C17      1.0000 0.21500  0.71230  0.25797  Biso   1.000  C
  C18      1.0000 0.28500  0.21230  0.24203  Biso   1.000  C
  C19      1.0000 0.78500  0.28770  0.74203  Biso   1.000  C
  C20      1.0000 0.71500  0.78770  0.75797  Biso   1.000  C
  C21      1.0000 0.24220  0.68700  0.21802  Biso   1.000  C
  C22      1.0000 0.25780  0.18700  0.28198  Biso   1.000  C
  C23      1.0000 0.75780  0.31300  0.78198  Biso   1.000  C
  C24      1.0000 0.74220  0.81300  0.71802  Biso   1.000  C
  C25      1.0000 0.32320  0.63870  0.20756  Biso   1.000  C
  C26      1.0000 0.17680  0.13870  0.29244  Biso   1.000  C
  C27      1.0000 0.67680  0.36130  0.79244  Biso   1.000  C
  C28      1.0000 0.82320  0.86130  0.70756  Biso   1.000  C
  H13      1.0000 0.36990  0.61420  0.22660  Biso   1.000  H
  H14      1.0000 0.13010  0.11420  0.27340  Biso   1.000  H
  H15      1.0000 0.63010  0.38580  0.77340  Biso   1.000  H
  H16      1.0000 0.86990  0.88580  0.72660  Biso   1.000  H
  C29      1.0000 0.32130  0.63420  0.16478  Biso   1.000  C
  C30      1.0000 0.17870  0.13420  0.33522  Biso   1.000  C
  C31      1.0000 0.67870  0.36580  0.83522  Biso   1.000  C
  C32      1.0000 0.82130  0.86580  0.66478  Biso   1.000  C
  H17      1.0000 0.36610  0.60550  0.14850  Biso   1.000  H
  H18      1.0000 0.13390  0.10550  0.35150  Biso   1.000  H
  H19      1.0000 0.63390  0.39450  0.85150  Biso   1.000  H
  H20      1.0000 0.86610  0.89450  0.64850  Biso   1.000  H
  C33      1.0000 0.24010  0.68040  0.14979  Biso   1.000  C
  C34      1.0000 0.25990  0.18040  0.35021  Biso   1.000  C
  C35      1.0000 0.75990  0.31960  0.85021  Biso   1.000  C
  C36      1.0000 0.74010  0.81960  0.64979  Biso   1.000  C
  H21      1.0000 0.22170  0.68900  0.12110  Biso   1.000  H
  H22      1.0000 0.27830  0.18900  0.37890  Biso   1.000  H
  H23      1.0000 0.77830  0.31100  0.87890  Biso   1.000  H
  H24      1.0000 0.72170  0.81100  0.62110  Biso   1.000  H
  C37      1.0000 0.27760  0.68780  0.29424  Biso   1.000  C
  C38      1.0000 0.22240  0.18780  0.20576  Biso   1.000  C
  C39      1.0000 0.72240  0.31220  0.70576  Biso   1.000  C
  C40      1.0000 0.77760  0.81220  0.79424  Biso   1.000  C
  C41      1.0000 0.31610  0.55610  0.30044  Biso   1.000  C
  C42      1.0000 0.18390  0.05610  0.19956  Biso   1.000  C
  C43      1.0000 0.68390  0.44390  0.69956  Biso   1.000  C
  C44      1.0000 0.81610  0.94390  0.80044  Biso   1.000  C
  H25      1.0000 0.29850  0.48380  0.28170  Biso   1.000  H
  H26      1.0000 0.20150  0.98380  0.21830  Biso   1.000  H
  H27      1.0000 0.70150  0.51620  0.71830  Biso   1.000  H
  H28      1.0000 0.79850  0.01620  0.78170  Biso   1.000  H
  C45      1.0000 0.39920  0.63090  0.35799  Biso   1.000  C
  C46      1.0000 0.10080  0.13090  0.14201  Biso   1.000  C
  C47      1.0000 0.60080  0.36910  0.64201  Biso   1.000  C
  C48      1.0000 0.89920  0.86910  0.85799  Biso   1.000  C
  C49      1.0000 0.46310  0.60400  0.39024  Biso   1.000  C
  C50      1.0000 0.03690  0.10400  0.10976  Biso   1.000  C
  C51      1.0000 0.53690  0.39600  0.60976  Biso   1.000  C
  C52      1.0000 0.96310  0.89600  0.89024  Biso   1.000  C
  H29      1.0000 0.48970  0.51570  0.39210  Biso   1.000  H
  H30      1.0000 0.01030  0.01570  0.10790  Biso   1.000  H
  H31      1.0000 0.51030  0.48430  0.60790  Biso   1.000  H
  H32      1.0000 0.98970  0.98430  0.89210  Biso   1.000  H
  C53      1.0000 0.48690  0.70400  0.41858  Biso   1.000  C
  C54      1.0000 0.01310  0.20400  0.08142  Biso   1.000  C
  C55      1.0000 0.51310  0.29600  0.58142  Biso   1.000  C
  C56      1.0000 0.98690  0.79600  0.91858  Biso   1.000  C
  H33      1.0000 0.53000  0.68450  0.44000  Biso   1.000  H
  H34      1.0000 0.97000  0.18450  0.06000  Biso   1.000  H
  H35      1.0000 0.47000  0.31550  0.56000  Biso   1.000  H
  H36      1.0000 0.03000  0.81550  0.94000  Biso   1.000  H
  C57      1.0000 0.44890  0.83540  0.41672  Biso   1.000  C
  C58      1.0000 0.05110  0.33540  0.08328  Biso   1.000  C
  C59      1.0000 0.55110  0.16460  0.58328  Biso   1.000  C
  C60      1.0000 0.94890  0.66460  0.91672  Biso   1.000  C
  H37      1.0000 0.46570  0.90330  0.43710  Biso   1.000  H
  H38      1.0000 0.03430  0.40330  0.06290  Biso   1.000  H
  H39      1.0000 0.53430  0.09670  0.56290  Biso   1.000  H
  H40      1.0000 0.96570  0.59670  0.93710  Biso   1.000  H
  C61      1.0000 0.38750  0.86600  0.38562  Biso   1.000  C
  C62      1.0000 0.11250  0.36600  0.11438  Biso   1.000  C
  C63      1.0000 0.61250  0.13400  0.61438  Biso   1.000  C
  C64      1.0000 0.88750  0.63400  0.88562  Biso   1.000  C
  H41      1.0000 0.36220  0.95530  0.38440  Biso   1.000  H
  H42      1.0000 0.13780  0.45530  0.11560  Biso   1.000  H
  H43      1.0000 0.63780  0.04470  0.61560  Biso   1.000  H
  H44      1.0000 0.86220  0.54470  0.88440  Biso   1.000  H
  C65      1.0000 0.36160  0.76450  0.35521  Biso   1.000  C
  C66      1.0000 0.13840  0.26450  0.14479  Biso   1.000  C
  C67      1.0000 0.63840  0.23550  0.64479  Biso   1.000  C
  C68      1.0000 0.86160  0.73550  0.85521  Biso   1.000  C
  C69      1.0000 0.30070  0.79120  0.32193  Biso   1.000  C
  C70      1.0000 0.19930  0.29120  0.17807  Biso   1.000  C
  C71      1.0000 0.69930  0.20880  0.67807  Biso   1.000  C
  C72      1.0000 0.80070  0.70880  0.82193  Biso   1.000  C
  H45      1.0000 0.27560  0.88040  0.31870  Biso   1.000  H
  H46      1.0000 0.22440  0.38040  0.18130  Biso   1.000  H
  H47      1.0000 0.72440  0.11960  0.68130  Biso   1.000  H
  H48      1.0000 0.77560  0.61960  0.81870  Biso   1.000  H
  C73      1.0000 0.81490  0.87750  0.14127  Biso   1.000  C
  C74      1.0000 0.68510  0.37750  0.35873  Biso   1.000  C
  C75      1.0000 0.18510  0.12250  0.85873  Biso   1.000  C
  C76      1.0000 0.31490  0.62250  0.64127  Biso   1.000  C
  C77      1.0000 0.90570  0.82490  0.13631  Biso   1.000  C
  C78      1.0000 0.59430  0.32490  0.36369  Biso   1.000  C
  C79      1.0000 0.09430  0.17510  0.86369  Biso   1.000  C
  C80      1.0000 0.40570  0.67510  0.63631  Biso   1.000  C
  C81      1.0000 0.92530  0.77730  0.09724  Biso   1.000  C
  C82      1.0000 0.57470  0.27730  0.40276  Biso   1.000  C
  C83      1.0000 0.07470  0.22270  0.90276  Biso   1.000  C
  C84      1.0000 0.42530  0.72270  0.59724  Biso   1.000  C
  H49      1.0000 0.88130  0.76310  0.07580  Biso   1.000  H
  H50      1.0000 0.61870  0.26310  0.42420  Biso   1.000  H
  H51      1.0000 0.11870  0.23690  0.92420  Biso   1.000  H
  H52      1.0000 0.38130  0.73690  0.57580  Biso   1.000  H
  C85      1.0000 0.00920  0.75070  0.08991  Biso   1.000  C
  C86      1.0000 0.49080  0.25070  0.41009  Biso   1.000  C
  C87      1.0000 0.99080  0.24930  0.91009  Biso   1.000  C
  C88      1.0000 0.50920  0.74930  0.58991  Biso   1.000  C
  C89      1.0000 0.03120  0.72650  0.04473  Biso   1.000  C
  C90      1.0000 0.46880  0.22650  0.45527  Biso   1.000  C
  C91      1.0000 0.96880  0.27350  0.95527  Biso   1.000  C
  C92      1.0000 0.53120  0.77350  0.54473  Biso   1.000  C
  C93      1.0000 0.57430  0.64820  0.19844  Biso   1.000  C
  C94      1.0000 0.92570  0.14820  0.30156  Biso   1.000  C
  C95      1.0000 0.42570  0.35180  0.80156  Biso   1.000  C
  C96      1.0000 0.07430  0.85180  0.69844  Biso   1.000  C
  H53      1.0000 0.53110  0.64660  0.17620  Biso   1.000  H
  H54      1.0000 0.96890  0.14660  0.32380  Biso   1.000  H
  H55      1.0000 0.46890  0.35340  0.82380  Biso   1.000  H
  H56      1.0000 0.03110  0.85340  0.67620  Biso   1.000  H
  C97      1.0000 0.56140  0.69060  0.23929  Biso   1.000  C
  C98      1.0000 0.93860  0.19060  0.26071  Biso   1.000  C
  C99      1.0000 0.43860  0.30940  0.76071  Biso   1.000  C
  C100     1.0000 0.06140  0.80940  0.73929  Biso   1.000  C
  H57      1.0000 0.50950  0.72210  0.24930  Biso   1.000  H
  H58      1.0000 0.99050  0.22210  0.25070  Biso   1.000  H
  H59      1.0000 0.49050  0.27790  0.75070  Biso   1.000  H
  H60      1.0000 0.00950  0.77790  0.74930  Biso   1.000  H
  C101     1.0000 0.63880  0.67730  0.26190  Biso   1.000  C
  C102     1.0000 0.86120  0.17730  0.23810  Biso   1.000  C
  C103     1.0000 0.36120  0.32270  0.73810  Biso   1.000  C
  C104     1.0000 0.13880  0.82270  0.76190  Biso   1.000  C
  H61      1.0000 0.65050  0.69690  0.29070  Biso   1.000  H
  H62      1.0000 0.84950  0.19690  0.20930  Biso   1.000  H
  H63      1.0000 0.34950  0.30310  0.70930  Biso   1.000  H
  H64      1.0000 0.15050  0.80310  0.79070  Biso   1.000  H
  C105     1.0000 0.69800  0.62870  0.23397  Biso   1.000  C
  C106     1.0000 0.80200  0.12870  0.26603  Biso   1.000  C
  C107     1.0000 0.30200  0.37130  0.76603  Biso   1.000  C
  C108     1.0000 0.19800  0.87130  0.73397  Biso   1.000  C
  C109     1.0000 0.78540  0.60330  0.24261  Biso   1.000  C
  C110     1.0000 0.71460  0.10330  0.25739  Biso   1.000  C
  C111     1.0000 0.21460  0.39670  0.75739  Biso   1.000  C
  C112     1.0000 0.28540  0.89670  0.74261  Biso   1.000  C
  C113     1.0000 0.84160  0.55440  0.21421  Biso   1.000  C
  C114     1.0000 0.65840  0.05440  0.28579  Biso   1.000  C
  C115     1.0000 0.15840  0.44560  0.78579  Biso   1.000  C
  C116     1.0000 0.34160  0.94560  0.71421  Biso   1.000  C
  C117     1.0000 0.93090  0.53540  0.22093  Biso   1.000  C
  C118     1.0000 0.56910  0.03540  0.27907  Biso   1.000  C
  C119     1.0000 0.06910  0.46460  0.77907  Biso   1.000  C
  C120     1.0000 0.43090  0.96460  0.72093  Biso   1.000  C
  H65      1.0000 0.96480  0.55440  0.24590  Biso   1.000  H
  H66      1.0000 0.53520  0.05440  0.25410  Biso   1.000  H
  H67      1.0000 0.03520  0.44560  0.75410  Biso   1.000  H
  H68      1.0000 0.46480  0.94560  0.74590  Biso   1.000  H
  C121     1.0000 0.95900  0.48430  0.18453  Biso   1.000  C
  C122     1.0000 0.54100  0.98430  0.31547  Biso   1.000  C
  C123     1.0000 0.04100  0.51570  0.81547  Biso   1.000  C
  C124     1.0000 0.45900  0.01570  0.68453  Biso   1.000  C
  H69      1.0000 0.01590  0.46000  0.17960  Biso   1.000  H
  H70      1.0000 0.48410  0.96000  0.32040  Biso   1.000  H
  H71      1.0000 0.98410  0.54000  0.82040  Biso   1.000  H
  H72      1.0000 0.51590  0.04000  0.67960  Biso   1.000  H
  C125     1.0000 0.88670  0.47520  0.15597  Biso   1.000  C
  C126     1.0000 0.61330  0.97520  0.34403  Biso   1.000  C
  C127     1.0000 0.11330  0.52480  0.84403  Biso   1.000  C
  C128     1.0000 0.38670  0.02480  0.65597  Biso   1.000  C
  H73      1.0000 0.88790  0.44330  0.12810  Biso   1.000  H
  H74      1.0000 0.61210  0.94330  0.37190  Biso   1.000  H
  H75      1.0000 0.11210  0.55670  0.87190  Biso   1.000  H
  H76      1.0000 0.38790  0.05670  0.62810  Biso   1.000  H
  C129     1.0000 0.82080  0.63180  0.28595  Biso   1.000  C
  C130     1.0000 0.67920  0.13180  0.21405  Biso   1.000  C
  C131     1.0000 0.17920  0.36820  0.71405  Biso   1.000  C
  C132     1.0000 0.32080  0.86820  0.78595  Biso   1.000  C
  C133     1.0000 0.86310  0.53270  0.31013  Biso   1.000  C
  C134     1.0000 0.63690  0.03270  0.18987  Biso   1.000  C
  C135     1.0000 0.13690  0.46730  0.68987  Biso   1.000  C
  C136     1.0000 0.36310  0.96730  0.81013  Biso   1.000  C
  H77      1.0000 0.87400  0.44420  0.29880  Biso   1.000  H
  H78      1.0000 0.62600  0.94420  0.20120  Biso   1.000  H
  H79      1.0000 0.12600  0.55580  0.70120  Biso   1.000  H
  H80      1.0000 0.37400  0.05580  0.79880  Biso   1.000  H
  C137     1.0000 0.80920  0.76360  0.30391  Biso   1.000  C
  C138     1.0000 0.69080  0.26360  0.19609  Biso   1.000  C
  C139     1.0000 0.19080  0.23640  0.69609  Biso   1.000  C
  C140     1.0000 0.30920  0.73640  0.80391  Biso   1.000  C
  H81      1.0000 0.78260  0.83320  0.28660  Biso   1.000  H
  H82      1.0000 0.71740  0.33320  0.21340  Biso   1.000  H
  H83      1.0000 0.21740  0.16680  0.71340  Biso   1.000  H
  H84      1.0000 0.28260  0.66680  0.78660  Biso   1.000  H
  C141     1.0000 0.87190  0.69670  0.36754  Biso   1.000  C
  C142     1.0000 0.62810  0.19670  0.13246  Biso   1.000  C
  C143     1.0000 0.12810  0.30330  0.63246  Biso   1.000  C
  C144     1.0000 0.37190  0.80330  0.86754  Biso   1.000  C
  C145     1.0000 0.89540  0.72690  0.40986  Biso   1.000  C
  C146     1.0000 0.60460  0.22690  0.09014  Biso   1.000  C
  C147     1.0000 0.10460  0.27310  0.59014  Biso   1.000  C
  C148     1.0000 0.39540  0.77310  0.90986  Biso   1.000  C
  H85      1.0000 0.88390  0.81580  0.42080  Biso   1.000  H
  H86      1.0000 0.61610  0.31580  0.07920  Biso   1.000  H
  H87      1.0000 0.11610  0.18420  0.57920  Biso   1.000  H
  H88      1.0000 0.38390  0.68420  0.92080  Biso   1.000  H
  C149     1.0000 0.93450  0.62910  0.43506  Biso   1.000  C
  C150     1.0000 0.56550  0.12910  0.06494  Biso   1.000  C
  C151     1.0000 0.06550  0.37090  0.56494  Biso   1.000  C
  C152     1.0000 0.43450  0.87090  0.93506  Biso   1.000  C
  H89      1.0000 0.94950  0.65010  0.46350  Biso   1.000  H
  H90      1.0000 0.55050  0.15010  0.03650  Biso   1.000  H
  H91      1.0000 0.05050  0.34990  0.53650  Biso   1.000  H
  H92      1.0000 0.44950  0.84990  0.96350  Biso   1.000  H
  C153     1.0000 0.95290  0.49780  0.41946  Biso   1.000  C
  C154     1.0000 0.54710  0.99780  0.08054  Biso   1.000  C
  C155     1.0000 0.04710  0.50220  0.58054  Biso   1.000  C
  C156     1.0000 0.45290  0.00220  0.91946  Biso   1.000  C
  H93      1.0000 0.98050  0.43100  0.43740  Biso   1.000  H
  H94      1.0000 0.51950  0.93100  0.06260  Biso   1.000  H
  H95      1.0000 0.01950  0.56900  0.56260  Biso   1.000  H
  H96      1.0000 0.48050  0.06900  0.93740  Biso   1.000  H
  C157     1.0000 0.93170  0.46510  0.37899  Biso   1.000  C
  C158     1.0000 0.56830  0.96510  0.12101  Biso   1.000  C
  C159     1.0000 0.06830  0.53490  0.62101  Biso   1.000  C
  C160     1.0000 0.43170  0.03490  0.87899  Biso   1.000  C
  H97      1.0000 0.94490  0.37600  0.36880  Biso   1.000  H
  H98      1.0000 0.55510  0.87600  0.13120  Biso   1.000  H
  H99      1.0000 0.05510  0.62400  0.63120  Biso   1.000  H
  H100     1.0000 0.44490  0.12400  0.86880  Biso   1.000  H
  C161     1.0000 0.89020  0.56350  0.35191  Biso   1.000  C
  C162     1.0000 0.60980  0.06350  0.14809  Biso   1.000  C
  C163     1.0000 0.10980  0.43650  0.64809  Biso   1.000  C
  C164     1.0000 0.39020  0.93650  0.85191  Biso   1.000  C
  C165     1.0000 0.48610  0.61340  0.05964  Biso   1.000  C
  C166     1.0000 0.01390  0.11340  0.44036  Biso   1.000  C
  C167     1.0000 0.51390  0.38660  0.94036  Biso   1.000  C
  C168     1.0000 0.98610  0.88660  0.55964  Biso   1.000  C
  C169     1.0000 0.57940  0.58680  0.07412  Biso   1.000  C
  C170     1.0000 0.92060  0.08680  0.42588  Biso   1.000  C
  C171     1.0000 0.42060  0.41320  0.92588  Biso   1.000  C
  C172     1.0000 0.07940  0.91320  0.57412  Biso   1.000  C
  C173     1.0000 0.63730  0.57100  0.04414  Biso   1.000  C
  C174     1.0000 0.86270  0.07100  0.45586  Biso   1.000  C
  C175     1.0000 0.36270  0.42900  0.95586  Biso   1.000  C
  C176     1.0000 0.13730  0.92900  0.54414  Biso   1.000  C
  H101     1.0000 0.62130  0.59320  0.01590  Biso   1.000  H
  H102     1.0000 0.87870  0.09320  0.48410  Biso   1.000  H
  H103     1.0000 0.37870  0.40680  0.98410  Biso   1.000  H
  H104     1.0000 0.12130  0.90680  0.51590  Biso   1.000  H
  C177     1.0000 0.71900  0.52270  0.05549  Biso   1.000  C
  C178     1.0000 0.78100  0.02270  0.44451  Biso   1.000  C
  C179     1.0000 0.28100  0.47730  0.94451  Biso   1.000  C
  C180     1.0000 0.21900  0.97730  0.55549  Biso   1.000  C
  C181     1.0000 0.77620  0.48830  0.02017  Biso   1.000  C
  C182     1.0000 0.72380  0.98830  0.47983  Biso   1.000  C
  C183     1.0000 0.22380  0.51170  0.97983  Biso   1.000  C
  C184     1.0000 0.27620  0.01170  0.52017  Biso   1.000  C
  C185     1.0000 0.73100  0.91100  0.94180  Biso   1.000  C
  C186     1.0000 0.76900  0.41100  0.55820  Biso   1.000  C
  C187     1.0000 0.26900  0.08900  0.05820  Biso   1.000  C
  C188     1.0000 0.23100  0.58900  0.44180  Biso   1.000  C
  H105     1.0000 0.79120  0.88000  0.93960  Biso   1.000  H
  H106     1.0000 0.70880  0.38000  0.56040  Biso   1.000  H
  H107     1.0000 0.20880  0.12000  0.06040  Biso   1.000  H
  H108     1.0000 0.29120  0.62000  0.43960  Biso   1.000  H
  Cl1      1.0000 0.71430  0.01800  0.90220  Biso   1.000  Cl
  Cl2      1.0000 0.78570  0.51800  0.59780  Biso   1.000  Cl
  Cl3      1.0000 0.28570  0.98200  0.09780  Biso   1.000  Cl
  Cl4      1.0000 0.21430  0.48200  0.40220  Biso   1.000  Cl
  Cl5      1.0000 0.66990  0.76000  0.92712  Biso   1.000  Cl
  Cl6      1.0000 0.83010  0.26000  0.57288  Biso   1.000  Cl
  Cl7      1.0000 0.33010  0.24000  0.07288  Biso   1.000  Cl
  Cl8      1.0000 0.16990  0.74000  0.42712  Biso   1.000  Cl
  Cl9      1.0000 0.72920  0.95750  0.99400  Biso   1.000  Cl
  Cl10     1.0000 0.77080  0.45750  0.50600  Biso   1.000  Cl
  Cl11     1.0000 0.27080  0.04250  0.00600  Biso   1.000  Cl
  Cl12     1.0000 0.22920  0.54250  0.49400  Biso   1.000  Cl
  Cu1      1.0000 0.07836  0.79498  0.17570  Biso   1.000  Cu
  Cu2      1.0000 0.42164  0.29498  0.32430  Biso   1.000  Cu
  Cu3      1.0000 0.92164  0.20502  0.82430  Biso   1.000  Cu
  Cu4      1.0000 0.57836  0.70502  0.67570  Biso   1.000  Cu
  Cu5      1.0000 0.70136  0.52893  0.14546  Biso   1.000  Cu
  Cu6      1.0000 0.79864  0.02893  0.35454  Biso   1.000  Cu
  Cu7      1.0000 0.29864  0.47107  0.85454  Biso   1.000  Cu
  Cu8      1.0000 0.20136  0.97107  0.64546  Biso   1.000  Cu
  F1       1.0000 0.81110  0.01310  0.13282  Biso   1.000  F
  F2       1.0000 0.68890  0.51310  0.36718  Biso   1.000  F
  F3       1.0000 0.18890  0.98690  0.86718  Biso   1.000  F
  F4       1.0000 0.31110  0.48690  0.63282  Biso   1.000  F
  F5       1.0000 0.79236  0.86000  0.17962  Biso   1.000  F
  F6       1.0000 0.70764  0.36000  0.32038  Biso   1.000  F
  F7       1.0000 0.20764  0.14000  0.82038  Biso   1.000  F
  F8       1.0000 0.29236  0.64000  0.67962  Biso   1.000  F
  F9       1.0000 0.75694  0.81390  0.11512  Biso   1.000  F
  F10      1.0000 0.74306  0.31390  0.38488  Biso   1.000  F
  F11      1.0000 0.24306  0.18610  0.88488  Biso   1.000  F
  F12      1.0000 0.25694  0.68610  0.61512  Biso   1.000  F
  F13      1.0000 0.04750  0.84340  0.02705  Biso   1.000  F
  F14      1.0000 0.45250  0.34340  0.47295  Biso   1.000  F
  F15      1.0000 0.95250  0.15660  0.97295  Biso   1.000  F
  F16      1.0000 0.54750  0.65660  0.52705  Biso   1.000  F
  F17      1.0000 0.97170  0.66170  0.02210  Biso   1.000  F
  F18      1.0000 0.52830  0.16170  0.47790  Biso   1.000  F
  F19      1.0000 0.02830  0.33830  0.97790  Biso   1.000  F
  F20      1.0000 0.47170  0.83830  0.52210  Biso   1.000  F
  F21      1.0000 0.10030  0.64850  0.04353  Biso   1.000  F
  F22      1.0000 0.39970  0.14850  0.45647  Biso   1.000  F
  F23      1.0000 0.89970  0.35150  0.95647  Biso   1.000  F
  F24      1.0000 0.60030  0.85150  0.54353  Biso   1.000  F
  F25      1.0000 0.44872  0.70020  0.08490  Biso   1.000  F
  F26      1.0000 0.05128  0.20020  0.41510  Biso   1.000  F
  F27      1.0000 0.55128  0.29980  0.91510  Biso   1.000  F
  F28      1.0000 0.94872  0.79980  0.58490  Biso   1.000  F
  F29      1.0000 0.47583  0.66470  0.02128  Biso   1.000  F
  F30      1.0000 0.02417  0.16470  0.47872  Biso   1.000  F
  F31      1.0000 0.52417  0.33530  0.97872  Biso   1.000  F
  F32      1.0000 0.97583  0.83530  0.52128  Biso   1.000  F
  F33      1.0000 0.44233  0.49420  0.05940  Biso   1.000  F
  F34      1.0000 0.05767  0.99420  0.44060  Biso   1.000  F
  F35      1.0000 0.55767  0.50580  0.94060  Biso   1.000  F
  F36      1.0000 0.94233  0.00580  0.55940  Biso   1.000  F
  F37      1.0000 0.73790  0.40470  0.99305  Biso   1.000  F
  F38      1.0000 0.76210  0.90470  0.50695  Biso   1.000  F
  F39      1.0000 0.26210  0.59530  0.00695  Biso   1.000  F
  F40      1.0000 0.23790  0.09530  0.49305  Biso   1.000  F
  F41      1.0000 0.79350  0.60240  0.99970  Biso   1.000  F
  F42      1.0000 0.70650  0.10240  0.50030  Biso   1.000  F
  F43      1.0000 0.20650  0.39760  0.00030  Biso   1.000  F
  F44      1.0000 0.29350  0.89760  0.49970  Biso   1.000  F
  F45      1.0000 0.84920  0.43780  0.03365  Biso   1.000  F
  F46      1.0000 0.65080  0.93780  0.46635  Biso   1.000  F
  F47      1.0000 0.15080  0.56220  0.96635  Biso   1.000  F
  F48      1.0000 0.34920  0.06220  0.53365  Biso   1.000  F
  N1       1.0000 0.07298  0.80560  0.23615  Biso   1.000  N
  N2       1.0000 0.42702  0.30560  0.26385  Biso   1.000  N
  N3       1.0000 0.92702  0.19440  0.76385  Biso   1.000  N
  N4       1.0000 0.57298  0.69440  0.73615  Biso   1.000  N
  N5       1.0000 0.19160  0.71080  0.18132  Biso   1.000  N
  N6       1.0000 0.30840  0.21080  0.31868  Biso   1.000  N
  N7       1.0000 0.80840  0.28920  0.81868  Biso   1.000  N
  N8       1.0000 0.69160  0.78920  0.68132  Biso   1.000  N
  N9       1.0000 0.37470  0.52750  0.33050  Biso   1.000  N
  N10      1.0000 0.12530  0.02750  0.16950  Biso   1.000  N
  N11      1.0000 0.62530  0.47250  0.66950  Biso   1.000  N
  N12      1.0000 0.87470  0.97250  0.83050  Biso   1.000  N
  N13      1.0000 0.65541  0.61020  0.19477  Biso   1.000  N
  N14      1.0000 0.84459  0.11020  0.30523  Biso   1.000  N
  N15      1.0000 0.34459  0.38980  0.80523  Biso   1.000  N
  N16      1.0000 0.15541  0.88980  0.69477  Biso   1.000  N
  N17      1.0000 0.81610  0.51720  0.17318  Biso   1.000  N
  N18      1.0000 0.68390  0.01720  0.32682  Biso   1.000  N
  N19      1.0000 0.18390  0.48280  0.82682  Biso   1.000  N
  N20      1.0000 0.31610  0.98280  0.67318  Biso   1.000  N
  N21      1.0000 0.83246  0.79660  0.34266  Biso   1.000  N
  N22      1.0000 0.66754  0.29660  0.15734  Biso   1.000  N
  N23      1.0000 0.16754  0.20340  0.65734  Biso   1.000  N
  N24      1.0000 0.33246  0.70340  0.84266  Biso   1.000  N
  O1       1.0000 0.95481  0.84130  0.16825  Biso   1.000  O
  O2       1.0000 0.54519  0.34130  0.33175  Biso   1.000  O
  O3       1.0000 0.04519  0.15870  0.83175  Biso   1.000  O
  O4       1.0000 0.45481  0.65870  0.66825  Biso   1.000  O
  O5       1.0000 0.07347  0.75340  0.11524  Biso   1.000  O
  O6       1.0000 0.42653  0.25340  0.38476  Biso   1.000  O
  O7       1.0000 0.92653  0.24660  0.88476  Biso   1.000  O
  O8       1.0000 0.57347  0.74660  0.61524  Biso   1.000  O
  O9       1.0000 0.59155  0.57120  0.11300  Biso   1.000  O
  O10      1.0000 0.90845  0.07120  0.38700  Biso   1.000  O
  O11      1.0000 0.40845  0.42880  0.88700  Biso   1.000  O
  O12      1.0000 0.09155  0.92880  0.61300  Biso   1.000  O
  O13      1.0000 0.75172  0.49720  0.09119  Biso   1.000  O
  O14      1.0000 0.74828  0.99720  0.40881  Biso   1.000  O
  O15      1.0000 0.24828  0.50280  0.90881  Biso   1.000  O
  O16      1.0000 0.25172  0.00280  0.59119  Biso   1.000  O
