data_image0
_cell_length_a       11.277
_cell_length_b       20.382
_cell_length_c       7.45
_cell_angle_alpha    90
_cell_angle_beta     109.193
_cell_angle_gamma    90

_symmetry_space_group_name_H-M    "P 1"
_symmetry_int_tables_number       1

loop_
  _symmetry_equiv_pos_as_xyz
  'x, y, z'

loop_
  _atom_site_label
  _atom_site_occupancy
  _atom_site_fract_x
  _atom_site_fract_y
  _atom_site_fract_z
  _atom_site_thermal_displace_type
  _atom_site_B_iso_or_equiv
  _atom_site_type_symbol
  Cu1      1.0000 0.83856  0.07967  0.56068  Biso   1.000  Cu
  Cu2      1.0000 0.16144  0.57967  0.93932  Biso   1.000  Cu
  Cu3      1.0000 0.16144  0.92033  0.43932  Biso   1.000  Cu
  Cu4      1.0000 0.83856  0.42033  0.06068  Biso   1.000  Cu
  C1       1.0000 0.27880  0.25530  0.04750  Biso   1.000  C
  C2       1.0000 0.72120  0.75530  0.45250  Biso   1.000  C
  C3       1.0000 0.72120  0.74470  0.95250  Biso   1.000  C
  C4       1.0000 0.27880  0.24470  0.54750  Biso   1.000  C
  C5       1.0000 0.18080  0.21370  0.92450  Biso   1.000  C
  C6       1.0000 0.81920  0.71370  0.57550  Biso   1.000  C
  C7       1.0000 0.81920  0.78630  0.07550  Biso   1.000  C
  C8       1.0000 0.18080  0.28630  0.42450  Biso   1.000  C
  C9       1.0000 0.18990  0.14580  0.94030  Biso   1.000  C
  C10      1.0000 0.81010  0.64580  0.55970  Biso   1.000  C
  C11      1.0000 0.81010  0.85420  0.05970  Biso   1.000  C
  C12      1.0000 0.18990  0.35420  0.44030  Biso   1.000  C
  C13      1.0000 0.09380  0.10800  0.82620  Biso   1.000  C
  C14      1.0000 0.90620  0.60800  0.67380  Biso   1.000  C
  C15      1.0000 0.90620  0.89200  0.17380  Biso   1.000  C
  C16      1.0000 0.09380  0.39200  0.32620  Biso   1.000  C
  C17      1.0000 0.98420  0.19910  0.68120  Biso   1.000  C
  C18      1.0000 0.01580  0.69910  0.81880  Biso   1.000  C
  C19      1.0000 0.01580  0.80090  0.31880  Biso   1.000  C
  C20      1.0000 0.98420  0.30090  0.18120  Biso   1.000  C
  C21      1.0000 0.07570  0.24060  0.78920  Biso   1.000  C
  C22      1.0000 0.92430  0.74060  0.71080  Biso   1.000  C
  C23      1.0000 0.92430  0.75940  0.21080  Biso   1.000  C
  C24      1.0000 0.07570  0.25940  0.28920  Biso   1.000  C
  C25      1.0000 0.37290  0.34400  0.15770  Biso   1.000  C
  C26      1.0000 0.62710  0.84400  0.34230  Biso   1.000  C
  C27      1.0000 0.62710  0.65600  0.84230  Biso   1.000  C
  C28      1.0000 0.37290  0.15600  0.65770  Biso   1.000  C
  C29      1.0000 0.39280  0.41530  0.17210  Biso   1.000  C
  C30      1.0000 0.60720  0.91530  0.32790  Biso   1.000  C
  C31      1.0000 0.60720  0.58470  0.82790  Biso   1.000  C
  C32      1.0000 0.39280  0.08470  0.67210  Biso   1.000  C
  C33      1.0000 0.50720  0.44210  0.27530  Biso   1.000  C
  C34      1.0000 0.49280  0.94210  0.22470  Biso   1.000  C
  C35      1.0000 0.49280  0.55790  0.72470  Biso   1.000  C
  C36      1.0000 0.50720  0.05790  0.77530  Biso   1.000  C
  C37      1.0000 0.51960  0.50920  0.27960  Biso   1.000  C
  C38      1.0000 0.48040  0.00920  0.22040  Biso   1.000  C
  C39      1.0000 0.48040  0.49080  0.72040  Biso   1.000  C
  C40      1.0000 0.51960  0.99080  0.77960  Biso   1.000  C
  C41      1.0000 0.29510  0.45720  0.07690  Biso   1.000  C
  C42      1.0000 0.70490  0.95720  0.42310  Biso   1.000  C
  C43      1.0000 0.70490  0.54280  0.92310  Biso   1.000  C
  C44      1.0000 0.29510  0.04280  0.57690  Biso   1.000  C
  C45      1.0000 0.41910  0.54770  0.18460  Biso   1.000  C
  C46      1.0000 0.58090  0.04770  0.31540  Biso   1.000  C
  C47      1.0000 0.58090  0.45230  0.81540  Biso   1.000  C
  C48      1.0000 0.41910  0.95230  0.68460  Biso   1.000  C
  H1       1.0000 0.42830  0.59310  0.19130  Biso   1.000  H
  H2       1.0000 0.57170  0.09310  0.30870  Biso   1.000  H
  H3       1.0000 0.57170  0.40690  0.80870  Biso   1.000  H
  H4       1.0000 0.42830  0.90690  0.69130  Biso   1.000  H
  N1       1.0000 0.43960  0.29790  0.25660  Biso   1.000  N
  N2       1.0000 0.56040  0.79790  0.24340  Biso   1.000  N
  N3       1.0000 0.56040  0.70210  0.74340  Biso   1.000  N
  N4       1.0000 0.43960  0.20210  0.75660  Biso   1.000  N
  N5       1.0000 0.37800  0.23890  0.18510  Biso   1.000  N
  N6       1.0000 0.62200  0.73890  0.31490  Biso   1.000  N
  N7       1.0000 0.62200  0.76110  0.81490  Biso   1.000  N
  N8       1.0000 0.37800  0.26110  0.68510  Biso   1.000  N
  N9       1.0000 0.99150  0.13345  0.69990  Biso   1.000  N
  N10      1.0000 0.00850  0.63345  0.80010  Biso   1.000  N
  N11      1.0000 0.00850  0.86655  0.30010  Biso   1.000  N
  N12      1.0000 0.99150  0.36655  0.19990  Biso   1.000  N
  N13      1.0000 0.30760  0.52220  0.08230  Biso   1.000  N
  N14      1.0000 0.69240  0.02220  0.41770  Biso   1.000  N
  N15      1.0000 0.69240  0.47780  0.91770  Biso   1.000  N
  N16      1.0000 0.30760  0.97780  0.58230  Biso   1.000  N
  O1       1.0000 0.26840  0.32159  0.02030  Biso   1.000  O
  O2       1.0000 0.73160  0.82159  0.47970  Biso   1.000  O
  O3       1.0000 0.73160  0.67841  0.97970  Biso   1.000  O
  O4       1.0000 0.26840  0.17841  0.52030  Biso   1.000  O
  O5       1.0000 0.87250  0.01630  0.77820  Biso   1.000  O
  O6       1.0000 0.12750  0.51630  0.72180  Biso   1.000  O
  O7       1.0000 0.12750  0.98370  0.22180  Biso   1.000  O
  O8       1.0000 0.87250  0.48370  0.27820  Biso   1.000  O
  O9       1.0000 0.72160  0.14210  0.66980  Biso   1.000  O
  O10      1.0000 0.27840  0.64210  0.83020  Biso   1.000  O
  O11      1.0000 0.27840  0.85790  0.33020  Biso   1.000  O
  O12      1.0000 0.72160  0.35790  0.16980  Biso   1.000  O
  O13      1.0000 0.80820  0.04631  0.08050  Biso   1.000  O
  O14      1.0000 0.19180  0.54631  0.41950  Biso   1.000  O
  O15      1.0000 0.19180  0.95369  0.91950  Biso   1.000  O
  O16      1.0000 0.80820  0.45369  0.58050  Biso   1.000  O
  O17      1.0000 0.00890  0.09170  0.25880  Biso   1.000  O
  O18      1.0000 0.99110  0.59170  0.24120  Biso   1.000  O
  O19      1.0000 0.99110  0.90830  0.74120  Biso   1.000  O
  O20      1.0000 0.00890  0.40830  0.75880  Biso   1.000  O
  O21      1.0000 0.85780  0.15680  0.04310  Biso   1.000  O
  O22      1.0000 0.14220  0.65680  0.45690  Biso   1.000  O
  O23      1.0000 0.14220  0.84320  0.95690  Biso   1.000  O
  O24      1.0000 0.85780  0.34320  0.54310  Biso   1.000  O
  O25      1.0000 0.82070  0.12830  0.31890  Biso   1.000  O
  O26      1.0000 0.17930  0.62830  0.18110  Biso   1.000  O
  O27      1.0000 0.17930  0.87170  0.68110  Biso   1.000  O
  O28      1.0000 0.82070  0.37170  0.81890  Biso   1.000  O
  S1       1.0000 0.87748  0.10098  0.18580  Biso   1.000  S
  S2       1.0000 0.12252  0.60098  0.31420  Biso   1.000  S
  S3       1.0000 0.12252  0.89902  0.81420  Biso   1.000  S
  S4       1.0000 0.87748  0.39902  0.68580  Biso   1.000  S
  H5       1.0000 0.25500  0.12700  0.01300  Biso   1.000  H
  H6       1.0000 0.74500  0.62700  0.48700  Biso   1.000  H
  H7       1.0000 0.74500  0.87300  0.98700  Biso   1.000  H
  H8       1.0000 0.25500  0.37300  0.51300  Biso   1.000  H
  H9       1.0000 0.09300  0.06800  0.83300  Biso   1.000  H
  H10      1.0000 0.90700  0.56800  0.66700  Biso   1.000  H
  H11      1.0000 0.90700  0.93200  0.16700  Biso   1.000  H
  H12      1.0000 0.09300  0.43200  0.33300  Biso   1.000  H
  H13      1.0000 0.91300  0.21300  0.59000  Biso   1.000  H
  H14      1.0000 0.08700  0.71300  0.91000  Biso   1.000  H
  H15      1.0000 0.08700  0.78700  0.41000  Biso   1.000  H
  H16      1.0000 0.91300  0.28700  0.09000  Biso   1.000  H
  H17      1.0000 0.08600  0.28700  0.78700  Biso   1.000  H
  H18      1.0000 0.91400  0.78700  0.71300  Biso   1.000  H
  H19      1.0000 0.91400  0.71300  0.21300  Biso   1.000  H
  H20      1.0000 0.08600  0.21300  0.28700  Biso   1.000  H
  H21      1.0000 0.56700  0.41800  0.33600  Biso   1.000  H
  H22      1.0000 0.43300  0.91800  0.16400  Biso   1.000  H
  H23      1.0000 0.43300  0.58200  0.66400  Biso   1.000  H
  H24      1.0000 0.56700  0.08200  0.83600  Biso   1.000  H
  H25      1.0000 0.58400  0.52900  0.34400  Biso   1.000  H
  H26      1.0000 0.41600  0.02900  0.15600  Biso   1.000  H
  H27      1.0000 0.41600  0.47100  0.65600  Biso   1.000  H
  H28      1.0000 0.58400  0.97100  0.84400  Biso   1.000  H
  H29      1.0000 0.21800  0.44200  0.00500  Biso   1.000  H
  H30      1.0000 0.78200  0.94200  0.49500  Biso   1.000  H
  H31      1.0000 0.78200  0.55800  0.99500  Biso   1.000  H
  H32      1.0000 0.21800  0.05800  0.50500  Biso   1.000  H
  O29      1.0000 0.66520  0.25970  0.55440  Biso   1.000  O
  O30      1.0000 0.33480  0.75970  0.94560  Biso   1.000  O
  O31      1.0000 0.33480  0.74030  0.44560  Biso   1.000  O
  O32      1.0000 0.66520  0.24030  0.05440  Biso   1.000  O
  H33      1.0000 0.75600  0.15100  0.79400  Biso   1.000  H
  H34      1.0000 0.24400  0.65100  0.70600  Biso   1.000  H
  H35      1.0000 0.24400  0.84900  0.20600  Biso   1.000  H
  H36      1.0000 0.75600  0.34900  0.29400  Biso   1.000  H
  H37      1.0000 0.86700  0.02600  0.89300  Biso   1.000  H
  H38      1.0000 0.13300  0.52600  0.60700  Biso   1.000  H
  H39      1.0000 0.13300  0.97400  0.10700  Biso   1.000  H
  H40      1.0000 0.86700  0.47400  0.39300  Biso   1.000  H
  H41      1.0000 0.69900  0.18280  0.62100  Biso   1.000  H
  H42      1.0000 0.30100  0.68280  0.87900  Biso   1.000  H
  H43      1.0000 0.30100  0.81720  0.37900  Biso   1.000  H
  H44      1.0000 0.69900  0.31720  0.12100  Biso   1.000  H
  H45      1.0000 0.93400  0.98600  0.80500  Biso   1.000  H
  H46      1.0000 0.06600  0.48600  0.69500  Biso   1.000  H
  H47      1.0000 0.06600  0.01400  0.19500  Biso   1.000  H
  H48      1.0000 0.93400  0.51400  0.30500  Biso   1.000  H
