data_image0
_cell_length_a       19.6993
_cell_length_b       19.6993
_cell_length_c       29.2983
_cell_angle_alpha    90
_cell_angle_beta     90
_cell_angle_gamma    120

_symmetry_space_group_name_H-M    "P 1"
_symmetry_int_tables_number       1

loop_
  _symmetry_equiv_pos_as_xyz
  'x, y, z'

loop_
  _atom_site_label
  _atom_site_occupancy
  _atom_site_fract_x
  _atom_site_fract_y
  _atom_site_fract_z
  _atom_site_thermal_displace_type
  _atom_site_B_iso_or_equiv
  _atom_site_type_symbol
  Cu1      1.0000 0.36299  0.67128  0.66925  Biso   1.000  Cu
  Cu2      1.0000 0.32872  0.69171  0.33592  Biso   1.000  Cu
  Cu3      1.0000 0.30829  0.63701  0.00258  Biso   1.000  Cu
  Cu4      1.0000 0.67128  0.36299  0.33075  Biso   1.000  Cu
  Cu5      1.0000 0.69171  0.32872  0.66408  Biso   1.000  Cu
  Cu6      1.0000 0.63701  0.30829  0.99742  Biso   1.000  Cu
  O1       1.0000 0.31090  0.70320  0.62318  Biso   1.000  O
  O2       1.0000 0.29680  0.60770  0.28985  Biso   1.000  O
  O3       1.0000 0.39230  0.68910  0.95651  Biso   1.000  O
  O4       1.0000 0.70320  0.31090  0.37682  Biso   1.000  O
  O5       1.0000 0.60770  0.29680  0.71015  Biso   1.000  O
  O6       1.0000 0.68910  0.39230  0.04349  Biso   1.000  O
  O7       1.0000 0.25690  0.66620  0.55285  Biso   1.000  O
  O8       1.0000 0.33380  0.59070  0.21952  Biso   1.000  O
  O9       1.0000 0.40930  0.74310  0.88618  Biso   1.000  O
  O10      1.0000 0.66620  0.25690  0.44715  Biso   1.000  O
  O11      1.0000 0.59070  0.33380  0.78048  Biso   1.000  O
  O12      1.0000 0.74310  0.40930  0.11382  Biso   1.000  O
  O13      1.0000 0.29060  0.54370  0.55542  Biso   1.000  O
  O14      1.0000 0.45630  0.74690  0.22209  Biso   1.000  O
  O15      1.0000 0.25310  0.70940  0.88875  Biso   1.000  O
  O16      1.0000 0.54370  0.29060  0.44458  Biso   1.000  O
  O17      1.0000 0.74690  0.45630  0.77791  Biso   1.000  O
  O18      1.0000 0.70940  0.25310  0.11125  Biso   1.000  O
  N1       1.0000 0.34010  0.58930  0.62690  Biso   1.000  N
  N2       1.0000 0.41070  0.75080  0.29357  Biso   1.000  N
  N3       1.0000 0.24920  0.65990  0.96023  Biso   1.000  N
  N4       1.0000 0.58930  0.34010  0.37310  Biso   1.000  N
  N5       1.0000 0.75080  0.41070  0.70643  Biso   1.000  N
  N6       1.0000 0.65990  0.24920  0.03977  Biso   1.000  N
  C1       1.0000 0.30910  0.59370  0.59040  Biso   1.000  C
  C2       1.0000 0.40630  0.71540  0.25707  Biso   1.000  C
  C3       1.0000 0.28460  0.69090  0.92373  Biso   1.000  C
  C4       1.0000 0.59370  0.30910  0.40960  Biso   1.000  C
  C5       1.0000 0.71540  0.40630  0.74293  Biso   1.000  C
  C6       1.0000 0.69090  0.28460  0.07627  Biso   1.000  C
  C7       1.0000 0.28580  0.65740  0.58750  Biso   1.000  C
  C8       1.0000 0.34260  0.62840  0.25417  Biso   1.000  C
  C9       1.0000 0.37160  0.71420  0.92083  Biso   1.000  C
  C10      1.0000 0.65740  0.28580  0.41250  Biso   1.000  C
  C11      1.0000 0.62840  0.34260  0.74583  Biso   1.000  C
  C12      1.0000 0.71420  0.37160  0.07917  Biso   1.000  C
  C13      1.0000 0.42090  0.56970  0.67850  Biso   1.000  C
  C14      1.0000 0.43030  0.85120  0.34517  Biso   1.000  C
  C15      1.0000 0.14880  0.57910  0.01183  Biso   1.000  C
  C16      1.0000 0.56970  0.42090  0.32150  Biso   1.000  C
  C17      1.0000 0.85120  0.43030  0.65483  Biso   1.000  C
  C18      1.0000 0.57910  0.14880  0.98817  Biso   1.000  C
  C19      1.0000 0.37450  0.53720  0.63580  Biso   1.000  C
  C20      1.0000 0.46280  0.83730  0.30247  Biso   1.000  C
  C21      1.0000 0.16270  0.62550  0.96913  Biso   1.000  C
  C22      1.0000 0.53720  0.37450  0.36420  Biso   1.000  C
  C23      1.0000 0.83730  0.46280  0.69753  Biso   1.000  C
  C24      1.0000 0.62550  0.16270  0.03087  Biso   1.000  C
  H1       1.0000 0.40870  0.53960  0.60990  Biso   1.000  H
  H2       1.0000 0.46040  0.86910  0.27657  Biso   1.000  H
  H3       1.0000 0.13090  0.59130  0.94323  Biso   1.000  H
  H4       1.0000 0.53960  0.40870  0.39010  Biso   1.000  H
  H5       1.0000 0.86910  0.46040  0.72343  Biso   1.000  H
  H6       1.0000 0.59130  0.13090  0.05677  Biso   1.000  H
  O19      1.0000 0.42760  0.63110  0.69856  Biso   1.000  O
  O20      1.0000 0.36890  0.79650  0.36523  Biso   1.000  O
  O21      1.0000 0.20350  0.57240  0.03189  Biso   1.000  O
  O22      1.0000 0.63110  0.42760  0.30144  Biso   1.000  O
  O23      1.0000 0.79650  0.36890  0.63477  Biso   1.000  O
  O24      1.0000 0.57240  0.20350  0.96811  Biso   1.000  O
  O25      1.0000 0.45440  0.53260  0.69398  Biso   1.000  O
  O26      1.0000 0.46740  0.92180  0.36065  Biso   1.000  O
  O27      1.0000 0.07820  0.54560  0.02731  Biso   1.000  O
  O28      1.0000 0.53260  0.45440  0.30602  Biso   1.000  O
  O29      1.0000 0.92180  0.46740  0.63935  Biso   1.000  O
  O30      1.0000 0.54560  0.07820  0.97269  Biso   1.000  O
  Cu7      1.0000 0.24384  0.56524  0.50189  Biso   1.000  Cu
  Cu8      1.0000 0.43476  0.67860  0.16856  Biso   1.000  Cu
  Cu9      1.0000 0.32140  0.75616  0.83522  Biso   1.000  Cu
  Cu10     1.0000 0.56524  0.24384  0.49811  Biso   1.000  Cu
  Cu11     1.0000 0.67860  0.43476  0.83144  Biso   1.000  Cu
  Cu12     1.0000 0.75616  0.32140  0.16478  Biso   1.000  Cu
  O31      1.0000 0.34560  0.61640  0.46650  Biso   1.000  O
  O32      1.0000 0.38360  0.72920  0.13317  Biso   1.000  O
  O33      1.0000 0.27080  0.65440  0.79983  Biso   1.000  O
  O34      1.0000 0.61640  0.34560  0.53350  Biso   1.000  O
  O35      1.0000 0.72920  0.38360  0.86683  Biso   1.000  O
  O36      1.0000 0.65440  0.27080  0.20017  Biso   1.000  O
  O37      1.0000 0.23780  0.63540  0.37463  Biso   1.000  O
  O38      1.0000 0.36460  0.60240  0.04130  Biso   1.000  O
  O39      1.0000 0.39760  0.76220  0.70796  Biso   1.000  O
  O40      1.0000 0.63540  0.23780  0.62537  Biso   1.000  O
  O41      1.0000 0.60240  0.36460  0.95870  Biso   1.000  O
  O42      1.0000 0.76220  0.39760  0.29204  Biso   1.000  O
  O43      1.0000 0.38470  0.65930  0.39511  Biso   1.000  O
  O44      1.0000 0.34070  0.72540  0.06178  Biso   1.000  O
  O45      1.0000 0.27460  0.61530  0.72844  Biso   1.000  O
  O46      1.0000 0.65930  0.38470  0.60489  Biso   1.000  O
  O47      1.0000 0.72540  0.34070  0.93822  Biso   1.000  O
  O48      1.0000 0.61530  0.27460  0.27156  Biso   1.000  O
  N7       1.0000 0.20230  0.58640  0.44830  Biso   1.000  N
  N8       1.0000 0.41360  0.61590  0.11497  Biso   1.000  N
  N9       1.0000 0.38410  0.79770  0.78163  Biso   1.000  N
  N10      1.0000 0.58640  0.20230  0.55170  Biso   1.000  N
  N11      1.0000 0.61590  0.41360  0.88503  Biso   1.000  N
  N12      1.0000 0.79770  0.38410  0.21837  Biso   1.000  N
  O49      1.0000 0.13480  0.51160  0.52080  Biso   1.000  O
  O50      1.0000 0.48840  0.62320  0.18747  Biso   1.000  O
  O51      1.0000 0.37680  0.86520  0.85413  Biso   1.000  O
  O52      1.0000 0.51160  0.13480  0.47920  Biso   1.000  O
  O53      1.0000 0.62320  0.48840  0.81253  Biso   1.000  O
  O54      1.0000 0.86520  0.37680  0.14587  Biso   1.000  O
  O55      1.0000 0.01880  0.50800  0.50505  Biso   1.000  O
  O56      1.0000 0.49200  0.51080  0.17172  Biso   1.000  O
  O57      1.0000 0.48920  0.98120  0.83838  Biso   1.000  O
  O58      1.0000 0.50800  0.01880  0.49495  Biso   1.000  O
  O59      1.0000 0.51080  0.49200  0.82828  Biso   1.000  O
  O60      1.0000 0.98120  0.48920  0.16162  Biso   1.000  O
  C25      1.0000 0.31120  0.45330  0.64540  Biso   1.000  C
  C26      1.0000 0.54670  0.85790  0.31207  Biso   1.000  C
  C27      1.0000 0.14210  0.68880  0.97873  Biso   1.000  C
  C28      1.0000 0.45330  0.31120  0.35460  Biso   1.000  C
  C29      1.0000 0.85790  0.54670  0.68793  Biso   1.000  C
  C30      1.0000 0.68880  0.14210  0.02127  Biso   1.000  C
  C31      1.0000 0.30870  0.39160  0.62330  Biso   1.000  C
  C32      1.0000 0.60840  0.91710  0.28997  Biso   1.000  C
  C33      1.0000 0.08290  0.69130  0.95663  Biso   1.000  C
  C34      1.0000 0.39160  0.30870  0.37670  Biso   1.000  C
  C35      1.0000 0.91710  0.60840  0.71003  Biso   1.000  C
  C36      1.0000 0.69130  0.08290  0.04337  Biso   1.000  C
  H7       1.0000 0.34350  0.40110  0.59860  Biso   1.000  H
  H8       1.0000 0.59890  0.94240  0.26527  Biso   1.000  H
  H9       1.0000 0.05760  0.65650  0.93193  Biso   1.000  H
  H10      1.0000 0.40110  0.34350  0.40140  Biso   1.000  H
  H11      1.0000 0.94240  0.59890  0.73473  Biso   1.000  H
  H12      1.0000 0.65650  0.05760  0.06807  Biso   1.000  H
  C37      1.0000 0.25790  0.31680  0.63560  Biso   1.000  C
  C38      1.0000 0.68320  0.94110  0.30227  Biso   1.000  C
  C39      1.0000 0.05890  0.74210  0.96893  Biso   1.000  C
  C40      1.0000 0.31680  0.25790  0.36440  Biso   1.000  C
  C41      1.0000 0.94110  0.68320  0.69773  Biso   1.000  C
  C42      1.0000 0.74210  0.05890  0.03107  Biso   1.000  C
  H13      1.0000 0.26330  0.27560  0.62250  Biso   1.000  H
  H14      1.0000 0.72440  0.98770  0.28917  Biso   1.000  H
  H15      1.0000 0.01230  0.73670  0.95583  Biso   1.000  H
  H16      1.0000 0.27560  0.26330  0.37750  Biso   1.000  H
  H17      1.0000 0.98770  0.72440  0.71083  Biso   1.000  H
  H18      1.0000 0.73670  0.01230  0.04417  Biso   1.000  H
  C43      1.0000 0.20120  0.29930  0.66510  Biso   1.000  C
  C44      1.0000 0.70070  0.90190  0.33177  Biso   1.000  C
  C45      1.0000 0.09810  0.79880  0.99843  Biso   1.000  C
  C46      1.0000 0.29930  0.20120  0.33490  Biso   1.000  C
  C47      1.0000 0.90190  0.70070  0.66823  Biso   1.000  C
  C48      1.0000 0.79880  0.09810  0.00157  Biso   1.000  C
  H19      1.0000 0.16330  0.24590  0.67040  Biso   1.000  H
  H20      1.0000 0.75410  0.91740  0.33707  Biso   1.000  H
  H21      1.0000 0.08260  0.83670  0.00373  Biso   1.000  H
  H22      1.0000 0.24590  0.16330  0.32960  Biso   1.000  H
  H23      1.0000 0.91740  0.75410  0.66293  Biso   1.000  H
  H24      1.0000 0.83670  0.08260  0.99627  Biso   1.000  H
  C49      1.0000 0.19580  0.35690  0.68860  Biso   1.000  C
  C50      1.0000 0.64310  0.83890  0.35527  Biso   1.000  C
  C51      1.0000 0.16110  0.80420  0.02193  Biso   1.000  C
  C52      1.0000 0.35690  0.19580  0.31140  Biso   1.000  C
  C53      1.0000 0.83890  0.64310  0.64473  Biso   1.000  C
  C54      1.0000 0.80420  0.16110  0.97807  Biso   1.000  C
  H25      1.0000 0.15570  0.34480  0.71040  Biso   1.000  H
  H26      1.0000 0.65520  0.81090  0.37707  Biso   1.000  H
  H27      1.0000 0.18910  0.84430  0.04373  Biso   1.000  H
  H28      1.0000 0.34480  0.15570  0.28960  Biso   1.000  H
  H29      1.0000 0.81090  0.65520  0.62293  Biso   1.000  H
  H30      1.0000 0.84430  0.18910  0.95627  Biso   1.000  H
  C55      1.0000 0.25310  0.43490  0.67840  Biso   1.000  C
  C56      1.0000 0.56510  0.81820  0.34507  Biso   1.000  C
  C57      1.0000 0.18180  0.74690  0.01173  Biso   1.000  C
  C58      1.0000 0.43490  0.25310  0.32160  Biso   1.000  C
  C59      1.0000 0.81820  0.56510  0.65493  Biso   1.000  C
  C60      1.0000 0.74690  0.18180  0.98827  Biso   1.000  C
  H31      1.0000 0.25220  0.47640  0.69440  Biso   1.000  H
  H32      1.0000 0.52360  0.77580  0.36107  Biso   1.000  H
  H33      1.0000 0.22420  0.74780  0.02773  Biso   1.000  H
  H34      1.0000 0.47640  0.25220  0.30560  Biso   1.000  H
  H35      1.0000 0.77580  0.52360  0.63893  Biso   1.000  H
  H36      1.0000 0.74780  0.22420  0.97227  Biso   1.000  H
  C61      1.0000 0.33430  0.63330  0.42550  Biso   1.000  C
  C62      1.0000 0.36670  0.70100  0.09217  Biso   1.000  C
  C63      1.0000 0.29900  0.66570  0.75883  Biso   1.000  C
  C64      1.0000 0.63330  0.33430  0.57450  Biso   1.000  C
  C65      1.0000 0.70100  0.36670  0.90783  Biso   1.000  C
  C66      1.0000 0.66570  0.29900  0.24117  Biso   1.000  C
  C67      1.0000 0.25100  0.61670  0.41390  Biso   1.000  C
  C68      1.0000 0.38330  0.63430  0.08057  Biso   1.000  C
  C69      1.0000 0.36570  0.74900  0.74723  Biso   1.000  C
  C70      1.0000 0.61670  0.25100  0.58610  Biso   1.000  C
  C71      1.0000 0.63430  0.38330  0.91943  Biso   1.000  C
  C72      1.0000 0.74900  0.36570  0.25277  Biso   1.000  C
  C73      1.0000 0.11800  0.56210  0.44790  Biso   1.000  C
  C74      1.0000 0.43790  0.55590  0.11457  Biso   1.000  C
  C75      1.0000 0.44410  0.88200  0.78123  Biso   1.000  C
  C76      1.0000 0.56210  0.11800  0.55210  Biso   1.000  C
  C77      1.0000 0.55590  0.43790  0.88543  Biso   1.000  C
  C78      1.0000 0.88200  0.44410  0.21877  Biso   1.000  C
  H37      1.0000 0.09110  0.52090  0.42400  Biso   1.000  H
  H38      1.0000 0.47910  0.57020  0.09067  Biso   1.000  H
  H39      1.0000 0.42980  0.90890  0.75733  Biso   1.000  H
  H40      1.0000 0.52090  0.09110  0.57600  Biso   1.000  H
  H41      1.0000 0.57020  0.47910  0.90933  Biso   1.000  H
  H42      1.0000 0.90890  0.42980  0.24267  Biso   1.000  H
  C79      1.0000 0.08930  0.52350  0.49640  Biso   1.000  C
  C80      1.0000 0.47650  0.56580  0.16307  Biso   1.000  C
  C81      1.0000 0.43420  0.91070  0.82973  Biso   1.000  C
  C82      1.0000 0.52350  0.08930  0.50360  Biso   1.000  C
  C83      1.0000 0.56580  0.47650  0.83693  Biso   1.000  C
  C84      1.0000 0.91070  0.43420  0.17027  Biso   1.000  C
  C85      1.0000 0.10170  0.62680  0.43920  Biso   1.000  C
  C86      1.0000 0.37320  0.47490  0.10587  Biso   1.000  C
  C87      1.0000 0.52510  0.89830  0.77253  Biso   1.000  C
  C88      1.0000 0.62680  0.10170  0.56080  Biso   1.000  C
  C89      1.0000 0.47490  0.37320  0.89413  Biso   1.000  C
  C90      1.0000 0.89830  0.52510  0.22747  Biso   1.000  C
  C91      1.0000 0.13950  0.69690  0.46490  Biso   1.000  C
  C92      1.0000 0.30310  0.44260  0.13157  Biso   1.000  C
  C93      1.0000 0.55740  0.86050  0.79823  Biso   1.000  C
  C94      1.0000 0.69690  0.13950  0.53510  Biso   1.000  C
  C95      1.0000 0.44260  0.30310  0.86843  Biso   1.000  C
  C96      1.0000 0.86050  0.55740  0.20177  Biso   1.000  C
  H43      1.0000 0.18090  0.70590  0.48510  Biso   1.000  H
  H44      1.0000 0.29410  0.47500  0.15177  Biso   1.000  H
  H45      1.0000 0.52500  0.81910  0.81843  Biso   1.000  H
  H46      1.0000 0.70590  0.18090  0.51490  Biso   1.000  H
  H47      1.0000 0.47500  0.29410  0.84823  Biso   1.000  H
  H48      1.0000 0.81910  0.52500  0.18157  Biso   1.000  H
  C97      1.0000 0.11570  0.75460  0.46060  Biso   1.000  C
  C98      1.0000 0.24540  0.36110  0.12727  Biso   1.000  C
  C99      1.0000 0.63890  0.88430  0.79393  Biso   1.000  C
  C100     1.0000 0.75460  0.11570  0.53940  Biso   1.000  C
  C101     1.0000 0.36110  0.24540  0.87273  Biso   1.000  C
  C102     1.0000 0.88430  0.63890  0.20607  Biso   1.000  C
  H49      1.0000 0.13730  0.79890  0.48020  Biso   1.000  H
  H50      1.0000 0.20110  0.33840  0.14687  Biso   1.000  H
  H51      1.0000 0.66160  0.86270  0.81353  Biso   1.000  H
  H52      1.0000 0.79890  0.13730  0.51980  Biso   1.000  H
  H53      1.0000 0.33840  0.20110  0.85313  Biso   1.000  H
  H54      1.0000 0.86270  0.66160  0.18647  Biso   1.000  H
  C103     1.0000 0.05810  0.74480  0.42600  Biso   1.000  C
  C104     1.0000 0.25520  0.31330  0.09267  Biso   1.000  C
  C105     1.0000 0.68670  0.94190  0.75933  Biso   1.000  C
  C106     1.0000 0.74480  0.05810  0.57400  Biso   1.000  C
  C107     1.0000 0.31330  0.25520  0.90733  Biso   1.000  C
  C108     1.0000 0.94190  0.68670  0.24067  Biso   1.000  C
  H55      1.0000 0.04090  0.78170  0.42150  Biso   1.000  H
  H56      1.0000 0.21830  0.25920  0.08817  Biso   1.000  H
  H57      1.0000 0.74080  0.95910  0.75483  Biso   1.000  H
  H58      1.0000 0.78170  0.04090  0.57850  Biso   1.000  H
  H59      1.0000 0.25920  0.21830  0.91183  Biso   1.000  H
  H60      1.0000 0.95910  0.74080  0.24517  Biso   1.000  H
  C109     1.0000 0.02990  0.67520  0.39970  Biso   1.000  C
  C110     1.0000 0.32480  0.35470  0.06637  Biso   1.000  C
  C111     1.0000 0.64530  0.97010  0.73303  Biso   1.000  C
  C112     1.0000 0.67520  0.02990  0.60030  Biso   1.000  C
  C113     1.0000 0.35470  0.32480  0.93363  Biso   1.000  C
  C114     1.0000 0.97010  0.64530  0.26697  Biso   1.000  C
  H61      1.0000 0.99770  0.66910  0.37420  Biso   1.000  H
  H62      1.0000 0.33090  0.32860  0.04087  Biso   1.000  H
  H63      1.0000 0.67140  0.00230  0.70753  Biso   1.000  H
  H64      1.0000 0.66910  0.99770  0.62580  Biso   1.000  H
  H65      1.0000 0.32860  0.33090  0.95913  Biso   1.000  H
  H66      1.0000 0.00230  0.67140  0.29247  Biso   1.000  H
  C115     1.0000 0.04540  0.61740  0.40820  Biso   1.000  C
  C116     1.0000 0.38260  0.42800  0.07487  Biso   1.000  C
  C117     1.0000 0.57200  0.95460  0.74153  Biso   1.000  C
  C118     1.0000 0.61740  0.04540  0.59180  Biso   1.000  C
  C119     1.0000 0.42800  0.38260  0.92513  Biso   1.000  C
  C120     1.0000 0.95460  0.57200  0.25847  Biso   1.000  C
  H67      1.0000 0.01690  0.56900  0.39240  Biso   1.000  H
  H68      1.0000 0.43100  0.44790  0.05907  Biso   1.000  H
  H69      1.0000 0.55210  0.98310  0.72573  Biso   1.000  H
  H70      1.0000 0.56900  0.01690  0.60760  Biso   1.000  H
  H71      1.0000 0.44790  0.43100  0.94093  Biso   1.000  H
  H72      1.0000 0.98310  0.55210  0.27427  Biso   1.000  H
  Ni1      1.0000 0.48824  0.51653  0.76040  Biso   1.000  Ni
  Ni2      1.0000 0.48347  0.97171  0.42707  Biso   1.000  Ni
  Ni3      1.0000 0.02829  0.51176  0.09373  Biso   1.000  Ni
  Ni4      1.0000 0.51653  0.48824  0.23960  Biso   1.000  Ni
  Ni5      1.0000 0.97171  0.48347  0.57293  Biso   1.000  Ni
  Ni6      1.0000 0.51176  0.02829  0.90627  Biso   1.000  Ni
  N13      1.0000 0.59680  0.59860  0.74970  Biso   1.000  N
  N14      1.0000 0.40140  0.99820  0.41637  Biso   1.000  N
  N15      1.0000 0.00180  0.40320  0.08303  Biso   1.000  N
  N16      1.0000 0.59860  0.59680  0.25030  Biso   1.000  N
  N17      1.0000 0.99820  0.40140  0.58363  Biso   1.000  N
  N18      1.0000 0.40320  0.00180  0.91697  Biso   1.000  N
  N19      1.0000 0.51360  0.43940  0.73010  Biso   1.000  N
  N20      1.0000 0.56060  0.07420  0.39677  Biso   1.000  N
  N21      1.0000 0.92580  0.48640  0.06343  Biso   1.000  N
  N22      1.0000 0.43940  0.51360  0.26990  Biso   1.000  N
  N23      1.0000 0.07420  0.56060  0.60323  Biso   1.000  N
  N24      1.0000 0.48640  0.92580  0.93657  Biso   1.000  N
  C121     1.0000 0.63080  0.53430  0.69800  Biso   1.000  C
  C122     1.0000 0.46570  0.09650  0.36467  Biso   1.000  C
  C123     1.0000 0.90350  0.36920  0.03133  Biso   1.000  C
  C124     1.0000 0.53430  0.63080  0.30200  Biso   1.000  C
  C125     1.0000 0.09650  0.46570  0.63533  Biso   1.000  C
  C126     1.0000 0.36920  0.90350  0.96867  Biso   1.000  C
  H73      1.0000 0.65850  0.52560  0.72360  Biso   1.000  H
  H74      1.0000 0.47440  0.13290  0.39027  Biso   1.000  H
  H75      1.0000 0.86710  0.34150  0.05693  Biso   1.000  H
  H76      1.0000 0.52560  0.65850  0.27640  Biso   1.000  H
  H77      1.0000 0.13290  0.47440  0.60973  Biso   1.000  H
  H78      1.0000 0.34150  0.86710  0.94307  Biso   1.000  H
  H79      1.0000 0.66390  0.54370  0.67070  Biso   1.000  H
  H80      1.0000 0.45630  0.12020  0.33737  Biso   1.000  H
  H81      1.0000 0.87980  0.33610  0.00403  Biso   1.000  H
  H82      1.0000 0.54370  0.66390  0.32930  Biso   1.000  H
  H83      1.0000 0.12020  0.45630  0.66263  Biso   1.000  H
  H84      1.0000 0.33610  0.87980  0.99597  Biso   1.000  H
  N25      1.0000 0.46700  0.60080  0.78920  Biso   1.000  N
  N26      1.0000 0.39920  0.86620  0.45587  Biso   1.000  N
  N27      1.0000 0.13380  0.53300  0.12253  Biso   1.000  N
  N28      1.0000 0.60080  0.46700  0.21080  Biso   1.000  N
  N29      1.0000 0.86620  0.39920  0.54413  Biso   1.000  N
  N30      1.0000 0.53300  0.13380  0.87747  Biso   1.000  N
  C127     1.0000 0.55610  0.45430  0.68980  Biso   1.000  C
  C128     1.0000 0.54570  0.10180  0.35647  Biso   1.000  C
  C129     1.0000 0.89820  0.44390  0.02313  Biso   1.000  C
  C130     1.0000 0.45430  0.55610  0.31020  Biso   1.000  C
  C131     1.0000 0.10180  0.54570  0.64353  Biso   1.000  C
  C132     1.0000 0.44390  0.89820  0.97687  Biso   1.000  C
  H85      1.0000 0.52590  0.45710  0.66360  Biso   1.000  H
  H86      1.0000 0.54290  0.06880  0.33027  Biso   1.000  H
  H87      1.0000 0.93120  0.47410  0.99693  Biso   1.000  H
  H88      1.0000 0.45710  0.52590  0.33640  Biso   1.000  H
  H89      1.0000 0.06880  0.54290  0.66973  Biso   1.000  H
  H90      1.0000 0.47410  0.93120  0.00307  Biso   1.000  H
  H91      1.0000 0.56950  0.41290  0.68390  Biso   1.000  H
  H92      1.0000 0.58710  0.15660  0.35057  Biso   1.000  H
  H93      1.0000 0.84340  0.43050  0.01723  Biso   1.000  H
  H94      1.0000 0.41290  0.56950  0.31610  Biso   1.000  H
  H95      1.0000 0.15660  0.58710  0.64943  Biso   1.000  H
  H96      1.0000 0.43050  0.84340  0.98277  Biso   1.000  H
  C133     1.0000 0.54640  0.66070  0.79560  Biso   1.000  C
  C134     1.0000 0.33930  0.88570  0.46227  Biso   1.000  C
  C135     1.0000 0.11430  0.45360  0.12893  Biso   1.000  C
  C136     1.0000 0.66070  0.54640  0.20440  Biso   1.000  C
  C137     1.0000 0.88570  0.33930  0.53773  Biso   1.000  C
  C138     1.0000 0.45360  0.11430  0.87107  Biso   1.000  C
  H97      1.0000 0.56340  0.65070  0.82540  Biso   1.000  H
  H98      1.0000 0.34930  0.91270  0.49207  Biso   1.000  H
  H99      1.0000 0.08730  0.43660  0.15873  Biso   1.000  H
  H100     1.0000 0.65070  0.56340  0.17460  Biso   1.000  H
  H101     1.0000 0.91270  0.34930  0.50793  Biso   1.000  H
  H102     1.0000 0.43660  0.08730  0.84127  Biso   1.000  H
  H103     1.0000 0.54640  0.71080  0.79870  Biso   1.000  H
  H104     1.0000 0.28920  0.83560  0.46537  Biso   1.000  H
  H105     1.0000 0.16440  0.45360  0.13203  Biso   1.000  H
  H106     1.0000 0.71080  0.54640  0.20130  Biso   1.000  H
  H107     1.0000 0.83560  0.28920  0.53463  Biso   1.000  H
  H108     1.0000 0.45360  0.16440  0.86797  Biso   1.000  H
  C139     1.0000 0.63550  0.61250  0.70820  Biso   1.000  C
  C140     1.0000 0.38750  0.02300  0.37487  Biso   1.000  C
  C141     1.0000 0.97700  0.36450  0.04153  Biso   1.000  C
  C142     1.0000 0.61250  0.63550  0.29180  Biso   1.000  C
  C143     1.0000 0.02300  0.38750  0.62513  Biso   1.000  C
  C144     1.0000 0.36450  0.97700  0.95847  Biso   1.000  C
  H109     1.0000 0.69060  0.65530  0.71080  Biso   1.000  H
  H110     1.0000 0.34470  0.03530  0.37747  Biso   1.000  H
  H111     1.0000 0.96470  0.30940  0.04413  Biso   1.000  H
  H112     1.0000 0.65530  0.69060  0.28920  Biso   1.000  H
  H113     1.0000 0.03530  0.34470  0.62253  Biso   1.000  H
  H114     1.0000 0.30940  0.96470  0.95587  Biso   1.000  H
  H115     1.0000 0.60890  0.62600  0.68430  Biso   1.000  H
  H116     1.0000 0.37400  0.98290  0.35097  Biso   1.000  H
  H117     1.0000 0.01710  0.39110  0.01763  Biso   1.000  H
  H118     1.0000 0.62600  0.60890  0.31570  Biso   1.000  H
  H119     1.0000 0.98290  0.37400  0.64903  Biso   1.000  H
  H120     1.0000 0.39110  0.01710  0.98237  Biso   1.000  H
  C145     1.0000 0.41740  0.59020  0.82690  Biso   1.000  C
  C146     1.0000 0.40980  0.82720  0.49357  Biso   1.000  C
  C147     1.0000 0.17280  0.58260  0.16023  Biso   1.000  C
  C148     1.0000 0.59020  0.41740  0.17310  Biso   1.000  C
  C149     1.0000 0.82720  0.40980  0.50643  Biso   1.000  C
  C150     1.0000 0.58260  0.17280  0.83977  Biso   1.000  C
  H121     1.0000 0.40440  0.63260  0.82850  Biso   1.000  H
  H122     1.0000 0.36740  0.77180  0.49517  Biso   1.000  H
  H123     1.0000 0.22820  0.59560  0.16183  Biso   1.000  H
  H124     1.0000 0.63260  0.40440  0.17150  Biso   1.000  H
  H125     1.0000 0.77180  0.36740  0.50483  Biso   1.000  H
  H126     1.0000 0.59560  0.22820  0.83817  Biso   1.000  H
  H127     1.0000 0.44210  0.58860  0.85600  Biso   1.000  H
  H128     1.0000 0.41140  0.85350  0.52267  Biso   1.000  H
  H129     1.0000 0.14650  0.55790  0.18933  Biso   1.000  H
  H130     1.0000 0.58860  0.44210  0.14400  Biso   1.000  H
  H131     1.0000 0.85350  0.41140  0.47733  Biso   1.000  H
  H132     1.0000 0.55790  0.14650  0.81067  Biso   1.000  H
  C151     1.0000 0.32130  0.42580  0.80420  Biso   1.000  C
  C152     1.0000 0.57420  0.89550  0.47087  Biso   1.000  C
  C153     1.0000 0.10450  0.67870  0.13753  Biso   1.000  C
  C154     1.0000 0.42580  0.32130  0.19580  Biso   1.000  C
  C155     1.0000 0.89550  0.57420  0.52913  Biso   1.000  C
  C156     1.0000 0.67870  0.10450  0.86247  Biso   1.000  C
  H133     1.0000 0.32840  0.39950  0.83110  Biso   1.000  H
  H134     1.0000 0.60050  0.92890  0.49777  Biso   1.000  H
  H135     1.0000 0.07110  0.67160  0.16443  Biso   1.000  H
  H136     1.0000 0.39950  0.32840  0.16890  Biso   1.000  H
  H137     1.0000 0.92890  0.60050  0.50223  Biso   1.000  H
  H138     1.0000 0.67160  0.07110  0.83557  Biso   1.000  H
  H139     1.0000 0.26540  0.39620  0.79520  Biso   1.000  H
  H140     1.0000 0.60380  0.86920  0.46187  Biso   1.000  H
  H141     1.0000 0.13080  0.73460  0.12853  Biso   1.000  H
  H142     1.0000 0.39620  0.26540  0.20480  Biso   1.000  H
  H143     1.0000 0.86920  0.60380  0.53813  Biso   1.000  H
  H144     1.0000 0.73460  0.13080  0.87147  Biso   1.000  H
  C157     1.0000 0.34400  0.51080  0.81690  Biso   1.000  C
  C158     1.0000 0.48920  0.83320  0.48357  Biso   1.000  C
  C159     1.0000 0.16680  0.65600  0.15023  Biso   1.000  C
  C160     1.0000 0.51080  0.34400  0.18310  Biso   1.000  C
  C161     1.0000 0.83320  0.48920  0.51643  Biso   1.000  C
  C162     1.0000 0.65600  0.16680  0.84977  Biso   1.000  C
  H145     1.0000 0.31860  0.52450  0.79230  Biso   1.000  H
  H146     1.0000 0.47550  0.79410  0.45897  Biso   1.000  H
  H147     1.0000 0.20590  0.68140  0.12563  Biso   1.000  H
  H148     1.0000 0.52450  0.31860  0.20770  Biso   1.000  H
  H149     1.0000 0.79410  0.47550  0.54103  Biso   1.000  H
  H150     1.0000 0.68140  0.20590  0.87437  Biso   1.000  H
  H151     1.0000 0.31150  0.50290  0.84430  Biso   1.000  H
  H152     1.0000 0.49710  0.80860  0.51097  Biso   1.000  H
  H153     1.0000 0.19140  0.68850  0.17763  Biso   1.000  H
  H154     1.0000 0.50290  0.31150  0.15570  Biso   1.000  H
  H155     1.0000 0.80860  0.49710  0.48903  Biso   1.000  H
  H156     1.0000 0.68850  0.19140  0.82237  Biso   1.000  H
  C163     1.0000 0.44180  0.37690  0.72330  Biso   1.000  C
  C164     1.0000 0.62310  0.06490  0.38997  Biso   1.000  C
  C165     1.0000 0.93510  0.55820  0.05663  Biso   1.000  C
  C166     1.0000 0.37690  0.44180  0.27670  Biso   1.000  C
  C167     1.0000 0.06490  0.62310  0.61003  Biso   1.000  C
  C168     1.0000 0.55820  0.93510  0.94337  Biso   1.000  C
  H157     1.0000 0.44890  0.33100  0.71860  Biso   1.000  H
  H158     1.0000 0.66900  0.11790  0.38527  Biso   1.000  H
  H159     1.0000 0.88210  0.55110  0.05193  Biso   1.000  H
  H160     1.0000 0.33100  0.44890  0.28140  Biso   1.000  H
  H161     1.0000 0.11790  0.66900  0.61473  Biso   1.000  H
  H162     1.0000 0.55110  0.88210  0.94807  Biso   1.000  H
  H163     1.0000 0.42220  0.38580  0.69410  Biso   1.000  H
  H164     1.0000 0.61420  0.03640  0.36077  Biso   1.000  H
  H165     1.0000 0.96360  0.57780  0.02743  Biso   1.000  H
  H166     1.0000 0.38580  0.42220  0.30590  Biso   1.000  H
  H167     1.0000 0.03640  0.61420  0.63923  Biso   1.000  H
  H168     1.0000 0.57780  0.96360  0.97257  Biso   1.000  H
  N31      1.0000 0.36800  0.42630  0.76830  Biso   1.000  N
  N32      1.0000 0.57370  0.94170  0.43497  Biso   1.000  N
  N33      1.0000 0.05830  0.63200  0.10163  Biso   1.000  N
  N34      1.0000 0.42630  0.36800  0.23170  Biso   1.000  N
  N35      1.0000 0.94170  0.57370  0.56503  Biso   1.000  N
  N36      1.0000 0.63200  0.05830  0.89837  Biso   1.000  N
  C169     1.0000 0.61300  0.67500  0.75940  Biso   1.000  C
  C170     1.0000 0.32500  0.93800  0.42607  Biso   1.000  C
  C171     1.0000 0.06200  0.38700  0.09273  Biso   1.000  C
  C172     1.0000 0.67500  0.61300  0.24060  Biso   1.000  C
  C173     1.0000 0.93800  0.32500  0.57393  Biso   1.000  C
  C174     1.0000 0.38700  0.06200  0.90727  Biso   1.000  C
  H169     1.0000 0.60840  0.70110  0.73160  Biso   1.000  H
  H170     1.0000 0.29890  0.90730  0.39827  Biso   1.000  H
  H171     1.0000 0.09270  0.39160  0.06493  Biso   1.000  H
  H172     1.0000 0.70110  0.60840  0.26840  Biso   1.000  H
  H173     1.0000 0.90730  0.29890  0.60173  Biso   1.000  H
  H174     1.0000 0.39160  0.09270  0.93507  Biso   1.000  H
  H175     1.0000 0.66580  0.70710  0.77260  Biso   1.000  H
  H176     1.0000 0.29290  0.95870  0.43927  Biso   1.000  H
  H177     1.0000 0.04130  0.33420  0.10593  Biso   1.000  H
  H178     1.0000 0.70710  0.66580  0.22740  Biso   1.000  H
  H179     1.0000 0.95870  0.29290  0.56073  Biso   1.000  H
  H180     1.0000 0.33420  0.04130  0.89407  Biso   1.000  H
  C175     1.0000 0.37510  0.35220  0.75890  Biso   1.000  C
  C176     1.0000 0.64780  0.02290  0.42557  Biso   1.000  C
  C177     1.0000 0.97710  0.62490  0.09223  Biso   1.000  C
  C178     1.0000 0.35220  0.37510  0.24110  Biso   1.000  C
  C179     1.0000 0.02290  0.64780  0.57443  Biso   1.000  C
  C180     1.0000 0.62490  0.97710  0.90777  Biso   1.000  C
  H181     1.0000 0.38800  0.33400  0.78730  Biso   1.000  H
  H182     1.0000 0.66600  0.05400  0.45397  Biso   1.000  H
  H183     1.0000 0.94600  0.61200  0.12063  Biso   1.000  H
  H184     1.0000 0.33400  0.38800  0.21270  Biso   1.000  H
  H185     1.0000 0.05400  0.66600  0.54603  Biso   1.000  H
  H186     1.0000 0.61200  0.94600  0.87937  Biso   1.000  H
  H187     1.0000 0.32520  0.30920  0.74660  Biso   1.000  H
  H188     1.0000 0.69080  0.01600  0.41327  Biso   1.000  H
  H189     1.0000 0.98400  0.67480  0.07993  Biso   1.000  H
  H190     1.0000 0.30920  0.32520  0.25340  Biso   1.000  H
  H191     1.0000 0.01600  0.69080  0.58673  Biso   1.000  H
  H192     1.0000 0.67480  0.98400  0.92007  Biso   1.000  H
