data_image0
_cell_length_a       8.0573
_cell_length_b       15.2746
_cell_length_c       19.7117
_cell_angle_alpha    108.416
_cell_angle_beta     94.431
_cell_angle_gamma    101.044

_symmetry_space_group_name_H-M    "P 1"
_symmetry_int_tables_number       1

loop_
  _symmetry_equiv_pos_as_xyz
  'x, y, z'

loop_
  _atom_site_label
  _atom_site_occupancy
  _atom_site_fract_x
  _atom_site_fract_y
  _atom_site_fract_z
  _atom_site_thermal_displace_type
  _atom_site_B_iso_or_equiv
  _atom_site_type_symbol
  Cu1      1.0000 0.96276  0.42147  0.94466  Biso   1.000  Cu
  Cu2      1.0000 0.03724  0.57853  0.05534  Biso   1.000  Cu
  Cu3      1.0000 0.31279  0.69692  0.40419  Biso   1.000  Cu
  Cu4      1.0000 0.68721  0.30308  0.59581  Biso   1.000  Cu
  Cu5      1.0000 0.36220  0.52469  0.36446  Biso   1.000  Cu
  Cu6      1.0000 0.63780  0.47531  0.63554  Biso   1.000  Cu
  Cu7      1.0000 0.00000  0.00000  0.00000  Biso   1.000  Cu
  C1       1.0000 0.98480  0.30210  0.79314  Biso   1.000  C
  C2       1.0000 0.01520  0.69790  0.20686  Biso   1.000  C
  H1       1.0000 0.02030  0.36370  0.79040  Biso   1.000  H
  H2       1.0000 0.97970  0.63630  0.20960  Biso   1.000  H
  C3       1.0000 0.01300  0.22650  0.73851  Biso   1.000  C
  C4       1.0000 0.98700  0.77350  0.26149  Biso   1.000  C
  H3       1.0000 0.06700  0.23570  0.69930  Biso   1.000  H
  H4       1.0000 0.93300  0.76430  0.30070  Biso   1.000  H
  C5       1.0000 0.96020  0.13670  0.74247  Biso   1.000  C
  C6       1.0000 0.03980  0.86330  0.25753  Biso   1.000  C
  C7       1.0000 0.87370  0.12600  0.79827  Biso   1.000  C
  C8       1.0000 0.12630  0.87400  0.20173  Biso   1.000  C
  H5       1.0000 0.83100  0.06480  0.80070  Biso   1.000  H
  H6       1.0000 0.16900  0.93520  0.19930  Biso   1.000  H
  C9       1.0000 0.85070  0.20590  0.85026  Biso   1.000  C
  C10      1.0000 0.14930  0.79410  0.14974  Biso   1.000  C
  H7       1.0000 0.78980  0.19860  0.88820  Biso   1.000  H
  H8       1.0000 0.21020  0.80140  0.11180  Biso   1.000  H
  C11      1.0000 0.00260  0.05500  0.69019  Biso   1.000  C
  C12      1.0000 0.99740  0.94500  0.30981  Biso   1.000  C
  C13      1.0000 0.11010  0.97936  0.60090  Biso   1.000  C
  C14      1.0000 0.88990  0.02064  0.39910  Biso   1.000  C
  C15      1.0000 0.21510  0.87050  0.50437  Biso   1.000  C
  C16      1.0000 0.78490  0.12950  0.49563  Biso   1.000  C
  H9       1.0000 0.17910  0.82440  0.52640  Biso   1.000  H
  H10      1.0000 0.82090  0.17560  0.47360  Biso   1.000  H
  C17      1.0000 0.19460  0.96150  0.53711  Biso   1.000  C
  C18      1.0000 0.80540  0.03850  0.46289  Biso   1.000  C
  C19      1.0000 0.25240  0.03040  0.50688  Biso   1.000  C
  C20      1.0000 0.74760  0.96960  0.49312  Biso   1.000  C
  H11      1.0000 0.24310  0.09400  0.52880  Biso   1.000  H
  H12      1.0000 0.75690  0.90600  0.47120  Biso   1.000  H
  C21      1.0000 0.32370  0.00400  0.44405  Biso   1.000  C
  C22      1.0000 0.67630  0.99600  0.55595  Biso   1.000  C
  H13      1.0000 0.36470  0.04940  0.42200  Biso   1.000  H
  H14      1.0000 0.63530  0.95060  0.57800  Biso   1.000  H
  C23      1.0000 0.33480  0.91070  0.41361  Biso   1.000  C
  C24      1.0000 0.66520  0.08930  0.58639  Biso   1.000  C
  H15      1.0000 0.38110  0.89280  0.36970  Biso   1.000  H
  H16      1.0000 0.61890  0.10720  0.63030  Biso   1.000  H
  C25      1.0000 0.45730  0.34300  0.26875  Biso   1.000  C
  C26      1.0000 0.54270  0.65700  0.73125  Biso   1.000  C
  H17      1.0000 0.46280  0.37680  0.23570  Biso   1.000  H
  H18      1.0000 0.53720  0.62320  0.76430  Biso   1.000  H
  C27      1.0000 0.49620  0.25500  0.24744  Biso   1.000  C
  C28      1.0000 0.50380  0.74500  0.75256  Biso   1.000  C
  H19      1.0000 0.52810  0.22930  0.20110  Biso   1.000  H
  H20      1.0000 0.47190  0.77070  0.79890  Biso   1.000  H
  C29      1.0000 0.48740  0.20510  0.29551  Biso   1.000  C
  C30      1.0000 0.51260  0.79490  0.70449  Biso   1.000  C
  C31      1.0000 0.44000  0.24580  0.36274  Biso   1.000  C
  C32      1.0000 0.56000  0.75420  0.63726  Biso   1.000  C
  H21      1.0000 0.43210  0.21340  0.39670  Biso   1.000  H
  H22      1.0000 0.56790  0.78660  0.60330  Biso   1.000  H
  C33      1.0000 0.40480  0.33410  0.37888  Biso   1.000  C
  C34      1.0000 0.59520  0.66590  0.62112  Biso   1.000  C
  H23      1.0000 0.37330  0.36190  0.42500  Biso   1.000  H
  H24      1.0000 0.62670  0.63810  0.57500  Biso   1.000  H
  C35      1.0000 0.52800  0.11210  0.27604  Biso   1.000  C
  C36      1.0000 0.47200  0.88790  0.72396  Biso   1.000  C
  C37      1.0000 0.61800  0.99460  0.21327  Biso   1.000  C
  C38      1.0000 0.38200  0.00540  0.78673  Biso   1.000  C
  C39      1.0000 0.79120  0.98220  0.11434  Biso   1.000  C
  C40      1.0000 0.20880  0.01780  0.88566  Biso   1.000  C
  H25      1.0000 0.80490  0.04840  0.12450  Biso   1.000  H
  H26      1.0000 0.19510  0.95160  0.87550  Biso   1.000  H
  C41      1.0000 0.69540  0.93920  0.15529  Biso   1.000  C
  C42      1.0000 0.30460  0.06080  0.84471  Biso   1.000  C
  C43      1.0000 0.67490  0.84230  0.14021  Biso   1.000  C
  C44      1.0000 0.32510  0.15770  0.85979  Biso   1.000  C
  H27      1.0000 0.60920  0.81090  0.16730  Biso   1.000  H
  H28      1.0000 0.39080  0.18910  0.83270  Biso   1.000  H
  C45      1.0000 0.75160  0.79250  0.08532  Biso   1.000  C
  C46      1.0000 0.24840  0.20750  0.91468  Biso   1.000  C
  H29      1.0000 0.73980  0.72610  0.07400  Biso   1.000  H
  H30      1.0000 0.26020  0.27390  0.92600  Biso   1.000  H
  C47      1.0000 0.84550  0.84000  0.04716  Biso   1.000  C
  C48      1.0000 0.15450  0.16000  0.95284  Biso   1.000  C
  H31      1.0000 0.89870  0.80520  0.00960  Biso   1.000  H
  H32      1.0000 0.10130  0.19480  0.99040  Biso   1.000  H
  C49      1.0000 0.29410  0.54340  0.96621  Biso   1.000  C
  C50      1.0000 0.70590  0.45660  0.03379  Biso   1.000  C
  C51      1.0000 0.46110  0.57390  0.94110  Biso   1.000  C
  C52      1.0000 0.53890  0.42610  0.05890  Biso   1.000  C
  H33      1.0000 0.50440  0.64250  0.96430  Biso   1.000  H
  H34      1.0000 0.49560  0.35750  0.03570  Biso   1.000  H
  H35      1.0000 0.54460  0.54090  0.95430  Biso   1.000  H
  H36      1.0000 0.45540  0.45910  0.04570  Biso   1.000  H
  H37      1.0000 0.44260  0.55820  0.88850  Biso   1.000  H
  H38      1.0000 0.55740  0.44180  0.11150  Biso   1.000  H
  C53      1.0000 0.90760  0.58950  0.92070  Biso   1.000  C
  C54      1.0000 0.09240  0.41050  0.07930  Biso   1.000  C
  C55      1.0000 0.86510  0.64350  0.87218  Biso   1.000  C
  C56      1.0000 0.13490  0.35650  0.12782  Biso   1.000  C
  H39      1.0000 0.76430  0.66840  0.88530  Biso   1.000  H
  H40      1.0000 0.23570  0.33160  0.11470  Biso   1.000  H
  H41      1.0000 0.96220  0.69620  0.87790  Biso   1.000  H
  H42      1.0000 0.03780  0.30380  0.12210  Biso   1.000  H
  H43      1.0000 0.84120  0.60110  0.82180  Biso   1.000  H
  H44      1.0000 0.15880  0.39890  0.17820  Biso   1.000  H
  C57      1.0000 0.03390  0.54360  0.31814  Biso   1.000  C
  C58      1.0000 0.96610  0.45640  0.68186  Biso   1.000  C
  C59      1.0000 0.85450  0.50310  0.27715  Biso   1.000  C
  C60      1.0000 0.14550  0.49690  0.72285  Biso   1.000  C
  H45      1.0000 0.80890  0.44180  0.28250  Biso   1.000  H
  H46      1.0000 0.19110  0.55820  0.71750  Biso   1.000  H
  H47      1.0000 0.85690  0.49450  0.22580  Biso   1.000  H
  H48      1.0000 0.14310  0.50550  0.77420  Biso   1.000  H
  H49      1.0000 0.78150  0.54670  0.29660  Biso   1.000  H
  H50      1.0000 0.21850  0.45330  0.70340  Biso   1.000  H
  C61      1.0000 0.43480  0.63280  0.27082  Biso   1.000  C
  C62      1.0000 0.56520  0.36720  0.72918  Biso   1.000  C
  C63      1.0000 0.49470  0.64690  0.20370  Biso   1.000  C
  C64      1.0000 0.50530  0.35310  0.79630  Biso   1.000  C
  H51      1.0000 0.40100  0.61790  0.16310  Biso   1.000  H
  H52      1.0000 0.59900  0.38210  0.83690  Biso   1.000  H
  H53      1.0000 0.59130  0.61700  0.19250  Biso   1.000  H
  H54      1.0000 0.40870  0.38300  0.80750  Biso   1.000  H
  H55      1.0000 0.53090  0.71480  0.21180  Biso   1.000  H
  H56      1.0000 0.46910  0.28520  0.78820  Biso   1.000  H
  C65      1.0000 0.64580  0.67420  0.44662  Biso   1.000  C
  C66      1.0000 0.35420  0.32580  0.55338  Biso   1.000  C
  C67      1.0000 0.83080  0.71000  0.47971  Biso   1.000  C
  C68      1.0000 0.16920  0.29000  0.52029  Biso   1.000  C
  H57      1.0000 0.84450  0.76870  0.52070  Biso   1.000  H
  H58      1.0000 0.15550  0.23130  0.47930  Biso   1.000  H
  H59      1.0000 0.89960  0.72230  0.44350  Biso   1.000  H
  H60      1.0000 0.10040  0.27770  0.55650  Biso   1.000  H
  H61      1.0000 0.86880  0.66220  0.49650  Biso   1.000  H
  H62      1.0000 0.13120  0.33780  0.50350  Biso   1.000  H
  C69      1.0000 0.23640  0.59180  0.49953  Biso   1.000  C
  C70      1.0000 0.76360  0.40820  0.50047  Biso   1.000  C
  C71      1.0000 0.17220  0.58070  0.56612  Biso   1.000  C
  C72      1.0000 0.82780  0.41930  0.43388  Biso   1.000  C
  H63      1.0000 0.20980  0.52810  0.57600  Biso   1.000  H
  H64      1.0000 0.79020  0.47190  0.42400  Biso   1.000  H
  H65      1.0000 0.04700  0.56760  0.55890  Biso   1.000  H
  H66      1.0000 0.95300  0.43240  0.44110  Biso   1.000  H
  H67      1.0000 0.21780  0.63930  0.60710  Biso   1.000  H
  H68      1.0000 0.78220  0.36070  0.39290  Biso   1.000  H
  C73      1.0000 0.72350  0.09400  0.98239  Biso   1.000  C
  C74      1.0000 0.27650  0.90600  0.01761  Biso   1.000  C
  C75      1.0000 0.62890  0.16760  0.02040  Biso   1.000  C
  C76      1.0000 0.37110  0.83240  0.97960  Biso   1.000  C
  H69      1.0000 0.52440  0.13630  0.03350  Biso   1.000  H
  H70      1.0000 0.47560  0.86370  0.96650  Biso   1.000  H
  H71      1.0000 0.59880  0.20130  0.98810  Biso   1.000  H
  H72      1.0000 0.40120  0.79870  0.01190  Biso   1.000  H
  H73      1.0000 0.70210  0.21290  0.06420  Biso   1.000  H
  H74      1.0000 0.29790  0.78710  0.93580  Biso   1.000  H
  N1       1.0000 0.91110  0.29374  0.84923  Biso   1.000  N
  N2       1.0000 0.08890  0.70626  0.15077  Biso   1.000  N
  N3       1.0000 0.97460  0.96826  0.68869  Biso   1.000  N
  N4       1.0000 0.02540  0.03174  0.31131  Biso   1.000  N
  N5       1.0000 0.04430  0.91785  0.62994  Biso   1.000  N
  N6       1.0000 0.95570  0.08215  0.37006  Biso   1.000  N
  N7       1.0000 0.28290  0.84412  0.44353  Biso   1.000  N
  N8       1.0000 0.71710  0.15588  0.55647  Biso   1.000  N
  N9       1.0000 0.41240  0.38316  0.33304  Biso   1.000  N
  N10      1.0000 0.58760  0.61684  0.66696  Biso   1.000  N
  N11      1.0000 0.50590  0.05094  0.30885  Biso   1.000  N
  N12      1.0000 0.49410  0.94906  0.69115  Biso   1.000  N
  N13      1.0000 0.56650  0.97316  0.26767  Biso   1.000  N
  N14      1.0000 0.43350  0.02684  0.73233  Biso   1.000  N
  N15      1.0000 0.86520  0.93351  0.06089  Biso   1.000  N
  N16      1.0000 0.13480  0.06649  0.93911  Biso   1.000  N
  O1       1.0000 0.08770  0.06756  0.63584  Biso   1.000  O
  O2       1.0000 0.91230  0.93244  0.36416  Biso   1.000  O
  O3       1.0000 0.59930  0.08188  0.21497  Biso   1.000  O
  O4       1.0000 0.40070  0.91812  0.78503  Biso   1.000  O
  O5       1.0000 0.19950  0.46460  0.92811  Biso   1.000  O
  O6       1.0000 0.80050  0.53540  0.07189  Biso   1.000  O
  O7       1.0000 0.26040  0.59908  0.02249  Biso   1.000  O
  O8       1.0000 0.73960  0.40092  0.97751  Biso   1.000  O
  O9       1.0000 0.89480  0.50212  0.89220  Biso   1.000  O
  O10      1.0000 0.10520  0.49788  0.10780  Biso   1.000  O
  O11      1.0000 0.95320  0.63564  0.98671  Biso   1.000  O
  O12      1.0000 0.04680  0.36436  0.01329  Biso   1.000  O
  O13      1.0000 0.07970  0.63190  0.35031  Biso   1.000  O
  O14      1.0000 0.92030  0.36810  0.64969  Biso   1.000  O
  O15      1.0000 0.12550  0.48537  0.31677  Biso   1.000  O
  O16      1.0000 0.87450  0.51463  0.68323  Biso   1.000  O
  O17      1.0000 0.39050  0.70144  0.31413  Biso   1.000  O
  O18      1.0000 0.60950  0.29856  0.68587  Biso   1.000  O
  O19      1.0000 0.43390  0.55455  0.27882  Biso   1.000  O
  O20      1.0000 0.56610  0.44545  0.72118  Biso   1.000  O
  O21      1.0000 0.55640  0.73415  0.45134  Biso   1.000  O
  O22      1.0000 0.44360  0.26585  0.54866  Biso   1.000  O
  O23      1.0000 0.59420  0.58634  0.41562  Biso   1.000  O
  O24      1.0000 0.40580  0.41366  0.58438  Biso   1.000  O
  O25      1.0000 0.24150  0.67070  0.48996  Biso   1.000  O
  O26      1.0000 0.75850  0.32930  0.51004  Biso   1.000  O
  O27      1.0000 0.27980  0.52273  0.45606  Biso   1.000  O
  O28      1.0000 0.72020  0.47727  0.54394  Biso   1.000  O
  O29      1.0000 0.85670  0.09211  0.02071  Biso   1.000  O
  O30      1.0000 0.14330  0.90789  0.97929  Biso   1.000  O
  O31      1.0000 0.66990  0.04261  0.91916  Biso   1.000  O
  O32      1.0000 0.33010  0.95739  0.08084  Biso   1.000  O
  O33      1.0000 0.20400  0.11455  0.10267  Biso   1.000  O
  O34      1.0000 0.79600  0.88545  0.89733  Biso   1.000  O
  H75      1.0000 0.16000  0.13300  0.14240  Biso   1.000  H
  H76      1.0000 0.84000  0.86700  0.85760  Biso   1.000  H
  H77      1.0000 0.25200  0.06700  0.10300  Biso   1.000  H
  H78      1.0000 0.74800  0.93300  0.89700  Biso   1.000  H
  C77      1.0000 0.98710  0.24070  0.27060  Biso   1.000  C
  C78      1.0000 0.01290  0.75930  0.72940  Biso   1.000  C
  H79      1.0000 0.87140  0.23110  0.24590  Biso   1.000  H
  H80      1.0000 0.12860  0.76890  0.75410  Biso   1.000  H
  H81      1.0000 0.05660  0.30120  0.27150  Biso   1.000  H
  H82      1.0000 0.94340  0.69880  0.72850  Biso   1.000  H
  H83      1.0000 0.98140  0.24140  0.32020  Biso   1.000  H
  H84      1.0000 0.01860  0.75860  0.67980  Biso   1.000  H
  O35      1.0000 0.06160  0.16625  0.23346  Biso   1.000  O
  O36      1.0000 0.93840  0.83375  0.76654  Biso   1.000  O
  H85      1.0000 0.05800  0.12300  0.25300  Biso   1.000  H
  H86      1.0000 0.94200  0.87700  0.74700  Biso   1.000  H
