data_image0
_cell_length_a       10.1431
_cell_length_b       10.1431
_cell_length_c       14.428
_cell_angle_alpha    90
_cell_angle_beta     90
_cell_angle_gamma    120

_symmetry_space_group_name_H-M    "P 1"
_symmetry_int_tables_number       1

loop_
  _symmetry_equiv_pos_as_xyz
  'x, y, z'

loop_
  _atom_site_label
  _atom_site_occupancy
  _atom_site_fract_x
  _atom_site_fract_y
  _atom_site_fract_z
  _atom_site_thermal_displace_type
  _atom_site_B_iso_or_equiv
  _atom_site_type_symbol
  Cu1      1.0000 0.71509  0.23332  0.31715  Biso   1.000  Cu
  Cu2      1.0000 0.76668  0.48177  0.65048  Biso   1.000  Cu
  Cu3      1.0000 0.51823  0.28491  0.98382  Biso   1.000  Cu
  O1       1.0000 0.72080  0.04540  0.34750  Biso   1.000  O
  O2       1.0000 0.95460  0.67540  0.68083  Biso   1.000  O
  O3       1.0000 0.32460  0.27920  0.01417  Biso   1.000  O
  O4       1.0000 0.64450  0.81050  0.29390  Biso   1.000  O
  O5       1.0000 0.18950  0.83400  0.62723  Biso   1.000  O
  O6       1.0000 0.16600  0.35550  0.96057  Biso   1.000  O
  O7       1.0000 0.50840  0.13380  0.07090  Biso   1.000  O
  O8       1.0000 0.86620  0.37460  0.40423  Biso   1.000  O
  O9       1.0000 0.62540  0.49160  0.73757  Biso   1.000  O
  O10      1.0000 0.71010  0.40270  0.24690  Biso   1.000  O
  O11      1.0000 0.59730  0.30740  0.58023  Biso   1.000  O
  O12      1.0000 0.69260  0.28990  0.91357  Biso   1.000  O
  O13      1.0000 0.64250  0.43870  0.10530  Biso   1.000  O
  O14      1.0000 0.56130  0.20380  0.43863  Biso   1.000  O
  O15      1.0000 0.79620  0.35750  0.77197  Biso   1.000  O
  N1       1.0000 0.60310  0.11520  0.21420  Biso   1.000  N
  N2       1.0000 0.88480  0.48790  0.54753  Biso   1.000  N
  N3       1.0000 0.51210  0.39690  0.88087  Biso   1.000  N
  C1       1.0000 0.64780  0.93170  0.28970  Biso   1.000  C
  C2       1.0000 0.06830  0.71610  0.62303  Biso   1.000  C
  C3       1.0000 0.28390  0.35220  0.95637  Biso   1.000  C
  C4       1.0000 0.56940  0.95950  0.20750  Biso   1.000  C
  C5       1.0000 0.04050  0.60990  0.54083  Biso   1.000  C
  C6       1.0000 0.39010  0.43060  0.87417  Biso   1.000  C
  H1       1.0000 0.61560  0.94810  0.14900  Biso   1.000  H
  H2       1.0000 0.05190  0.66750  0.48233  Biso   1.000  H
  H3       1.0000 0.33250  0.38440  0.81567  Biso   1.000  H
  C7       1.0000 0.57730  0.18790  0.14740  Biso   1.000  C
  C8       1.0000 0.81210  0.38940  0.48073  Biso   1.000  C
  C9       1.0000 0.61060  0.42270  0.81407  Biso   1.000  C
  C10      1.0000 0.65060  0.35740  0.16740  Biso   1.000  C
  C11      1.0000 0.64260  0.29320  0.50073  Biso   1.000  C
  C12      1.0000 0.70680  0.34940  0.83407  Biso   1.000  C
  C13      1.0000 0.39820  0.84350  0.20610  Biso   1.000  C
  C14      1.0000 0.15650  0.55470  0.53943  Biso   1.000  C
  C15      1.0000 0.44530  0.60180  0.87277  Biso   1.000  C
  C16      1.0000 0.30490  0.84750  0.27020  Biso   1.000  C
  C17      1.0000 0.15250  0.45740  0.60353  Biso   1.000  C
  C18      1.0000 0.54260  0.69510  0.93687  Biso   1.000  C
  H4       1.0000 0.34410  0.92360  0.31700  Biso   1.000  H
  H5       1.0000 0.07640  0.42050  0.65033  Biso   1.000  H
  H6       1.0000 0.57950  0.65590  0.98367  Biso   1.000  H
  C19      1.0000 0.15200  0.74100  0.26830  Biso   1.000  C
  C20      1.0000 0.25900  0.41100  0.60163  Biso   1.000  C
  C21      1.0000 0.58900  0.84800  0.93497  Biso   1.000  C
  H7       1.0000 0.08540  0.74550  0.31320  Biso   1.000  H
  H8       1.0000 0.25450  0.33990  0.64653  Biso   1.000  H
  H9       1.0000 0.66010  0.91460  0.97987  Biso   1.000  H
  C22      1.0000 0.09100  0.62400  0.19950  Biso   1.000  C
  C23      1.0000 0.37600  0.46700  0.53283  Biso   1.000  C
  C24      1.0000 0.53300  0.90900  0.86617  Biso   1.000  C
  H10      1.0000 0.98550  0.55150  0.19730  Biso   1.000  H
  H11      1.0000 0.44850  0.43400  0.53063  Biso   1.000  H
  H12      1.0000 0.56600  0.01450  0.86397  Biso   1.000  H
  C25      1.0000 0.19000  0.61900  0.13700  Biso   1.000  C
  C26      1.0000 0.38100  0.57100  0.47033  Biso   1.000  C
  C27      1.0000 0.42900  0.81000  0.80367  Biso   1.000  C
  H13      1.0000 0.15480  0.53800  0.09410  Biso   1.000  H
  H14      1.0000 0.46200  0.61680  0.42743  Biso   1.000  H
  H15      1.0000 0.38320  0.84520  0.76077  Biso   1.000  H
  C28      1.0000 0.33400  0.72860  0.13730  Biso   1.000  C
  C29      1.0000 0.27140  0.60540  0.47063  Biso   1.000  C
  C30      1.0000 0.39460  0.66600  0.80397  Biso   1.000  C
  H16      1.0000 0.39830  0.72990  0.08880  Biso   1.000  H
  H17      1.0000 0.27010  0.66840  0.42213  Biso   1.000  H
  H18      1.0000 0.33160  0.60170  0.75547  Biso   1.000  H
  N4       1.0000 0.78300  0.94300  0.60190  Biso   1.000  N
  N5       1.0000 0.05700  0.84000  0.93523  Biso   1.000  N
  N6       1.0000 0.16000  0.21700  0.26857  Biso   1.000  N
  C31      1.0000 0.67400  0.97200  0.59900  Biso   1.000  C
  C32      1.0000 0.02800  0.70200  0.93233  Biso   1.000  C
  C33      1.0000 0.29800  0.32600  0.26567  Biso   1.000  C
  H19      1.0000 0.57770  0.87850  0.61310  Biso   1.000  H
  H20      1.0000 0.12150  0.69920  0.94643  Biso   1.000  H
  H21      1.0000 0.30080  0.42230  0.27977  Biso   1.000  H
  H22      1.0000 0.66830  0.00830  0.53740  Biso   1.000  H
  H23      1.0000 0.99170  0.66000  0.87073  Biso   1.000  H
  H24      1.0000 0.34000  0.33170  0.20407  Biso   1.000  H
  H25      1.0000 0.69150  0.04970  0.64540  Biso   1.000  H
  H26      1.0000 0.95030  0.64180  0.97873  Biso   1.000  H
  H27      1.0000 0.35820  0.30850  0.31207  Biso   1.000  H
  C34      1.0000 0.75500  0.83200  0.53580  Biso   1.000  C
  C35      1.0000 0.16800  0.92300  0.86913  Biso   1.000  C
  C36      1.0000 0.07700  0.24500  0.20247  Biso   1.000  C
  H28      1.0000 0.65030  0.74780  0.54230  Biso   1.000  H
  H29      1.0000 0.25220  0.90250  0.87563  Biso   1.000  H
  H30      1.0000 0.09750  0.34970  0.20897  Biso   1.000  H
  H31      1.0000 0.82590  0.79350  0.54500  Biso   1.000  H
  H32      1.0000 0.20650  0.03240  0.87833  Biso   1.000  H
  H33      1.0000 0.96760  0.17410  0.21167  Biso   1.000  H
  H34      1.0000 0.76950  0.87600  0.47370  Biso   1.000  H
  H35      1.0000 0.12400  0.89350  0.80703  Biso   1.000  H
  H36      1.0000 0.10650  0.23050  0.14037  Biso   1.000  H
  C37      1.0000 0.78400  0.88900  0.69860  Biso   1.000  C
  C38      1.0000 0.11100  0.89500  0.03193  Biso   1.000  C
  C39      1.0000 0.10500  0.21600  0.36527  Biso   1.000  C
  H37      1.0000 0.88660  0.94750  0.72490  Biso   1.000  H
  H38      1.0000 0.05250  0.93910  0.05823  Biso   1.000  H
  H39      1.0000 0.06090  0.11340  0.39157  Biso   1.000  H
  H40      1.0000 0.75400  0.78050  0.69700  Biso   1.000  H
  H41      1.0000 0.21950  0.97350  0.03033  Biso   1.000  H
  H42      1.0000 0.02650  0.24600  0.36367  Biso   1.000  H
  H43      1.0000 0.71210  0.90210  0.73700  Biso   1.000  H
  H44      1.0000 0.09790  0.81000  0.07033  Biso   1.000  H
  H45      1.0000 0.19000  0.28790  0.40367  Biso   1.000  H
  C40      1.0000 0.90000  0.08500  0.59140  Biso   1.000  C
  C41      1.0000 0.91500  0.81500  0.92473  Biso   1.000  C
  C42      1.0000 0.18500  0.10000  0.25807  Biso   1.000  C
  H46      1.0000 0.89750  0.12120  0.52900  Biso   1.000  H
  H47      1.0000 0.87880  0.77630  0.86233  Biso   1.000  H
  H48      1.0000 0.22370  0.10250  0.19567  Biso   1.000  H
  H49      1.0000 0.99620  0.08470  0.60010  Biso   1.000  H
  H50      1.0000 0.91530  0.91150  0.93343  Biso   1.000  H
  H51      1.0000 0.08850  0.00380  0.26677  Biso   1.000  H
  H52      1.0000 0.89280  0.15150  0.63750  Biso   1.000  H
  H53      1.0000 0.84850  0.74130  0.97083  Biso   1.000  H
  H54      1.0000 0.25870  0.10720  0.30417  Biso   1.000  H
  O16      1.0000 0.77010  0.75440  0.13620  Biso   1.000  O
  O17      1.0000 0.24560  0.01570  0.46953  Biso   1.000  O
  O18      1.0000 0.98430  0.22990  0.80287  Biso   1.000  O
  H55      1.0000 0.71800  0.64600  0.14800  Biso   1.000  H
  H56      1.0000 0.35400  0.07200  0.48133  Biso   1.000  H
  H57      1.0000 0.92800  0.28200  0.81467  Biso   1.000  H
  H58      1.0000 0.74600  0.78900  0.19200  Biso   1.000  H
  H59      1.0000 0.21100  0.95700  0.52533  Biso   1.000  H
  H60      1.0000 0.04300  0.25400  0.85867  Biso   1.000  H
  O19      1.0000 0.76250  0.63670  0.38450  Biso   1.000  O
  O20      1.0000 0.36330  0.12580  0.71783  Biso   1.000  O
  O21      1.0000 0.87420  0.23750  0.05117  Biso   1.000  O
  H61      1.0000 0.66400  0.61200  0.36300  Biso   1.000  H
  H62      1.0000 0.38800  0.05200  0.69633  Biso   1.000  H
  H63      1.0000 0.94800  0.33600  0.02967  Biso   1.000  H
  H64      1.0000 0.82400  0.68600  0.32900  Biso   1.000  H
  H65      1.0000 0.31400  0.13800  0.66233  Biso   1.000  H
  H66      1.0000 0.86200  0.17600  0.99567  Biso   1.000  H
