data_image0
_cell_length_a       17.775
_cell_length_b       16.977
_cell_length_c       8.19
_cell_angle_alpha    90
_cell_angle_beta     113.723
_cell_angle_gamma    90

_symmetry_space_group_name_H-M    "P 1"
_symmetry_int_tables_number       1

loop_
  _symmetry_equiv_pos_as_xyz
  'x, y, z'

loop_
  _atom_site_label
  _atom_site_occupancy
  _atom_site_fract_x
  _atom_site_fract_y
  _atom_site_fract_z
  _atom_site_thermal_displace_type
  _atom_site_B_iso_or_equiv
  _atom_site_type_symbol
  Cu1      1.0000 0.21654  0.32012  0.93721  Biso   1.000  Cu
  Cu2      1.0000 0.78346  0.32012  0.56279  Biso   1.000  Cu
  Cu3      1.0000 0.71654  0.82012  0.93721  Biso   1.000  Cu
  Cu4      1.0000 0.28346  0.82012  0.56279  Biso   1.000  Cu
  Cu5      1.0000 0.78346  0.67988  0.06279  Biso   1.000  Cu
  Cu6      1.0000 0.21654  0.67988  0.43721  Biso   1.000  Cu
  Cu7      1.0000 0.28346  0.17988  0.06279  Biso   1.000  Cu
  Cu8      1.0000 0.71654  0.17988  0.43721  Biso   1.000  Cu
  Zn1      1.0000 0.00000  0.44939  0.75000  Biso   1.000  Zn
  Zn2      1.0000 0.50000  0.94939  0.75000  Biso   1.000  Zn
  Zn3      1.0000 0.00000  0.55061  0.25000  Biso   1.000  Zn
  Zn4      1.0000 0.50000  0.05061  0.25000  Biso   1.000  Zn
  O1       1.0000 0.31700  0.35930  0.13340  Biso   1.000  O
  O2       1.0000 0.68300  0.35930  0.36660  Biso   1.000  O
  O3       1.0000 0.81700  0.85930  0.13340  Biso   1.000  O
  O4       1.0000 0.18300  0.85930  0.36660  Biso   1.000  O
  O5       1.0000 0.68300  0.64070  0.86660  Biso   1.000  O
  O6       1.0000 0.31700  0.64070  0.63340  Biso   1.000  O
  O7       1.0000 0.18300  0.14070  0.86660  Biso   1.000  O
  O8       1.0000 0.81700  0.14070  0.63340  Biso   1.000  O
  O9       1.0000 0.37560  0.24460  0.23800  Biso   1.000  O
  O10      1.0000 0.62440  0.24460  0.26200  Biso   1.000  O
  O11      1.0000 0.87560  0.74460  0.23800  Biso   1.000  O
  O12      1.0000 0.12440  0.74460  0.26200  Biso   1.000  O
  O13      1.0000 0.62440  0.75540  0.76200  Biso   1.000  O
  O14      1.0000 0.37560  0.75540  0.73800  Biso   1.000  O
  O15      1.0000 0.12440  0.25540  0.76200  Biso   1.000  O
  O16      1.0000 0.87560  0.25540  0.73800  Biso   1.000  O
  C1       1.0000 0.37260  0.31830  0.24020  Biso   1.000  C
  C2       1.0000 0.62740  0.31830  0.25980  Biso   1.000  C
  C3       1.0000 0.87260  0.81830  0.24020  Biso   1.000  C
  C4       1.0000 0.12740  0.81830  0.25980  Biso   1.000  C
  C5       1.0000 0.62740  0.68170  0.75980  Biso   1.000  C
  C6       1.0000 0.37260  0.68170  0.74020  Biso   1.000  C
  C7       1.0000 0.12740  0.18170  0.75980  Biso   1.000  C
  C8       1.0000 0.87260  0.18170  0.74020  Biso   1.000  C
  C9       1.0000 0.44230  0.36090  0.37970  Biso   1.000  C
  C10      1.0000 0.55770  0.36090  0.12030  Biso   1.000  C
  C11      1.0000 0.94230  0.86090  0.37970  Biso   1.000  C
  C12      1.0000 0.05770  0.86090  0.12030  Biso   1.000  C
  C13      1.0000 0.55770  0.63910  0.62030  Biso   1.000  C
  C14      1.0000 0.44230  0.63910  0.87970  Biso   1.000  C
  C15      1.0000 0.05770  0.13910  0.62030  Biso   1.000  C
  C16      1.0000 0.94230  0.13910  0.87970  Biso   1.000  C
  H1       1.0000 0.49220  0.32870  0.41580  Biso   1.000  H
  H2       1.0000 0.50780  0.32870  0.08420  Biso   1.000  H
  H3       1.0000 0.99220  0.82870  0.41580  Biso   1.000  H
  H4       1.0000 0.00780  0.82870  0.08420  Biso   1.000  H
  H5       1.0000 0.50780  0.67130  0.58420  Biso   1.000  H
  H6       1.0000 0.49220  0.67130  0.91580  Biso   1.000  H
  H7       1.0000 0.00780  0.17130  0.58420  Biso   1.000  H
  H8       1.0000 0.99220  0.17130  0.91580  Biso   1.000  H
  H9       1.0000 0.42930  0.37070  0.48340  Biso   1.000  H
  H10      1.0000 0.57070  0.37070  0.01660  Biso   1.000  H
  H11      1.0000 0.92930  0.87070  0.48340  Biso   1.000  H
  H12      1.0000 0.07070  0.87070  0.01660  Biso   1.000  H
  H13      1.0000 0.57070  0.62930  0.51660  Biso   1.000  H
  H14      1.0000 0.42930  0.62930  0.98340  Biso   1.000  H
  H15      1.0000 0.07070  0.12930  0.51660  Biso   1.000  H
  H16      1.0000 0.92930  0.12930  0.98340  Biso   1.000  H
  H17      1.0000 0.45130  0.41120  0.33160  Biso   1.000  H
  H18      1.0000 0.54870  0.41120  0.16840  Biso   1.000  H
  H19      1.0000 0.95130  0.91120  0.33160  Biso   1.000  H
  H20      1.0000 0.04870  0.91120  0.16840  Biso   1.000  H
  H21      1.0000 0.54870  0.58880  0.66840  Biso   1.000  H
  H22      1.0000 0.45130  0.58880  0.83160  Biso   1.000  H
  H23      1.0000 0.04870  0.08880  0.66840  Biso   1.000  H
  H24      1.0000 0.95130  0.08880  0.83160  Biso   1.000  H
  O17      1.0000 0.27520  0.30880  0.78060  Biso   1.000  O
  O18      1.0000 0.72480  0.30880  0.71940  Biso   1.000  O
  O19      1.0000 0.77520  0.80880  0.78060  Biso   1.000  O
  O20      1.0000 0.22480  0.80880  0.71940  Biso   1.000  O
  O21      1.0000 0.72480  0.69120  0.21940  Biso   1.000  O
  O22      1.0000 0.27520  0.69120  0.28060  Biso   1.000  O
  O23      1.0000 0.22480  0.19120  0.21940  Biso   1.000  O
  O24      1.0000 0.77520  0.19120  0.28060  Biso   1.000  O
  O25      1.0000 0.33390  0.19500  0.89110  Biso   1.000  O
  O26      1.0000 0.66610  0.19500  0.60890  Biso   1.000  O
  O27      1.0000 0.83390  0.69500  0.89110  Biso   1.000  O
  O28      1.0000 0.16610  0.69500  0.60890  Biso   1.000  O
  O29      1.0000 0.66610  0.80500  0.10890  Biso   1.000  O
  O30      1.0000 0.33390  0.80500  0.39110  Biso   1.000  O
  O31      1.0000 0.16610  0.30500  0.10890  Biso   1.000  O
  O32      1.0000 0.83390  0.30500  0.39110  Biso   1.000  O
  C17      1.0000 0.32160  0.25230  0.78820  Biso   1.000  C
  C18      1.0000 0.67840  0.25230  0.71180  Biso   1.000  C
  C19      1.0000 0.82160  0.75230  0.78820  Biso   1.000  C
  C20      1.0000 0.17840  0.75230  0.71180  Biso   1.000  C
  C21      1.0000 0.67840  0.74770  0.21180  Biso   1.000  C
  C22      1.0000 0.32160  0.74770  0.28820  Biso   1.000  C
  C23      1.0000 0.17840  0.24770  0.21180  Biso   1.000  C
  C24      1.0000 0.82160  0.24770  0.28820  Biso   1.000  C
  C25      1.0000 0.36670  0.25280  0.66260  Biso   1.000  C
  C26      1.0000 0.63330  0.25280  0.83740  Biso   1.000  C
  C27      1.0000 0.86670  0.75280  0.66260  Biso   1.000  C
  C28      1.0000 0.13330  0.75280  0.83740  Biso   1.000  C
  C29      1.0000 0.63330  0.74720  0.33740  Biso   1.000  C
  C30      1.0000 0.36670  0.74720  0.16260  Biso   1.000  C
  C31      1.0000 0.13330  0.24720  0.33740  Biso   1.000  C
  C32      1.0000 0.86670  0.24720  0.16260  Biso   1.000  C
  H25      1.0000 0.32710  0.24410  0.53970  Biso   1.000  H
  H26      1.0000 0.67290  0.24410  0.96030  Biso   1.000  H
  H27      1.0000 0.82710  0.74410  0.53970  Biso   1.000  H
  H28      1.0000 0.17290  0.74410  0.96030  Biso   1.000  H
  H29      1.0000 0.67290  0.75590  0.46030  Biso   1.000  H
  H30      1.0000 0.32710  0.75590  0.03970  Biso   1.000  H
  H31      1.0000 0.17290  0.25590  0.46030  Biso   1.000  H
  H32      1.0000 0.82710  0.25590  0.03970  Biso   1.000  H
  H33      1.0000 0.40810  0.21090  0.69740  Biso   1.000  H
  H34      1.0000 0.59190  0.21090  0.80260  Biso   1.000  H
  H35      1.0000 0.90810  0.71090  0.69740  Biso   1.000  H
  H36      1.0000 0.09190  0.71090  0.80260  Biso   1.000  H
  H37      1.0000 0.59190  0.78910  0.30260  Biso   1.000  H
  H38      1.0000 0.40810  0.78910  0.19740  Biso   1.000  H
  H39      1.0000 0.09190  0.28910  0.30260  Biso   1.000  H
  H40      1.0000 0.90810  0.28910  0.19740  Biso   1.000  H
  H41      1.0000 0.39370  0.30390  0.67060  Biso   1.000  H
  H42      1.0000 0.60630  0.30390  0.82940  Biso   1.000  H
  H43      1.0000 0.89370  0.80390  0.67060  Biso   1.000  H
  H44      1.0000 0.10630  0.80390  0.82940  Biso   1.000  H
  H45      1.0000 0.60630  0.69610  0.32940  Biso   1.000  H
  H46      1.0000 0.39370  0.69610  0.17060  Biso   1.000  H
  H47      1.0000 0.10630  0.19610  0.32940  Biso   1.000  H
  H48      1.0000 0.89370  0.19610  0.17060  Biso   1.000  H
  O33      1.0000 0.15500  0.42360  0.84460  Biso   1.000  O
  O34      1.0000 0.84500  0.42360  0.65540  Biso   1.000  O
  O35      1.0000 0.65500  0.92360  0.84460  Biso   1.000  O
  O36      1.0000 0.34500  0.92360  0.65540  Biso   1.000  O
  O37      1.0000 0.84500  0.57640  0.15540  Biso   1.000  O
  O38      1.0000 0.15500  0.57640  0.34460  Biso   1.000  O
  O39      1.0000 0.34500  0.07640  0.15540  Biso   1.000  O
  O40      1.0000 0.65500  0.07640  0.34460  Biso   1.000  O
  O41      1.0000 0.08860  0.53380  0.83790  Biso   1.000  O
  O42      1.0000 0.91140  0.53380  0.66210  Biso   1.000  O
  O43      1.0000 0.58860  0.03380  0.83790  Biso   1.000  O
  O44      1.0000 0.41140  0.03380  0.66210  Biso   1.000  O
  O45      1.0000 0.91140  0.46620  0.16210  Biso   1.000  O
  O46      1.0000 0.08860  0.46620  0.33790  Biso   1.000  O
  O47      1.0000 0.41140  0.96620  0.16210  Biso   1.000  O
  O48      1.0000 0.58860  0.96620  0.33790  Biso   1.000  O
  C33      1.0000 0.15460  0.49580  0.87510  Biso   1.000  C
  C34      1.0000 0.84540  0.49580  0.62490  Biso   1.000  C
  C35      1.0000 0.65460  0.99580  0.87510  Biso   1.000  C
  C36      1.0000 0.34540  0.99580  0.62490  Biso   1.000  C
  C37      1.0000 0.84540  0.50420  0.12490  Biso   1.000  C
  C38      1.0000 0.15460  0.50420  0.37510  Biso   1.000  C
  C39      1.0000 0.34540  0.00420  0.12490  Biso   1.000  C
  C40      1.0000 0.65460  0.00420  0.37510  Biso   1.000  C
  C41      1.0000 0.23460  0.54110  0.95380  Biso   1.000  C
  C42      1.0000 0.76540  0.54110  0.54620  Biso   1.000  C
  C43      1.0000 0.73460  0.04110  0.95380  Biso   1.000  C
  C44      1.0000 0.26540  0.04110  0.54620  Biso   1.000  C
  C45      1.0000 0.76540  0.45890  0.04620  Biso   1.000  C
  C46      1.0000 0.23460  0.45890  0.45380  Biso   1.000  C
  C47      1.0000 0.26540  0.95890  0.04620  Biso   1.000  C
  C48      1.0000 0.73460  0.95890  0.45380  Biso   1.000  C
  H49      1.0000 0.27740  0.50740  0.03840  Biso   1.000  H
  H50      1.0000 0.72260  0.50740  0.46160  Biso   1.000  H
  H51      1.0000 0.77740  0.00740  0.03840  Biso   1.000  H
  H52      1.0000 0.22260  0.00740  0.46160  Biso   1.000  H
  H53      1.0000 0.72260  0.49260  0.96160  Biso   1.000  H
  H54      1.0000 0.27740  0.49260  0.53840  Biso   1.000  H
  H55      1.0000 0.22260  0.99260  0.96160  Biso   1.000  H
  H56      1.0000 0.77740  0.99260  0.53840  Biso   1.000  H
  H57      1.0000 0.22730  0.58790  0.01590  Biso   1.000  H
  H58      1.0000 0.77270  0.58790  0.48410  Biso   1.000  H
  H59      1.0000 0.72730  0.08790  0.01590  Biso   1.000  H
  H60      1.0000 0.27270  0.08790  0.48410  Biso   1.000  H
  H61      1.0000 0.77270  0.41210  0.98410  Biso   1.000  H
  H62      1.0000 0.22730  0.41210  0.51590  Biso   1.000  H
  H63      1.0000 0.27270  0.91210  0.98410  Biso   1.000  H
  H64      1.0000 0.72730  0.91210  0.51590  Biso   1.000  H
  H65      1.0000 0.25110  0.55730  0.85800  Biso   1.000  H
  H66      1.0000 0.74890  0.55730  0.64200  Biso   1.000  H
  H67      1.0000 0.75110  0.05730  0.85800  Biso   1.000  H
  H68      1.0000 0.24890  0.05730  0.64200  Biso   1.000  H
  H69      1.0000 0.74890  0.44270  0.14200  Biso   1.000  H
  H70      1.0000 0.25110  0.44270  0.35800  Biso   1.000  H
  H71      1.0000 0.24890  0.94270  0.14200  Biso   1.000  H
  H72      1.0000 0.75110  0.94270  0.35800  Biso   1.000  H
  N1       1.0000 0.00030  0.38300  0.54810  Biso   1.000  N
  N2       1.0000 0.99970  0.38300  0.95190  Biso   1.000  N
  N3       1.0000 0.50030  0.88300  0.54810  Biso   1.000  N
  N4       1.0000 0.49970  0.88300  0.95190  Biso   1.000  N
  N5       1.0000 0.99970  0.61700  0.45190  Biso   1.000  N
  N6       1.0000 0.00030  0.61700  0.04810  Biso   1.000  N
  N7       1.0000 0.49970  0.11700  0.45190  Biso   1.000  N
  N8       1.0000 0.50030  0.11700  0.04810  Biso   1.000  N
  H73      1.0000 0.02070  0.41150  0.48100  Biso   1.000  H
  H74      1.0000 0.97930  0.41150  0.01900  Biso   1.000  H
  H75      1.0000 0.52070  0.91150  0.48100  Biso   1.000  H
  H76      1.0000 0.47930  0.91150  0.01900  Biso   1.000  H
  H77      1.0000 0.97930  0.58850  0.51900  Biso   1.000  H
  H78      1.0000 0.02070  0.58850  0.98100  Biso   1.000  H
  H79      1.0000 0.47930  0.08850  0.51900  Biso   1.000  H
  H80      1.0000 0.52070  0.08850  0.98100  Biso   1.000  H
  H81      1.0000 0.94810  0.36750  0.47920  Biso   1.000  H
  H82      1.0000 0.05190  0.36750  0.02080  Biso   1.000  H
  H83      1.0000 0.44810  0.86750  0.47920  Biso   1.000  H
  H84      1.0000 0.55190  0.86750  0.02080  Biso   1.000  H
  H85      1.0000 0.05190  0.63250  0.52080  Biso   1.000  H
  H86      1.0000 0.94810  0.63250  0.97920  Biso   1.000  H
  H87      1.0000 0.55190  0.13250  0.52080  Biso   1.000  H
  H88      1.0000 0.44810  0.13250  0.97920  Biso   1.000  H
  H89      1.0000 0.03230  0.33970  0.59250  Biso   1.000  H
  H90      1.0000 0.96770  0.33970  0.90750  Biso   1.000  H
  H91      1.0000 0.53230  0.83970  0.59250  Biso   1.000  H
  H92      1.0000 0.46770  0.83970  0.90750  Biso   1.000  H
  H93      1.0000 0.96770  0.66030  0.40750  Biso   1.000  H
  H94      1.0000 0.03230  0.66030  0.09250  Biso   1.000  H
  H95      1.0000 0.46770  0.16030  0.40750  Biso   1.000  H
  H96      1.0000 0.53230  0.16030  0.09250  Biso   1.000  H
