data_image0
_cell_length_a       17.775
_cell_length_b       16.977
_cell_length_c       8.19
_cell_angle_alpha    90
_cell_angle_beta     113.723
_cell_angle_gamma    90

_symmetry_space_group_name_H-M    "P 1"
_symmetry_int_tables_number       1

loop_
  _symmetry_equiv_pos_as_xyz
  'x, y, z'

loop_
  _atom_site_label
  _atom_site_occupancy
  _atom_site_fract_x
  _atom_site_fract_y
  _atom_site_fract_z
  _atom_site_thermal_displace_type
  _atom_site_B_iso_or_equiv
  _atom_site_type_symbol
  Cu1      1.0000 0.21652  0.32013  0.93729  Biso   1.000  Cu
  Cu2      1.0000 0.78348  0.32013  0.56271  Biso   1.000  Cu
  Cu3      1.0000 0.71652  0.82013  0.93729  Biso   1.000  Cu
  Cu4      1.0000 0.28348  0.82013  0.56271  Biso   1.000  Cu
  Cu5      1.0000 0.78348  0.67987  0.06271  Biso   1.000  Cu
  Cu6      1.0000 0.21652  0.67987  0.43729  Biso   1.000  Cu
  Cu7      1.0000 0.28348  0.17987  0.06271  Biso   1.000  Cu
  Cu8      1.0000 0.71652  0.17987  0.43729  Biso   1.000  Cu
  Zn1      1.0000 0.00000  0.44938  0.75000  Biso   1.000  Zn
  Zn2      1.0000 0.50000  0.94938  0.75000  Biso   1.000  Zn
  Zn3      1.0000 0.00000  0.55062  0.25000  Biso   1.000  Zn
  Zn4      1.0000 0.50000  0.05062  0.25000  Biso   1.000  Zn
  O1       1.0000 0.31630  0.35880  0.13240  Biso   1.000  O
  O2       1.0000 0.68370  0.35880  0.36760  Biso   1.000  O
  O3       1.0000 0.81630  0.85880  0.13240  Biso   1.000  O
  O4       1.0000 0.18370  0.85880  0.36760  Biso   1.000  O
  O5       1.0000 0.68370  0.64120  0.86760  Biso   1.000  O
  O6       1.0000 0.31630  0.64120  0.63240  Biso   1.000  O
  O7       1.0000 0.18370  0.14120  0.86760  Biso   1.000  O
  O8       1.0000 0.81630  0.14120  0.63240  Biso   1.000  O
  O9       1.0000 0.37550  0.24490  0.23850  Biso   1.000  O
  O10      1.0000 0.62450  0.24490  0.26150  Biso   1.000  O
  O11      1.0000 0.87550  0.74490  0.23850  Biso   1.000  O
  O12      1.0000 0.12450  0.74490  0.26150  Biso   1.000  O
  O13      1.0000 0.62450  0.75510  0.76150  Biso   1.000  O
  O14      1.0000 0.37550  0.75510  0.73850  Biso   1.000  O
  O15      1.0000 0.12450  0.25510  0.76150  Biso   1.000  O
  O16      1.0000 0.87550  0.25510  0.73850  Biso   1.000  O
  C1       1.0000 0.37300  0.31800  0.24080  Biso   1.000  C
  C2       1.0000 0.62700  0.31800  0.25920  Biso   1.000  C
  C3       1.0000 0.87300  0.81800  0.24080  Biso   1.000  C
  C4       1.0000 0.12700  0.81800  0.25920  Biso   1.000  C
  C5       1.0000 0.62700  0.68200  0.75920  Biso   1.000  C
  C6       1.0000 0.37300  0.68200  0.74080  Biso   1.000  C
  C7       1.0000 0.12700  0.18200  0.75920  Biso   1.000  C
  C8       1.0000 0.87300  0.18200  0.74080  Biso   1.000  C
  C9       1.0000 0.44230  0.36100  0.37910  Biso   1.000  C
  C10      1.0000 0.55770  0.36100  0.12090  Biso   1.000  C
  C11      1.0000 0.94230  0.86100  0.37910  Biso   1.000  C
  C12      1.0000 0.05770  0.86100  0.12090  Biso   1.000  C
  C13      1.0000 0.55770  0.63900  0.62090  Biso   1.000  C
  C14      1.0000 0.44230  0.63900  0.87910  Biso   1.000  C
  C15      1.0000 0.05770  0.13900  0.62090  Biso   1.000  C
  C16      1.0000 0.94230  0.13900  0.87910  Biso   1.000  C
  H1       1.0000 0.49440  0.33640  0.39280  Biso   1.000  H
  H2       1.0000 0.50560  0.33640  0.10720  Biso   1.000  H
  H3       1.0000 0.99440  0.83640  0.39280  Biso   1.000  H
  H4       1.0000 0.00560  0.83640  0.10720  Biso   1.000  H
  H5       1.0000 0.50560  0.66360  0.60720  Biso   1.000  H
  H6       1.0000 0.49440  0.66360  0.89280  Biso   1.000  H
  H7       1.0000 0.00560  0.16360  0.60720  Biso   1.000  H
  H8       1.0000 0.99440  0.16360  0.89280  Biso   1.000  H
  H9       1.0000 0.43640  0.35880  0.49300  Biso   1.000  H
  H10      1.0000 0.56360  0.35880  0.00700  Biso   1.000  H
  H11      1.0000 0.93640  0.85880  0.49300  Biso   1.000  H
  H12      1.0000 0.06360  0.85880  0.00700  Biso   1.000  H
  H13      1.0000 0.56360  0.64120  0.50700  Biso   1.000  H
  H14      1.0000 0.43640  0.64120  0.99300  Biso   1.000  H
  H15      1.0000 0.06360  0.14120  0.50700  Biso   1.000  H
  H16      1.0000 0.93640  0.14120  0.99300  Biso   1.000  H
  H17      1.0000 0.44180  0.41610  0.34280  Biso   1.000  H
  H18      1.0000 0.55820  0.41610  0.15720  Biso   1.000  H
  H19      1.0000 0.94180  0.91610  0.34280  Biso   1.000  H
  H20      1.0000 0.05820  0.91610  0.15720  Biso   1.000  H
  H21      1.0000 0.55820  0.58390  0.65720  Biso   1.000  H
  H22      1.0000 0.44180  0.58390  0.84280  Biso   1.000  H
  H23      1.0000 0.05820  0.08390  0.65720  Biso   1.000  H
  H24      1.0000 0.94180  0.08390  0.84280  Biso   1.000  H
  O17      1.0000 0.27530  0.30870  0.78050  Biso   1.000  O
  O18      1.0000 0.72470  0.30870  0.71950  Biso   1.000  O
  O19      1.0000 0.77530  0.80870  0.78050  Biso   1.000  O
  O20      1.0000 0.22470  0.80870  0.71950  Biso   1.000  O
  O21      1.0000 0.72470  0.69130  0.21950  Biso   1.000  O
  O22      1.0000 0.27530  0.69130  0.28050  Biso   1.000  O
  O23      1.0000 0.22470  0.19130  0.21950  Biso   1.000  O
  O24      1.0000 0.77530  0.19130  0.28050  Biso   1.000  O
  O25      1.0000 0.33360  0.19510  0.88970  Biso   1.000  O
  O26      1.0000 0.66640  0.19510  0.61030  Biso   1.000  O
  O27      1.0000 0.83360  0.69510  0.88970  Biso   1.000  O
  O28      1.0000 0.16640  0.69510  0.61030  Biso   1.000  O
  O29      1.0000 0.66640  0.80490  0.11030  Biso   1.000  O
  O30      1.0000 0.33360  0.80490  0.38970  Biso   1.000  O
  O31      1.0000 0.16640  0.30490  0.11030  Biso   1.000  O
  O32      1.0000 0.83360  0.30490  0.38970  Biso   1.000  O
  C17      1.0000 0.32180  0.25220  0.78850  Biso   1.000  C
  C18      1.0000 0.67820  0.25220  0.71150  Biso   1.000  C
  C19      1.0000 0.82180  0.75220  0.78850  Biso   1.000  C
  C20      1.0000 0.17820  0.75220  0.71150  Biso   1.000  C
  C21      1.0000 0.67820  0.74780  0.21150  Biso   1.000  C
  C22      1.0000 0.32180  0.74780  0.28850  Biso   1.000  C
  C23      1.0000 0.17820  0.24780  0.21150  Biso   1.000  C
  C24      1.0000 0.82180  0.24780  0.28850  Biso   1.000  C
  C25      1.0000 0.36680  0.25200  0.66360  Biso   1.000  C
  C26      1.0000 0.63320  0.25200  0.83640  Biso   1.000  C
  C27      1.0000 0.86680  0.75200  0.66360  Biso   1.000  C
  C28      1.0000 0.13320  0.75200  0.83640  Biso   1.000  C
  C29      1.0000 0.63320  0.74800  0.33640  Biso   1.000  C
  C30      1.0000 0.36680  0.74800  0.16360  Biso   1.000  C
  C31      1.0000 0.13320  0.24800  0.33640  Biso   1.000  C
  C32      1.0000 0.86680  0.24800  0.16360  Biso   1.000  C
  H25      1.0000 0.32670  0.24720  0.53990  Biso   1.000  H
  H26      1.0000 0.67330  0.24720  0.96010  Biso   1.000  H
  H27      1.0000 0.82670  0.74720  0.53990  Biso   1.000  H
  H28      1.0000 0.17330  0.74720  0.96010  Biso   1.000  H
  H29      1.0000 0.67330  0.75280  0.46010  Biso   1.000  H
  H30      1.0000 0.32670  0.75280  0.03990  Biso   1.000  H
  H31      1.0000 0.17330  0.25280  0.46010  Biso   1.000  H
  H32      1.0000 0.82670  0.25280  0.03990  Biso   1.000  H
  H33      1.0000 0.40490  0.20730  0.69300  Biso   1.000  H
  H34      1.0000 0.59510  0.20730  0.80700  Biso   1.000  H
  H35      1.0000 0.90490  0.70730  0.69300  Biso   1.000  H
  H36      1.0000 0.09510  0.70730  0.80700  Biso   1.000  H
  H37      1.0000 0.59510  0.79270  0.30700  Biso   1.000  H
  H38      1.0000 0.40490  0.79270  0.19300  Biso   1.000  H
  H39      1.0000 0.09510  0.29270  0.30700  Biso   1.000  H
  H40      1.0000 0.90490  0.29270  0.19300  Biso   1.000  H
  H41      1.0000 0.39760  0.30120  0.67810  Biso   1.000  H
  H42      1.0000 0.60240  0.30120  0.82190  Biso   1.000  H
  H43      1.0000 0.89760  0.80120  0.67810  Biso   1.000  H
  H44      1.0000 0.10240  0.80120  0.82190  Biso   1.000  H
  H45      1.0000 0.60240  0.69880  0.32190  Biso   1.000  H
  H46      1.0000 0.39760  0.69880  0.17810  Biso   1.000  H
  H47      1.0000 0.10240  0.19880  0.32190  Biso   1.000  H
  H48      1.0000 0.89760  0.19880  0.17810  Biso   1.000  H
  O33      1.0000 0.15520  0.42390  0.84530  Biso   1.000  O
  O34      1.0000 0.84480  0.42390  0.65470  Biso   1.000  O
  O35      1.0000 0.65520  0.92390  0.84530  Biso   1.000  O
  O36      1.0000 0.34480  0.92390  0.65470  Biso   1.000  O
  O37      1.0000 0.84480  0.57610  0.15470  Biso   1.000  O
  O38      1.0000 0.15520  0.57610  0.34530  Biso   1.000  O
  O39      1.0000 0.34480  0.07610  0.15470  Biso   1.000  O
  O40      1.0000 0.65520  0.07610  0.34530  Biso   1.000  O
  O41      1.0000 0.08870  0.53370  0.83790  Biso   1.000  O
  O42      1.0000 0.91130  0.53370  0.66210  Biso   1.000  O
  O43      1.0000 0.58870  0.03370  0.83790  Biso   1.000  O
  O44      1.0000 0.41130  0.03370  0.66210  Biso   1.000  O
  O45      1.0000 0.91130  0.46630  0.16210  Biso   1.000  O
  O46      1.0000 0.08870  0.46630  0.33790  Biso   1.000  O
  O47      1.0000 0.41130  0.96630  0.16210  Biso   1.000  O
  O48      1.0000 0.58870  0.96630  0.33790  Biso   1.000  O
  C33      1.0000 0.15440  0.49550  0.87510  Biso   1.000  C
  C34      1.0000 0.84560  0.49550  0.62490  Biso   1.000  C
  C35      1.0000 0.65440  0.99550  0.87510  Biso   1.000  C
  C36      1.0000 0.34560  0.99550  0.62490  Biso   1.000  C
  C37      1.0000 0.84560  0.50450  0.12490  Biso   1.000  C
  C38      1.0000 0.15440  0.50450  0.37510  Biso   1.000  C
  C39      1.0000 0.34560  0.00450  0.12490  Biso   1.000  C
  C40      1.0000 0.65440  0.00450  0.37510  Biso   1.000  C
  C41      1.0000 0.23430  0.54170  0.95360  Biso   1.000  C
  C42      1.0000 0.76570  0.54170  0.54640  Biso   1.000  C
  C43      1.0000 0.73430  0.04170  0.95360  Biso   1.000  C
  C44      1.0000 0.26570  0.04170  0.54640  Biso   1.000  C
  C45      1.0000 0.76570  0.45830  0.04640  Biso   1.000  C
  C46      1.0000 0.23430  0.45830  0.45360  Biso   1.000  C
  C47      1.0000 0.26570  0.95830  0.04640  Biso   1.000  C
  C48      1.0000 0.73430  0.95830  0.45360  Biso   1.000  C
  H49      1.0000 0.27790  0.50780  0.03500  Biso   1.000  H
  H50      1.0000 0.72210  0.50780  0.46500  Biso   1.000  H
  H51      1.0000 0.77790  0.00780  0.03500  Biso   1.000  H
  H52      1.0000 0.22210  0.00780  0.46500  Biso   1.000  H
  H53      1.0000 0.72210  0.49220  0.96500  Biso   1.000  H
  H54      1.0000 0.27790  0.49220  0.53500  Biso   1.000  H
  H55      1.0000 0.22210  0.99220  0.96500  Biso   1.000  H
  H56      1.0000 0.77790  0.99220  0.53500  Biso   1.000  H
  H57      1.0000 0.22710  0.58730  0.01920  Biso   1.000  H
  H58      1.0000 0.77290  0.58730  0.48080  Biso   1.000  H
  H59      1.0000 0.72710  0.08730  0.01920  Biso   1.000  H
  H60      1.0000 0.27290  0.08730  0.48080  Biso   1.000  H
  H61      1.0000 0.77290  0.41270  0.98080  Biso   1.000  H
  H62      1.0000 0.22710  0.41270  0.51920  Biso   1.000  H
  H63      1.0000 0.27290  0.91270  0.98080  Biso   1.000  H
  H64      1.0000 0.72710  0.91270  0.51920  Biso   1.000  H
  H65      1.0000 0.24950  0.55980  0.85720  Biso   1.000  H
  H66      1.0000 0.75050  0.55980  0.64280  Biso   1.000  H
  H67      1.0000 0.74950  0.05980  0.85720  Biso   1.000  H
  H68      1.0000 0.25050  0.05980  0.64280  Biso   1.000  H
  H69      1.0000 0.75050  0.44020  0.14280  Biso   1.000  H
  H70      1.0000 0.24950  0.44020  0.35720  Biso   1.000  H
  H71      1.0000 0.25050  0.94020  0.14280  Biso   1.000  H
  H72      1.0000 0.74950  0.94020  0.35720  Biso   1.000  H
  N1       1.0000 0.00040  0.38320  0.54860  Biso   1.000  N
  N2       1.0000 0.99960  0.38320  0.95140  Biso   1.000  N
  N3       1.0000 0.50040  0.88320  0.54860  Biso   1.000  N
  N4       1.0000 0.49960  0.88320  0.95140  Biso   1.000  N
  N5       1.0000 0.99960  0.61680  0.45140  Biso   1.000  N
  N6       1.0000 0.00040  0.61680  0.04860  Biso   1.000  N
  N7       1.0000 0.49960  0.11680  0.45140  Biso   1.000  N
  N8       1.0000 0.50040  0.11680  0.04860  Biso   1.000  N
  H73      1.0000 0.02590  0.40980  0.48880  Biso   1.000  H
  H74      1.0000 0.97410  0.40980  0.01120  Biso   1.000  H
  H75      1.0000 0.52590  0.90980  0.48880  Biso   1.000  H
  H76      1.0000 0.47410  0.90980  0.01120  Biso   1.000  H
  H77      1.0000 0.97410  0.59020  0.51120  Biso   1.000  H
  H78      1.0000 0.02590  0.59020  0.98880  Biso   1.000  H
  H79      1.0000 0.47410  0.09020  0.51120  Biso   1.000  H
  H80      1.0000 0.52590  0.09020  0.98880  Biso   1.000  H
  H81      1.0000 0.94780  0.37220  0.47290  Biso   1.000  H
  H82      1.0000 0.05220  0.37220  0.02710  Biso   1.000  H
  H83      1.0000 0.44780  0.87220  0.47290  Biso   1.000  H
  H84      1.0000 0.55220  0.87220  0.02710  Biso   1.000  H
  H85      1.0000 0.05220  0.62780  0.52710  Biso   1.000  H
  H86      1.0000 0.94780  0.62780  0.97290  Biso   1.000  H
  H87      1.0000 0.55220  0.12780  0.52710  Biso   1.000  H
  H88      1.0000 0.44780  0.12780  0.97290  Biso   1.000  H
  H89      1.0000 0.02780  0.33740  0.59240  Biso   1.000  H
  H90      1.0000 0.97220  0.33740  0.90760  Biso   1.000  H
  H91      1.0000 0.52780  0.83740  0.59240  Biso   1.000  H
  H92      1.0000 0.47220  0.83740  0.90760  Biso   1.000  H
  H93      1.0000 0.97220  0.66260  0.40760  Biso   1.000  H
  H94      1.0000 0.02780  0.66260  0.09240  Biso   1.000  H
  H95      1.0000 0.47220  0.16260  0.40760  Biso   1.000  H
  H96      1.0000 0.52780  0.16260  0.09240  Biso   1.000  H
