data_image0
_cell_length_a       7.2601
_cell_length_b       8.0089
_cell_length_c       12.696
_cell_angle_alpha    92.401
_cell_angle_beta     101.341
_cell_angle_gamma    97.641

_symmetry_space_group_name_H-M    "P 1"
_symmetry_int_tables_number       1

loop_
  _symmetry_equiv_pos_as_xyz
  'x, y, z'

loop_
  _atom_site_label
  _atom_site_occupancy
  _atom_site_fract_x
  _atom_site_fract_y
  _atom_site_fract_z
  _atom_site_thermal_displace_type
  _atom_site_B_iso_or_equiv
  _atom_site_type_symbol
  Cu1      1.0000 0.63351  0.58033  0.57603  Biso   1.000  Cu
  Cu2      1.0000 0.36649  0.41967  0.42397  Biso   1.000  Cu
  O1       1.0000 0.49150  0.47254  0.67918  Biso   1.000  O
  O2       1.0000 0.50850  0.52746  0.32082  Biso   1.000  O
  O3       1.0000 0.47420  0.76106  0.56754  Biso   1.000  O
  O4       1.0000 0.52580  0.23894  0.43246  Biso   1.000  O
  O5       1.0000 0.26389  0.33461  0.54783  Biso   1.000  O
  O6       1.0000 0.73611  0.66539  0.45217  Biso   1.000  O
  O7       1.0000 0.24885  0.62577  0.43407  Biso   1.000  O
  O8       1.0000 0.75115  0.37423  0.56593  Biso   1.000  O
  N1       1.0000 0.87370  0.71270  0.69219  Biso   1.000  N
  N2       1.0000 0.12630  0.28730  0.30781  Biso   1.000  N
  C1       1.0000 0.34100  0.37020  0.64495  Biso   1.000  C
  C2       1.0000 0.65900  0.62980  0.35505  Biso   1.000  C
  C3       1.0000 0.24670  0.28210  0.72746  Biso   1.000  C
  C4       1.0000 0.75330  0.71790  0.27254  Biso   1.000  C
  H1       1.0000 0.10850  0.27030  0.70350  Biso   1.000  H
  H2       1.0000 0.89150  0.72970  0.29650  Biso   1.000  H
  H3       1.0000 0.28470  0.34890  0.79670  Biso   1.000  H
  H4       1.0000 0.71530  0.65110  0.20330  Biso   1.000  H
  H5       1.0000 0.28560  0.17010  0.73580  Biso   1.000  H
  H6       1.0000 0.71440  0.82990  0.26420  Biso   1.000  H
  C5       1.0000 0.32100  0.75130  0.49909  Biso   1.000  C
  C6       1.0000 0.67900  0.24870  0.50091  Biso   1.000  C
  C7       1.0000 0.21550  0.90150  0.49361  Biso   1.000  C
  C8       1.0000 0.78450  0.09850  0.50639  Biso   1.000  C
  H7       1.0000 0.23900  0.96560  0.43230  Biso   1.000  H
  H8       1.0000 0.76100  0.03440  0.56770  Biso   1.000  H
  H9       1.0000 0.25980  0.97400  0.56030  Biso   1.000  H
  H10      1.0000 0.74020  0.02600  0.43970  Biso   1.000  H
  H11      1.0000 0.07920  0.86270  0.48460  Biso   1.000  H
  H12      1.0000 0.92080  0.13730  0.51540  Biso   1.000  H
  C9       1.0000 0.18950  0.86290  0.84396  Biso   1.000  C
  C10      1.0000 0.81050  0.13710  0.15604  Biso   1.000  C
  C11      1.0000 0.35620  0.93860  0.92666  Biso   1.000  C
  C12      1.0000 0.64380  0.06140  0.07334  Biso   1.000  C
  N3       1.0000 0.33820  0.07330  0.98750  Biso   1.000  N
  N4       1.0000 0.66180  0.92670  0.01250  Biso   1.000  N
  N5       1.0000 0.51450  0.86220  0.93670  Biso   1.000  N
  N6       1.0000 0.48550  0.13780  0.06330  Biso   1.000  N
  C13      1.0000 0.85600  0.82100  0.77050  Biso   1.000  C
  C14      1.0000 0.14400  0.17900  0.22950  Biso   1.000  C
  H13      1.0000 0.73310  0.84690  0.77360  Biso   1.000  H
  H14      1.0000 0.26690  0.15310  0.22640  Biso   1.000  H
  C15      1.0000 0.00870  0.89730  0.84750  Biso   1.000  C
  C16      1.0000 0.99130  0.10270  0.15250  Biso   1.000  C
  H15      1.0000 0.98990  0.97310  0.90270  Biso   1.000  H
  H16      1.0000 0.01010  0.02690  0.09730  Biso   1.000  H
  C17      1.0000 0.20590  0.73880  0.76880  Biso   1.000  C
  C18      1.0000 0.79410  0.26120  0.23120  Biso   1.000  C
  H17      1.0000 0.32490  0.70260  0.76760  Biso   1.000  H
  H18      1.0000 0.67510  0.29740  0.23240  Biso   1.000  H
  C19      1.0000 0.04490  0.66900  0.69580  Biso   1.000  C
  C20      1.0000 0.95510  0.33100  0.30420  Biso   1.000  C
  H19      1.0000 0.05710  0.58380  0.64430  Biso   1.000  H
  H20      1.0000 0.94290  0.41620  0.35570  Biso   1.000  H
  N7       1.0000 0.32450  0.02610  0.01270  Biso   1.000  N
  N8       1.0000 0.67550  0.97390  0.98730  Biso   1.000  N
  N9       1.0000 0.52680  0.91240  0.91070  Biso   1.000  N
  N10      1.0000 0.47320  0.08760  0.08930  Biso   1.000  N
  C21      1.0000 0.86000  0.84260  0.76150  Biso   1.000  C
  C22      1.0000 0.14000  0.15740  0.23850  Biso   1.000  C
  H21      1.0000 0.73960  0.87930  0.75730  Biso   1.000  H
  H22      1.0000 0.26040  0.12070  0.24270  Biso   1.000  H
  C23      1.0000 0.01460  0.92530  0.83930  Biso   1.000  C
  C24      1.0000 0.98540  0.07470  0.16070  Biso   1.000  C
  H23      1.0000 0.00230  0.01750  0.88580  Biso   1.000  H
  H24      1.0000 0.99770  0.98250  0.11420  Biso   1.000  H
  C25      1.0000 0.21200  0.75410  0.75760  Biso   1.000  C
  C26      1.0000 0.78800  0.24590  0.24240  Biso   1.000  C
  H25      1.0000 0.33400  0.73110  0.75080  Biso   1.000  H
  H26      1.0000 0.66600  0.26890  0.24920  Biso   1.000  H
  C27      1.0000 0.04980  0.68100  0.68250  Biso   1.000  C
  C28      1.0000 0.95020  0.31900  0.31750  Biso   1.000  C
  H27      1.0000 0.06290  0.60900  0.62400  Biso   1.000  H
  H28      1.0000 0.93710  0.39100  0.37600  Biso   1.000  H
  O9       1.0000 0.94790  0.41690  0.87420  Biso   1.000  O
  O10      1.0000 0.05210  0.58310  0.12580  Biso   1.000  O
  O11      1.0000 0.70920  0.22230  0.87420  Biso   1.000  O
  O12      1.0000 0.29080  0.77770  0.12580  Biso   1.000  O
  N11      1.0000 0.79120  0.36750  0.89030  Biso   1.000  N
  N12      1.0000 0.20880  0.63250  0.10970  Biso   1.000  N
  C29      1.0000 0.68550  0.49430  0.93130  Biso   1.000  C
  C30      1.0000 0.31450  0.50570  0.06870  Biso   1.000  C
  H29      1.0000 0.77500  0.59340  0.96500  Biso   1.000  H
  H30      1.0000 0.22500  0.40660  0.03500  Biso   1.000  H
  H31      1.0000 0.61750  0.44470  0.98460  Biso   1.000  H
  H32      1.0000 0.38250  0.55530  0.01540  Biso   1.000  H
  H33      1.0000 0.59430  0.52850  0.87130  Biso   1.000  H
  H34      1.0000 0.40570  0.47150  0.12870  Biso   1.000  H
  O13      1.0000 0.80190  0.56610  0.95100  Biso   1.000  O
  O14      1.0000 0.19810  0.43390  0.04900  Biso   1.000  O
  O15      1.0000 0.60550  0.34100  0.94560  Biso   1.000  O
  O16      1.0000 0.39450  0.65900  0.05440  Biso   1.000  O
  N13      1.0000 0.74330  0.42150  0.91780  Biso   1.000  N
  N14      1.0000 0.25670  0.57850  0.08220  Biso   1.000  N
  C31      1.0000 0.83920  0.34000  0.84360  Biso   1.000  C
  C32      1.0000 0.16080  0.66000  0.15640  Biso   1.000  C
  H35      1.0000 0.85940  0.41520  0.78670  Biso   1.000  H
  H36      1.0000 0.14060  0.58480  0.21330  Biso   1.000  H
  H37      1.0000 0.76060  0.23430  0.81140  Biso   1.000  H
  H38      1.0000 0.23940  0.76570  0.18860  Biso   1.000  H
  H39      1.0000 0.96190  0.31570  0.88290  Biso   1.000  H
  H40      1.0000 0.03810  0.68430  0.11710  Biso   1.000  H
