data_image0
_cell_length_a       7.2492
_cell_length_b       8.0459
_cell_length_c       13.881
_cell_angle_alpha    97.495
_cell_angle_beta     101.91
_cell_angle_gamma    97.661

_symmetry_space_group_name_H-M    "P 1"
_symmetry_int_tables_number       1

loop_
  _symmetry_equiv_pos_as_xyz
  'x, y, z'

loop_
  _atom_site_label
  _atom_site_occupancy
  _atom_site_fract_x
  _atom_site_fract_y
  _atom_site_fract_z
  _atom_site_thermal_displace_type
  _atom_site_B_iso_or_equiv
  _atom_site_type_symbol
  Cu1      1.0000 0.63307  0.57735  0.57646  Biso   1.000  Cu
  Cu2      1.0000 0.36693  0.42265  0.42354  Biso   1.000  Cu
  O1       1.0000 0.48871  0.76824  0.57373  Biso   1.000  O
  O2       1.0000 0.51129  0.23176  0.42627  Biso   1.000  O
  O3       1.0000 0.47048  0.47991  0.65969  Biso   1.000  O
  O4       1.0000 0.52952  0.52009  0.34031  Biso   1.000  O
  O5       1.0000 0.26450  0.63744  0.43874  Biso   1.000  O
  O6       1.0000 0.73550  0.36256  0.56126  Biso   1.000  O
  O7       1.0000 0.24231  0.34598  0.52727  Biso   1.000  O
  O8       1.0000 0.75769  0.65402  0.47273  Biso   1.000  O
  N1       1.0000 0.87238  0.69504  0.69815  Biso   1.000  N
  N2       1.0000 0.12762  0.30496  0.30185  Biso   1.000  N
  N3       1.0000 0.52690  0.88889  0.92290  Biso   1.000  N
  N4       1.0000 0.47310  0.11111  0.07710  Biso   1.000  N
  N5       1.0000 0.32400  0.03798  0.00460  Biso   1.000  N
  N6       1.0000 0.67600  0.96202  0.99540  Biso   1.000  N
  C1       1.0000 0.33930  0.76300  0.50708  Biso   1.000  C
  C2       1.0000 0.66070  0.23700  0.49292  Biso   1.000  C
  C3       1.0000 0.24210  0.91680  0.50806  Biso   1.000  C
  C4       1.0000 0.75790  0.08320  0.49194  Biso   1.000  C
  H1       1.0000 0.29860  0.99630  0.57020  Biso   1.000  H
  H2       1.0000 0.70140  0.00370  0.42980  Biso   1.000  H
  H3       1.0000 0.10550  0.88190  0.50360  Biso   1.000  H
  H4       1.0000 0.89450  0.11810  0.49640  Biso   1.000  H
  H5       1.0000 0.25900  0.97250  0.45100  Biso   1.000  H
  H6       1.0000 0.74100  0.02750  0.54900  Biso   1.000  H
  C5       1.0000 0.31100  0.38630  0.61987  Biso   1.000  C
  C6       1.0000 0.68900  0.61370  0.38013  Biso   1.000  C
  C7       1.0000 0.19440  0.31720  0.68825  Biso   1.000  C
  C8       1.0000 0.80560  0.68280  0.31175  Biso   1.000  C
  H7       1.0000 0.05900  0.32040  0.66160  Biso   1.000  H
  H8       1.0000 0.94100  0.67960  0.33840  Biso   1.000  H
  H9       1.0000 0.23650  0.38670  0.75470  Biso   1.000  H
  H10      1.0000 0.76350  0.61330  0.24530  Biso   1.000  H
  H11      1.0000 0.21190  0.19960  0.69290  Biso   1.000  H
  H12      1.0000 0.78810  0.80040  0.30710  Biso   1.000  H
  C9       1.0000 0.05010  0.70250  0.68369  Biso   1.000  C
  C10      1.0000 0.94990  0.29750  0.31631  Biso   1.000  C
  H13      1.0000 0.06610  0.65460  0.62030  Biso   1.000  H
  H14      1.0000 0.93390  0.34540  0.37970  Biso   1.000  H
  C11      1.0000 0.21140  0.77630  0.75640  Biso   1.000  C
  C12      1.0000 0.78860  0.22370  0.24360  Biso   1.000  C
  H15      1.0000 0.33520  0.77840  0.74330  Biso   1.000  H
  H16      1.0000 0.66480  0.22160  0.25670  Biso   1.000  H
  C13      1.0000 0.18820  0.84740  0.84928  Biso   1.000  C
  C14      1.0000 0.81180  0.15260  0.15072  Biso   1.000  C
  C15      1.0000 0.00430  0.83960  0.86522  Biso   1.000  C
  C16      1.0000 0.99570  0.16040  0.13478  Biso   1.000  C
  H17      1.0000 0.98390  0.88650  0.92790  Biso   1.000  H
  H18      1.0000 0.01610  0.11350  0.07210  Biso   1.000  H
  C17      1.0000 0.85180  0.76240  0.78819  Biso   1.000  C
  C18      1.0000 0.14820  0.23760  0.21181  Biso   1.000  C
  H19      1.0000 0.72640  0.75670  0.79950  Biso   1.000  H
  H20      1.0000 0.27360  0.24330  0.20050  Biso   1.000  H
  C19      1.0000 0.35520  0.92930  0.92984  Biso   1.000  C
  C20      1.0000 0.64480  0.07070  0.07016  Biso   1.000  C
  C21      1.0000 0.73210  0.31940  0.82336  Biso   1.000  C
  C22      1.0000 0.26790  0.68060  0.17664  Biso   1.000  C
  Cl1      1.0000 0.64010  0.12200  0.75300  Biso   1.000  Cl
  Cl2      1.0000 0.35990  0.87800  0.24700  Biso   1.000  Cl
  H21      1.0000 0.73100  0.40300  0.77840  Biso   1.000  H
  H22      1.0000 0.26900  0.59700  0.22160  Biso   1.000  H
  Cl3      1.0000 0.97080  0.30460  0.88650  Biso   1.000  Cl
  Cl4      1.0000 0.02920  0.69540  0.11350  Biso   1.000  Cl
  Cl5      1.0000 0.59910  0.37870  0.90760  Biso   1.000  Cl
  Cl6      1.0000 0.40090  0.62130  0.09240  Biso   1.000  Cl
  Cl7      1.0000 0.63150  0.11680  0.74540  Biso   1.000  Cl
  Cl8      1.0000 0.36850  0.88320  0.25460  Biso   1.000  Cl
  Cl9      1.0000 0.96490  0.34330  0.88960  Biso   1.000  Cl
  Cl10     1.0000 0.03510  0.65670  0.11040  Biso   1.000  Cl
  Cl11     1.0000 0.58600  0.36300  0.91220  Biso   1.000  Cl
  Cl12     1.0000 0.41400  0.63700  0.08780  Biso   1.000  Cl
