data_image0
_cell_length_a       8.0847
_cell_length_b       13.3748
_cell_length_c       20.979
_cell_angle_alpha    106.491
_cell_angle_beta     91.394
_cell_angle_gamma    96.74

_symmetry_space_group_name_H-M    "P 1"
_symmetry_int_tables_number       1

loop_
  _symmetry_equiv_pos_as_xyz
  'x, y, z'

loop_
  _atom_site_label
  _atom_site_occupancy
  _atom_site_fract_x
  _atom_site_fract_y
  _atom_site_fract_z
  _atom_site_thermal_displace_type
  _atom_site_B_iso_or_equiv
  _atom_site_type_symbol
  Cu1      1.0000 0.58217  0.59478  0.51986  Biso   1.000  Cu
  Cu2      1.0000 0.41783  0.40522  0.48014  Biso   1.000  Cu
  Cu3      1.0000 0.37674  0.74891  0.80703  Biso   1.000  Cu
  Cu4      1.0000 0.62326  0.25109  0.19297  Biso   1.000  Cu
  Cu5      1.0000 0.53561  0.93932  0.84913  Biso   1.000  Cu
  Cu6      1.0000 0.46439  0.06068  0.15087  Biso   1.000  Cu
  O1       1.0000 0.37167  0.62834  0.56126  Biso   1.000  O
  O2       1.0000 0.62833  0.37166  0.43874  Biso   1.000  O
  O3       1.0000 0.49058  0.61286  0.43606  Biso   1.000  O
  O4       1.0000 0.50942  0.38714  0.56394  Biso   1.000  O
  O5       1.0000 0.23163  0.46558  0.52889  Biso   1.000  O
  O6       1.0000 0.76837  0.53442  0.47111  Biso   1.000  O
  O7       1.0000 0.34576  0.45188  0.40370  Biso   1.000  O
  O8       1.0000 0.65424  0.54812  0.59630  Biso   1.000  O
  O9       1.0000 0.18742  0.80506  0.85564  Biso   1.000  O
  O10      1.0000 0.81258  0.19494  0.14436  Biso   1.000  O
  O11      1.0000 0.30649  0.80087  0.73212  Biso   1.000  O
  O12      1.0000 0.69351  0.19913  0.26788  Biso   1.000  O
  O13      1.0000 0.58380  0.71260  0.76479  Biso   1.000  O
  O14      1.0000 0.41620  0.28740  0.23521  Biso   1.000  O
  O15      1.0000 0.47140  0.73063  0.89024  Biso   1.000  O
  O16      1.0000 0.52860  0.26937  0.10976  Biso   1.000  O
  O17      1.0000 0.32254  0.96909  0.89167  Biso   1.000  O
  O18      1.0000 0.67746  0.03091  0.10833  Biso   1.000  O
  O19      1.0000 0.43656  0.96571  0.76963  Biso   1.000  O
  O20      1.0000 0.56344  0.03429  0.23037  Biso   1.000  O
  O21      1.0000 0.71528  0.87752  0.79535  Biso   1.000  O
  O22      1.0000 0.28472  0.12248  0.20465  Biso   1.000  O
  O23      1.0000 0.61494  0.89212  0.92373  Biso   1.000  O
  O24      1.0000 0.38506  0.10788  0.07627  Biso   1.000  O
  N1       1.0000 0.70462  0.75584  0.56003  Biso   1.000  N
  N2       1.0000 0.29538  0.24416  0.43997  Biso   1.000  N
  N3       1.0000 0.24911  0.59108  0.76717  Biso   1.000  N
  N4       1.0000 0.75089  0.40892  0.23283  Biso   1.000  N
  N5       1.0000 0.66648  0.09743  0.89137  Biso   1.000  N
  N6       1.0000 0.33352  0.90257  0.10863  Biso   1.000  N
  N7       1.0000 0.03780  0.11404  0.60894  Biso   1.000  N
  N8       1.0000 0.96220  0.88596  0.39106  Biso   1.000  N
  N9       1.0000 0.84610  0.13423  0.69459  Biso   1.000  N
  N10      1.0000 0.15390  0.86577  0.30541  Biso   1.000  N
  N11      1.0000 0.00180  0.56994  0.96359  Biso   1.000  N
  N12      1.0000 0.99820  0.43006  0.03641  Biso   1.000  N
  N13      1.0000 0.09830  0.21421  0.63258  Biso   1.000  N
  N14      1.0000 0.90170  0.78579  0.36742  Biso   1.000  N
  N15      1.0000 0.90890  0.23486  0.71909  Biso   1.000  N
  N16      1.0000 0.09110  0.76514  0.28091  Biso   1.000  N
  N17      1.0000 0.92180  0.47405  0.93816  Biso   1.000  N
  N18      1.0000 0.07820  0.52595  0.06184  Biso   1.000  N
  C1       1.0000 0.83400  0.79700  0.53301  Biso   1.000  C
  C2       1.0000 0.16600  0.20300  0.46699  Biso   1.000  C
  H1       1.0000 0.87910  0.75290  0.49540  Biso   1.000  H
  H2       1.0000 0.12090  0.24710  0.50460  Biso   1.000  H
  C3       1.0000 0.29260  0.53151  0.70867  Biso   1.000  C
  C4       1.0000 0.70740  0.46849  0.29133  Biso   1.000  C
  H3       1.0000 0.37390  0.56200  0.68540  Biso   1.000  H
  H4       1.0000 0.62610  0.43800  0.31460  Biso   1.000  H
  C5       1.0000 0.71830  0.13195  0.95600  Biso   1.000  C
  C6       1.0000 0.28170  0.86805  0.04400  Biso   1.000  C
  H5       1.0000 0.69640  0.08600  0.98280  Biso   1.000  H
  H6       1.0000 0.30360  0.91400  0.01720  Biso   1.000  H
  C7       1.0000 0.24270  0.56343  0.55760  Biso   1.000  C
  C8       1.0000 0.75730  0.43657  0.44240  Biso   1.000  C
  C9       1.0000 0.09110  0.60656  0.58926  Biso   1.000  C
  C10      1.0000 0.90890  0.39344  0.41074  Biso   1.000  C
  H7       1.0000 0.12600  0.66440  0.62960  Biso   1.000  H
  H8       1.0000 0.87400  0.33560  0.37040  Biso   1.000  H
  H9       1.0000 0.01950  0.55080  0.60090  Biso   1.000  H
  H10      1.0000 0.98050  0.44920  0.39910  Biso   1.000  H
  H11      1.0000 0.02910  0.63250  0.55790  Biso   1.000  H
  H12      1.0000 0.97090  0.36750  0.44210  Biso   1.000  H
  C11      1.0000 0.39040  0.54105  0.39669  Biso   1.000  C
  C12      1.0000 0.60960  0.45895  0.60331  Biso   1.000  C
  C13      1.0000 0.31690  0.56437  0.33639  Biso   1.000  C
  C14      1.0000 0.68310  0.43563  0.66361  Biso   1.000  C
  H13      1.0000 0.31010  0.50170  0.29790  Biso   1.000  H
  H14      1.0000 0.68990  0.49830  0.70210  Biso   1.000  H
  H15      1.0000 0.38800  0.62250  0.32700  Biso   1.000  H
  H16      1.0000 0.61200  0.37750  0.67300  Biso   1.000  H
  H17      1.0000 0.20480  0.58410  0.34510  Biso   1.000  H
  H18      1.0000 0.79520  0.41590  0.65490  Biso   1.000  H
  C15      1.0000 0.19400  0.90225  0.88480  Biso   1.000  C
  C16      1.0000 0.80600  0.09775  0.11520  Biso   1.000  C
  C17      1.0000 0.03620  0.94146  0.91228  Biso   1.000  C
  C18      1.0000 0.96380  0.05854  0.08772  Biso   1.000  C
  H19      1.0000 0.96290  0.94730  0.87590  Biso   1.000  H
  H20      1.0000 0.03710  0.05270  0.12410  Biso   1.000  H
  H21      1.0000 0.06340  0.01070  0.94500  Biso   1.000  H
  H22      1.0000 0.93660  0.98930  0.05500  Biso   1.000  H
  H23      1.0000 0.97940  0.89200  0.93380  Biso   1.000  H
  H24      1.0000 0.02060  0.10800  0.06620  Biso   1.000  H
  C19      1.0000 0.90550  0.90096  0.55732  Biso   1.000  C
  C20      1.0000 0.09450  0.09904  0.44268  Biso   1.000  C
  H25      1.0000 0.99670  0.92760  0.53660  Biso   1.000  H
  H26      1.0000 0.00330  0.07240  0.46340  Biso   1.000  H
  C21      1.0000 0.22470  0.42777  0.68058  Biso   1.000  C
  C22      1.0000 0.77530  0.57223  0.31942  Biso   1.000  C
  H27      1.0000 0.25880  0.38790  0.63900  Biso   1.000  H
  H28      1.0000 0.74120  0.61210  0.36100  Biso   1.000  H
  C23      1.0000 0.80250  0.23173  0.98547  Biso   1.000  C
  C24      1.0000 0.19750  0.76827  0.01453  Biso   1.000  C
  H29      1.0000 0.83830  0.25320  0.03130  Biso   1.000  H
  H30      1.0000 0.16170  0.74680  0.96870  Biso   1.000  H
  C25      1.0000 0.34090  0.89313  0.72836  Biso   1.000  C
  C26      1.0000 0.65910  0.10687  0.27164  Biso   1.000  C
  C27      1.0000 0.26050  0.91928  0.67057  Biso   1.000  C
  C28      1.0000 0.73950  0.08072  0.32943  Biso   1.000  C
  H31      1.0000 0.14050  0.91940  0.67610  Biso   1.000  H
  H32      1.0000 0.85950  0.08060  0.32390  Biso   1.000  H
  H33      1.0000 0.27840  0.86660  0.62900  Biso   1.000  H
  H34      1.0000 0.72160  0.13340  0.37100  Biso   1.000  H
  H35      1.0000 0.31040  0.98890  0.66900  Biso   1.000  H
  H36      1.0000 0.68960  0.01110  0.33100  Biso   1.000  H
  C29      1.0000 0.70870  0.78035  0.76668  Biso   1.000  C
  C30      1.0000 0.29130  0.21965  0.23332  Biso   1.000  C
  C31      1.0000 0.86050  0.74109  0.73298  Biso   1.000  C
  C32      1.0000 0.13950  0.25891  0.26702  Biso   1.000  C
  H37      1.0000 0.92790  0.79870  0.72160  Biso   1.000  H
  H38      1.0000 0.07210  0.20130  0.27840  Biso   1.000  H
  H39      1.0000 0.82560  0.68390  0.69230  Biso   1.000  H
  H40      1.0000 0.17440  0.31610  0.30770  Biso   1.000  H
  H41      1.0000 0.92680  0.71510  0.76310  Biso   1.000  H
  H42      1.0000 0.07320  0.28490  0.23690  Biso   1.000  H
  C33      1.0000 0.57330  0.80122  0.92959  Biso   1.000  C
  C34      1.0000 0.42670  0.19878  0.07041  Biso   1.000  C
  C35      1.0000 0.65270  0.77566  0.98753  Biso   1.000  C
  C36      1.0000 0.34730  0.22434  0.01247  Biso   1.000  C
  H43      1.0000 0.57970  0.72020  0.99890  Biso   1.000  H
  H44      1.0000 0.42030  0.27980  0.00110  Biso   1.000  H
  H45      1.0000 0.66950  0.83870  0.02590  Biso   1.000  H
  H46      1.0000 0.33050  0.16130  0.97410  Biso   1.000  H
  H47      1.0000 0.76060  0.75140  0.97560  Biso   1.000  H
  H48      1.0000 0.23940  0.24860  0.02440  Biso   1.000  H
  C37      1.0000 0.84080  0.96552  0.61272  Biso   1.000  C
  C38      1.0000 0.15920  0.03448  0.38728  Biso   1.000  C
  C39      1.0000 0.10520  0.38315  0.71468  Biso   1.000  C
  C40      1.0000 0.89480  0.61685  0.28532  Biso   1.000  C
  C41      1.0000 0.83340  0.29971  0.94641  Biso   1.000  C
  C42      1.0000 0.16660  0.70029  0.05359  Biso   1.000  C
  C43      1.0000 0.70840  0.92256  0.64201  Biso   1.000  C
  C44      1.0000 0.29160  0.07744  0.35799  Biso   1.000  C
  H49      1.0000 0.66300  0.96420  0.68040  Biso   1.000  H
  H50      1.0000 0.33700  0.03580  0.31960  Biso   1.000  H
  C45      1.0000 0.05830  0.44504  0.77521  Biso   1.000  C
  C46      1.0000 0.94170  0.55496  0.22479  Biso   1.000  C
  H51      1.0000 0.97630  0.41710  0.79940  Biso   1.000  H
  H52      1.0000 0.02370  0.58290  0.20060  Biso   1.000  H
  C47      1.0000 0.77830  0.26407  0.87922  Biso   1.000  C
  C48      1.0000 0.22170  0.73593  0.12078  Biso   1.000  C
  H53      1.0000 0.79690  0.30860  0.85130  Biso   1.000  H
  H54      1.0000 0.20310  0.69140  0.14870  Biso   1.000  H
  C49      1.0000 0.64450  0.81805  0.61399  Biso   1.000  C
  C50      1.0000 0.35550  0.18195  0.38601  Biso   1.000  C
  H55      1.0000 0.55390  0.78910  0.63390  Biso   1.000  H
  H56      1.0000 0.44610  0.21090  0.36610  Biso   1.000  H
  C51      1.0000 0.13370  0.54814  0.79942  Biso   1.000  C
  C52      1.0000 0.86630  0.45186  0.20058  Biso   1.000  C
  H57      1.0000 0.10190  0.59010  0.84080  Biso   1.000  H
  H58      1.0000 0.89810  0.40990  0.15920  Biso   1.000  H
  C53      1.0000 0.69610  0.16283  0.85395  Biso   1.000  C
  C54      1.0000 0.30390  0.83717  0.14605  Biso   1.000  C
  H59      1.0000 0.65930  0.13890  0.80820  Biso   1.000  H
  H60      1.0000 0.34070  0.86110  0.19180  Biso   1.000  H
  C55      1.0000 0.91140  0.07716  0.64036  Biso   1.000  C
  C56      1.0000 0.08860  0.92284  0.35964  Biso   1.000  C
  C57      1.0000 0.03270  0.27187  0.68729  Biso   1.000  C
  C58      1.0000 0.96730  0.72813  0.31271  Biso   1.000  C
  C59      1.0000 0.92310  0.40712  0.97531  Biso   1.000  C
  C60      1.0000 0.07690  0.59288  0.02469  Biso   1.000  C
  N19      1.0000 0.72590  0.12830  0.51687  Biso   1.000  N
  N20      1.0000 0.27410  0.87170  0.48313  Biso   1.000  N
  C61      1.0000 0.60850  0.13700  0.54513  Biso   1.000  C
  C62      1.0000 0.39150  0.86300  0.45487  Biso   1.000  C
  C63      1.0000 0.45950  0.14649  0.58171  Biso   1.000  C
  C64      1.0000 0.54050  0.85351  0.41829  Biso   1.000  C
  H61      1.0000 0.37680  0.08490  0.56190  Biso   1.000  H
  H62      1.0000 0.62320  0.91510  0.43810  Biso   1.000  H
  H63      1.0000 0.41370  0.21030  0.57980  Biso   1.000  H
  H64      1.0000 0.58630  0.78970  0.42020  Biso   1.000  H
  H65      1.0000 0.48690  0.15060  0.62820  Biso   1.000  H
  H66      1.0000 0.51310  0.84940  0.37180  Biso   1.000  H
  N21      1.0000 0.30480  0.43210  0.93313  Biso   1.000  N
  N22      1.0000 0.69520  0.56790  0.06687  Biso   1.000  N
  C65      1.0000 0.40580  0.45500  0.90134  Biso   1.000  C
  C66      1.0000 0.59420  0.54500  0.09866  Biso   1.000  C
  C67      1.0000 0.53460  0.48396  0.85967  Biso   1.000  C
  C68      1.0000 0.46540  0.51604  0.14033  Biso   1.000  C
  H67      1.0000 0.52360  0.43160  0.81580  Biso   1.000  H
  H68      1.0000 0.47640  0.56840  0.18420  Biso   1.000  H
  H69      1.0000 0.64510  0.48650  0.88080  Biso   1.000  H
  H70      1.0000 0.35490  0.51350  0.11920  Biso   1.000  H
  H71      1.0000 0.52150  0.55320  0.85440  Biso   1.000  H
  H72      1.0000 0.47850  0.44680  0.14560  Biso   1.000  H
  N23      1.0000 0.38530  0.23300  0.75323  Biso   1.000  N
  N24      1.0000 0.61470  0.76700  0.24677  Biso   1.000  N
  C69      1.0000 0.30260  0.20111  0.78795  Biso   1.000  C
  C70      1.0000 0.69740  0.79889  0.21205  Biso   1.000  C
  C71      1.0000 0.19570  0.16090  0.83263  Biso   1.000  C
  C72      1.0000 0.80430  0.83910  0.16737  Biso   1.000  C
  H73      1.0000 0.25270  0.11210  0.84970  Biso   1.000  H
  H74      1.0000 0.74730  0.88790  0.15030  Biso   1.000  H
  H75      1.0000 0.09100  0.12390  0.80830  Biso   1.000  H
  H76      1.0000 0.90900  0.87610  0.19170  Biso   1.000  H
  H77      1.0000 0.17180  0.21960  0.86990  Biso   1.000  H
  H78      1.0000 0.82820  0.78040  0.13010  Biso   1.000  H
