data_image0
_cell_length_a       12.5018
_cell_length_b       11.9983
_cell_length_c       19.5737
_cell_angle_alpha    90
_cell_angle_beta     94.663
_cell_angle_gamma    90

_symmetry_space_group_name_H-M    "P 1"
_symmetry_int_tables_number       1

loop_
  _symmetry_equiv_pos_as_xyz
  'x, y, z'

loop_
  _atom_site_label
  _atom_site_occupancy
  _atom_site_fract_x
  _atom_site_fract_y
  _atom_site_fract_z
  _atom_site_thermal_displace_type
  _atom_site_B_iso_or_equiv
  _atom_site_type_symbol
  Cu1      1.0000 0.00000  0.50000  0.50000  Biso   1.000  Cu
  Cu2      1.0000 0.00000  0.00000  0.00000  Biso   1.000  Cu
  Cu3      1.0000 0.91334  0.44369  0.74852  Biso   1.000  Cu
  Cu4      1.0000 0.08666  0.94369  0.75148  Biso   1.000  Cu
  Cu5      1.0000 0.08666  0.55631  0.25148  Biso   1.000  Cu
  Cu6      1.0000 0.91334  0.05631  0.24852  Biso   1.000  Cu
  O1       1.0000 0.98460  0.65570  0.59690  Biso   1.000  O
  O2       1.0000 0.01540  0.15570  0.90310  Biso   1.000  O
  O3       1.0000 0.01540  0.34430  0.40310  Biso   1.000  O
  O4       1.0000 0.98460  0.84430  0.09690  Biso   1.000  O
  O5       1.0000 0.08010  0.41010  0.57160  Biso   1.000  O
  O6       1.0000 0.91990  0.91010  0.92840  Biso   1.000  O
  O7       1.0000 0.91990  0.58990  0.42840  Biso   1.000  O
  O8       1.0000 0.08010  0.08990  0.07160  Biso   1.000  O
  O9       1.0000 0.97440  0.53650  0.68170  Biso   1.000  O
  O10      1.0000 0.02560  0.03650  0.81830  Biso   1.000  O
  O11      1.0000 0.02560  0.46350  0.31830  Biso   1.000  O
  O12      1.0000 0.97440  0.96350  0.18170  Biso   1.000  O
  O13      1.0000 0.77150  0.50330  0.72610  Biso   1.000  O
  O14      1.0000 0.22850  0.00330  0.77390  Biso   1.000  O
  O15      1.0000 0.22850  0.49670  0.27390  Biso   1.000  O
  O16      1.0000 0.77150  0.99670  0.22610  Biso   1.000  O
  O17      1.0000 0.04110  0.35360  0.75050  Biso   1.000  O
  O18      1.0000 0.95890  0.85360  0.74950  Biso   1.000  O
  O19      1.0000 0.95890  0.64640  0.24950  Biso   1.000  O
  O20      1.0000 0.04110  0.14640  0.25050  Biso   1.000  O
  O21      1.0000 0.15700  0.46490  0.80880  Biso   1.000  O
  O22      1.0000 0.84300  0.96490  0.69120  Biso   1.000  O
  O23      1.0000 0.84300  0.53510  0.19120  Biso   1.000  O
  O24      1.0000 0.15700  0.03510  0.30880  Biso   1.000  O
  O25      1.0000 0.74290  0.52320  0.47270  Biso   1.000  O
  O26      1.0000 0.25710  0.02320  0.02730  Biso   1.000  O
  O27      1.0000 0.25710  0.47680  0.52730  Biso   1.000  O
  O28      1.0000 0.74290  0.97680  0.97270  Biso   1.000  O
  O29      1.0000 0.87480  0.42410  0.52770  Biso   1.000  O
  O30      1.0000 0.12520  0.92410  0.97230  Biso   1.000  O
  O31      1.0000 0.12520  0.57590  0.47230  Biso   1.000  O
  O32      1.0000 0.87480  0.07590  0.02770  Biso   1.000  O
  O33      1.0000 0.47230  0.18570  0.63670  Biso   1.000  O
  O34      1.0000 0.52770  0.68570  0.86330  Biso   1.000  O
  O35      1.0000 0.52770  0.81430  0.36330  Biso   1.000  O
  O36      1.0000 0.47230  0.31430  0.13670  Biso   1.000  O
  N1       1.0000 0.14800  0.83490  0.68570  Biso   1.000  N
  N2       1.0000 0.85200  0.33490  0.81430  Biso   1.000  N
  N3       1.0000 0.85200  0.16510  0.31430  Biso   1.000  N
  N4       1.0000 0.14800  0.66510  0.18570  Biso   1.000  N
  H1       1.0000 0.08410  0.86120  0.68660  Biso   1.000  H
  H2       1.0000 0.91590  0.36120  0.81340  Biso   1.000  H
  H3       1.0000 0.91590  0.13880  0.31340  Biso   1.000  H
  H4       1.0000 0.08410  0.63880  0.18660  Biso   1.000  H
  N5       1.0000 0.32110  0.70080  0.64460  Biso   1.000  N
  N6       1.0000 0.67890  0.20080  0.85540  Biso   1.000  N
  N7       1.0000 0.67890  0.29920  0.35540  Biso   1.000  N
  N8       1.0000 0.32110  0.79920  0.14460  Biso   1.000  N
  N9       1.0000 0.45310  0.59390  0.70230  Biso   1.000  N
  N10      1.0000 0.54690  0.09390  0.79770  Biso   1.000  N
  N11      1.0000 0.54690  0.40610  0.29770  Biso   1.000  N
  N12      1.0000 0.45310  0.90610  0.20230  Biso   1.000  N
  N13      1.0000 0.49520  0.72500  0.61480  Biso   1.000  N
  N14      1.0000 0.50480  0.22500  0.88520  Biso   1.000  N
  N15      1.0000 0.50480  0.27500  0.38520  Biso   1.000  N
  N16      1.0000 0.49520  0.77500  0.11480  Biso   1.000  N
  N17      1.0000 0.67090  0.74260  0.58570  Biso   1.000  N
  N18      1.0000 0.32910  0.24260  0.91430  Biso   1.000  N
  N19      1.0000 0.32910  0.25740  0.41430  Biso   1.000  N
  N20      1.0000 0.67090  0.75740  0.08570  Biso   1.000  N
  C1       1.0000 0.93110  0.60830  0.63920  Biso   1.000  C
  C2       1.0000 0.06890  0.10830  0.86080  Biso   1.000  C
  C3       1.0000 0.06890  0.39170  0.36080  Biso   1.000  C
  C4       1.0000 0.93110  0.89170  0.13920  Biso   1.000  C
  C5       1.0000 0.81550  0.63470  0.63980  Biso   1.000  C
  C6       1.0000 0.18450  0.13470  0.86020  Biso   1.000  C
  C7       1.0000 0.18450  0.36530  0.36020  Biso   1.000  C
  C8       1.0000 0.81550  0.86530  0.13980  Biso   1.000  C
  C9       1.0000 0.74420  0.57870  0.68260  Biso   1.000  C
  C10      1.0000 0.25580  0.07870  0.81740  Biso   1.000  C
  C11      1.0000 0.25580  0.42130  0.31740  Biso   1.000  C
  C12      1.0000 0.74420  0.92130  0.18260  Biso   1.000  C
  C13      1.0000 0.63410  0.61240  0.67240  Biso   1.000  C
  C14      1.0000 0.36590  0.11240  0.82760  Biso   1.000  C
  C15      1.0000 0.36590  0.38760  0.32760  Biso   1.000  C
  C16      1.0000 0.63410  0.88760  0.17240  Biso   1.000  C
  C17      1.0000 0.55400  0.56650  0.71130  Biso   1.000  C
  C18      1.0000 0.44600  0.06650  0.78870  Biso   1.000  C
  C19      1.0000 0.44600  0.43350  0.28870  Biso   1.000  C
  C20      1.0000 0.55400  0.93350  0.21130  Biso   1.000  C
  H5       1.0000 0.57460  0.51410  0.74490  Biso   1.000  H
  H6       1.0000 0.42540  0.01410  0.75510  Biso   1.000  H
  H7       1.0000 0.42540  0.48590  0.25510  Biso   1.000  H
  H8       1.0000 0.57460  0.98590  0.24490  Biso   1.000  H
  C21      1.0000 0.42510  0.67190  0.65370  Biso   1.000  C
  C22      1.0000 0.57490  0.17190  0.84630  Biso   1.000  C
  C23      1.0000 0.57490  0.32810  0.34630  Biso   1.000  C
  C24      1.0000 0.42510  0.82810  0.15370  Biso   1.000  C
  C25      1.0000 0.59760  0.69350  0.62500  Biso   1.000  C
  C26      1.0000 0.40240  0.19350  0.87500  Biso   1.000  C
  C27      1.0000 0.40240  0.30650  0.37500  Biso   1.000  C
  C28      1.0000 0.59760  0.80650  0.12500  Biso   1.000  C
  C29      1.0000 0.77360  0.71150  0.59430  Biso   1.000  C
  C30      1.0000 0.22640  0.21150  0.90570  Biso   1.000  C
  C31      1.0000 0.22640  0.28850  0.40570  Biso   1.000  C
  C32      1.0000 0.77360  0.78850  0.09430  Biso   1.000  C
  H9       1.0000 0.82090  0.74560  0.56650  Biso   1.000  H
  H10      1.0000 0.17910  0.24560  0.93350  Biso   1.000  H
  H11      1.0000 0.17910  0.25440  0.43350  Biso   1.000  H
  H12      1.0000 0.82090  0.75440  0.06650  Biso   1.000  H
  C33      1.0000 0.63480  0.82350  0.53180  Biso   1.000  C
  C34      1.0000 0.36520  0.32350  0.96820  Biso   1.000  C
  C35      1.0000 0.36520  0.17650  0.46820  Biso   1.000  C
  C36      1.0000 0.63480  0.67650  0.03180  Biso   1.000  C
  H13      1.0000 0.68470  0.82270  0.49630  Biso   1.000  H
  H14      1.0000 0.31530  0.32270  0.00370  Biso   1.000  H
  H15      1.0000 0.31530  0.17730  0.50370  Biso   1.000  H
  H16      1.0000 0.68470  0.67730  0.99630  Biso   1.000  H
  H17      1.0000 0.56500  0.80100  0.51110  Biso   1.000  H
  H18      1.0000 0.43500  0.30100  0.98890  Biso   1.000  H
  H19      1.0000 0.43500  0.19900  0.48890  Biso   1.000  H
  H20      1.0000 0.56500  0.69900  0.01110  Biso   1.000  H
  C37      1.0000 0.62730  0.93930  0.55900  Biso   1.000  C
  C38      1.0000 0.37270  0.43930  0.94100  Biso   1.000  C
  C39      1.0000 0.37270  0.06070  0.44100  Biso   1.000  C
  C40      1.0000 0.62730  0.56070  0.05900  Biso   1.000  C
  H21      1.0000 0.60390  0.98890  0.52230  Biso   1.000  H
  H22      1.0000 0.39610  0.48890  0.97770  Biso   1.000  H
  H23      1.0000 0.39610  0.01110  0.47770  Biso   1.000  H
  H24      1.0000 0.60390  0.51110  0.02230  Biso   1.000  H
  H25      1.0000 0.57670  0.94100  0.59340  Biso   1.000  H
  H26      1.0000 0.42330  0.44100  0.90660  Biso   1.000  H
  H27      1.0000 0.42330  0.05900  0.40660  Biso   1.000  H
  H28      1.0000 0.57670  0.55900  0.09340  Biso   1.000  H
  H29      1.0000 0.69650  0.96250  0.57890  Biso   1.000  H
  H30      1.0000 0.30350  0.46250  0.92110  Biso   1.000  H
  H31      1.0000 0.30350  0.03750  0.42110  Biso   1.000  H
  H32      1.0000 0.69650  0.53750  0.07890  Biso   1.000  H
  C41      1.0000 0.23900  0.64940  0.68380  Biso   1.000  C
  C42      1.0000 0.76100  0.14940  0.81620  Biso   1.000  C
  C43      1.0000 0.76100  0.35060  0.31620  Biso   1.000  C
  C44      1.0000 0.23900  0.85060  0.18380  Biso   1.000  C
  H33      1.0000 0.18300  0.61710  0.65270  Biso   1.000  H
  H34      1.0000 0.81700  0.11710  0.84730  Biso   1.000  H
  H35      1.0000 0.81700  0.38290  0.34730  Biso   1.000  H
  H36      1.0000 0.18300  0.88290  0.15270  Biso   1.000  H
  H37      1.0000 0.27080  0.59040  0.71260  Biso   1.000  H
  H38      1.0000 0.72920  0.09040  0.78740  Biso   1.000  H
  H39      1.0000 0.72920  0.40960  0.28740  Biso   1.000  H
  H40      1.0000 0.27080  0.90960  0.21260  Biso   1.000  H
  C45      1.0000 0.19160  0.73700  0.72770  Biso   1.000  C
  C46      1.0000 0.80840  0.23700  0.77230  Biso   1.000  C
  C47      1.0000 0.80840  0.26300  0.27230  Biso   1.000  C
  C48      1.0000 0.19160  0.76300  0.22770  Biso   1.000  C
  H41      1.0000 0.13430  0.70410  0.75150  Biso   1.000  H
  H42      1.0000 0.86570  0.20410  0.74850  Biso   1.000  H
  H43      1.0000 0.86570  0.29590  0.24850  Biso   1.000  H
  H44      1.0000 0.13430  0.79590  0.25150  Biso   1.000  H
  H45      1.0000 0.24650  0.76300  0.76190  Biso   1.000  H
  H46      1.0000 0.75350  0.26300  0.73810  Biso   1.000  H
  H47      1.0000 0.75350  0.23700  0.23810  Biso   1.000  H
  H48      1.0000 0.24650  0.73700  0.26190  Biso   1.000  H
  C49      1.0000 0.23010  0.87910  0.64300  Biso   1.000  C
  C50      1.0000 0.76990  0.37910  0.85700  Biso   1.000  C
  C51      1.0000 0.76990  0.12090  0.35700  Biso   1.000  C
  C52      1.0000 0.23010  0.62090  0.14300  Biso   1.000  C
  H49      1.0000 0.19780  0.93620  0.61290  Biso   1.000  H
  H50      1.0000 0.80220  0.43620  0.88710  Biso   1.000  H
  H51      1.0000 0.80220  0.06380  0.38710  Biso   1.000  H
  H52      1.0000 0.19780  0.56380  0.11290  Biso   1.000  H
  H53      1.0000 0.28660  0.91380  0.67250  Biso   1.000  H
  H54      1.0000 0.71340  0.41380  0.82750  Biso   1.000  H
  H55      1.0000 0.71340  0.08620  0.32750  Biso   1.000  H
  H56      1.0000 0.28660  0.58620  0.17250  Biso   1.000  H
  C53      1.0000 0.27950  0.78950  0.59960  Biso   1.000  C
  C54      1.0000 0.72050  0.28950  0.90040  Biso   1.000  C
  C55      1.0000 0.72050  0.21050  0.40040  Biso   1.000  C
  C56      1.0000 0.27950  0.71050  0.09960  Biso   1.000  C
  H57      1.0000 0.33700  0.82140  0.57540  Biso   1.000  H
  H58      1.0000 0.66300  0.32140  0.92460  Biso   1.000  H
  H59      1.0000 0.66300  0.17860  0.42460  Biso   1.000  H
  H60      1.0000 0.33700  0.67860  0.07540  Biso   1.000  H
  H61      1.0000 0.22550  0.76010  0.56590  Biso   1.000  H
  H62      1.0000 0.77450  0.26010  0.93410  Biso   1.000  H
  H63      1.0000 0.77450  0.23990  0.43410  Biso   1.000  H
  H64      1.0000 0.22550  0.73990  0.06590  Biso   1.000  H
  C57      1.0000 0.13540  0.38740  0.76820  Biso   1.000  C
  C58      1.0000 0.86460  0.88740  0.73180  Biso   1.000  C
  C59      1.0000 0.86460  0.61260  0.23180  Biso   1.000  C
  C60      1.0000 0.13540  0.11260  0.26820  Biso   1.000  C
  C61      1.0000 0.22380  0.33150  0.73420  Biso   1.000  C
  C62      1.0000 0.77620  0.83150  0.76580  Biso   1.000  C
  C63      1.0000 0.77620  0.66850  0.26580  Biso   1.000  C
  C64      1.0000 0.22380  0.16850  0.23420  Biso   1.000  C
  C65      1.0000 0.32830  0.36880  0.74940  Biso   1.000  C
  C66      1.0000 0.67170  0.86880  0.75060  Biso   1.000  C
  C67      1.0000 0.67170  0.63120  0.25060  Biso   1.000  C
  C68      1.0000 0.32830  0.13120  0.24940  Biso   1.000  C
  H65      1.0000 0.34260  0.42610  0.78080  Biso   1.000  H
  H66      1.0000 0.65740  0.92610  0.71920  Biso   1.000  H
  H67      1.0000 0.65740  0.57390  0.21920  Biso   1.000  H
  H68      1.0000 0.34260  0.07390  0.28080  Biso   1.000  H
  C69      1.0000 0.41080  0.31940  0.71730  Biso   1.000  C
  C70      1.0000 0.58920  0.81940  0.78270  Biso   1.000  C
  C71      1.0000 0.58920  0.68060  0.28270  Biso   1.000  C
  C72      1.0000 0.41080  0.18060  0.21730  Biso   1.000  C
  H69      1.0000 0.48130  0.34180  0.72820  Biso   1.000  H
  H70      1.0000 0.51870  0.84180  0.77180  Biso   1.000  H
  H71      1.0000 0.51870  0.65820  0.27180  Biso   1.000  H
  H72      1.0000 0.48130  0.15820  0.22820  Biso   1.000  H
  C73      1.0000 0.38840  0.23660  0.66890  Biso   1.000  C
  C74      1.0000 0.61160  0.73660  0.83110  Biso   1.000  C
  C75      1.0000 0.61160  0.76340  0.33110  Biso   1.000  C
  C76      1.0000 0.38840  0.26340  0.16890  Biso   1.000  C
  C77      1.0000 0.28590  0.20030  0.65470  Biso   1.000  C
  C78      1.0000 0.71410  0.70030  0.84530  Biso   1.000  C
  C79      1.0000 0.71410  0.79970  0.34530  Biso   1.000  C
  C80      1.0000 0.28590  0.29970  0.15470  Biso   1.000  C
  H73      1.0000 0.27150  0.14400  0.62260  Biso   1.000  H
  H74      1.0000 0.72850  0.64400  0.87740  Biso   1.000  H
  H75      1.0000 0.72850  0.85600  0.37740  Biso   1.000  H
  H76      1.0000 0.27150  0.35600  0.12260  Biso   1.000  H
  C81      1.0000 0.20290  0.24710  0.68790  Biso   1.000  C
  C82      1.0000 0.79710  0.74710  0.81210  Biso   1.000  C
  C83      1.0000 0.79710  0.75290  0.31210  Biso   1.000  C
  C84      1.0000 0.20290  0.25290  0.18790  Biso   1.000  C
  H77      1.0000 0.13310  0.22110  0.67880  Biso   1.000  H
  H78      1.0000 0.86690  0.72110  0.82120  Biso   1.000  H
  H79      1.0000 0.86690  0.77890  0.32120  Biso   1.000  H
  H80      1.0000 0.13310  0.27890  0.17880  Biso   1.000  H
  C85      1.0000 0.77700  0.44800  0.51330  Biso   1.000  C
  C86      1.0000 0.22300  0.94800  0.98670  Biso   1.000  C
  C87      1.0000 0.22300  0.55200  0.48670  Biso   1.000  C
  C88      1.0000 0.77700  0.05200  0.01330  Biso   1.000  C
  C89      1.0000 0.69820  0.37980  0.54800  Biso   1.000  C
  C90      1.0000 0.30180  0.87980  0.95200  Biso   1.000  C
  C91      1.0000 0.30180  0.62020  0.45200  Biso   1.000  C
  C92      1.0000 0.69820  0.12020  0.04800  Biso   1.000  C
  C93      1.0000 0.59460  0.41640  0.54860  Biso   1.000  C
  C94      1.0000 0.40540  0.91640  0.95140  Biso   1.000  C
  C95      1.0000 0.40540  0.58360  0.45140  Biso   1.000  C
  C96      1.0000 0.59460  0.08360  0.04860  Biso   1.000  C
  H81      1.0000 0.57580  0.48380  0.52750  Biso   1.000  H
  H82      1.0000 0.42420  0.98380  0.97250  Biso   1.000  H
  H83      1.0000 0.42420  0.51620  0.47250  Biso   1.000  H
  H84      1.0000 0.57580  0.01620  0.02750  Biso   1.000  H
  C97      1.0000 0.51680  0.35710  0.57930  Biso   1.000  C
  C98      1.0000 0.48320  0.85710  0.92070  Biso   1.000  C
  C99      1.0000 0.48320  0.64290  0.42070  Biso   1.000  C
  C100     1.0000 0.51680  0.14290  0.07930  Biso   1.000  C
  H85      1.0000 0.44700  0.38390  0.57970  Biso   1.000  H
  H86      1.0000 0.55300  0.88390  0.92030  Biso   1.000  H
  H87      1.0000 0.55300  0.61610  0.42030  Biso   1.000  H
  H88      1.0000 0.44700  0.11610  0.07970  Biso   1.000  H
  C101     1.0000 0.54640  0.25680  0.60940  Biso   1.000  C
  C102     1.0000 0.45360  0.75680  0.89060  Biso   1.000  C
  C103     1.0000 0.45360  0.74320  0.39060  Biso   1.000  C
  C104     1.0000 0.54640  0.24320  0.10940  Biso   1.000  C
  C105     1.0000 0.65070  0.21710  0.61190  Biso   1.000  C
  C106     1.0000 0.34930  0.71710  0.88810  Biso   1.000  C
  C107     1.0000 0.34930  0.78290  0.38810  Biso   1.000  C
  C108     1.0000 0.65070  0.28290  0.11190  Biso   1.000  C
  H89      1.0000 0.66950  0.14990  0.63330  Biso   1.000  H
  H90      1.0000 0.33050  0.64990  0.86670  Biso   1.000  H
  H91      1.0000 0.33050  0.85010  0.36670  Biso   1.000  H
  H92      1.0000 0.66950  0.35010  0.13330  Biso   1.000  H
  C109     1.0000 0.72660  0.28120  0.58130  Biso   1.000  C
  C110     1.0000 0.27340  0.78120  0.91870  Biso   1.000  C
  C111     1.0000 0.27340  0.71880  0.41870  Biso   1.000  C
  C112     1.0000 0.72660  0.21880  0.08130  Biso   1.000  C
  H93      1.0000 0.79760  0.25720  0.58330  Biso   1.000  H
  H94      1.0000 0.20240  0.75720  0.91670  Biso   1.000  H
  H95      1.0000 0.20240  0.74280  0.41670  Biso   1.000  H
  H96      1.0000 0.79760  0.24280  0.08330  Biso   1.000  H
  O37      1.0000 0.98350  0.55960  0.84400  Biso   1.000  O
  O38      1.0000 0.01650  0.05960  0.65600  Biso   1.000  O
  O39      1.0000 0.01650  0.44040  0.15600  Biso   1.000  O
  O40      1.0000 0.98350  0.94040  0.34400  Biso   1.000  O
  O41      1.0000 0.99040  0.50590  0.88570  Biso   1.000  O
  O42      1.0000 0.00960  0.00590  0.61430  Biso   1.000  O
  O43      1.0000 0.00960  0.49410  0.11430  Biso   1.000  O
  O44      1.0000 0.99040  0.99410  0.38570  Biso   1.000  O
  O45      1.0000 0.01990  0.32850  0.01900  Biso   1.000  O
  O46      1.0000 0.98010  0.82850  0.48100  Biso   1.000  O
  O47      1.0000 0.98010  0.67150  0.98100  Biso   1.000  O
  O48      1.0000 0.01990  0.17150  0.51900  Biso   1.000  O
  C113     1.0000 0.69100  0.56370  0.03700  Biso   1.000  C
  C114     1.0000 0.30900  0.06370  0.46300  Biso   1.000  C
  C115     1.0000 0.30900  0.43630  0.96300  Biso   1.000  C
  C116     1.0000 0.69100  0.93630  0.53700  Biso   1.000  C
  H97      1.0000 0.66540  0.51780  0.99890  Biso   1.000  H
  H98      1.0000 0.33460  0.01780  0.50110  Biso   1.000  H
  H99      1.0000 0.33460  0.48220  0.00110  Biso   1.000  H
  H100     1.0000 0.66540  0.98220  0.49890  Biso   1.000  H
  H101     1.0000 0.67640  0.52790  0.07900  Biso   1.000  H
  H102     1.0000 0.32360  0.02790  0.42100  Biso   1.000  H
  H103     1.0000 0.32360  0.47210  0.92100  Biso   1.000  H
  H104     1.0000 0.67640  0.97210  0.57900  Biso   1.000  H
  H105     1.0000 0.76710  0.57430  0.03610  Biso   1.000  H
  H106     1.0000 0.23290  0.07430  0.46390  Biso   1.000  H
  H107     1.0000 0.23290  0.42570  0.96390  Biso   1.000  H
  H108     1.0000 0.76710  0.92570  0.53610  Biso   1.000  H
  H109     1.0000 0.64570  0.70890  0.98750  Biso   1.000  H
  H110     1.0000 0.35430  0.20890  0.51250  Biso   1.000  H
  H111     1.0000 0.35430  0.29110  0.01250  Biso   1.000  H
  H112     1.0000 0.64570  0.79110  0.48750  Biso   1.000  H
  H113     1.0000 0.55830  0.66450  0.03350  Biso   1.000  H
  H114     1.0000 0.44170  0.16450  0.46650  Biso   1.000  H
  H115     1.0000 0.44170  0.33550  0.96650  Biso   1.000  H
  H116     1.0000 0.55830  0.83550  0.53350  Biso   1.000  H
