data_image0
_cell_length_a       16.41
_cell_length_b       13.2582
_cell_length_c       25.22
_cell_angle_alpha    90
_cell_angle_beta     97.835
_cell_angle_gamma    90

_symmetry_space_group_name_H-M    "P 1"
_symmetry_int_tables_number       1

loop_
  _symmetry_equiv_pos_as_xyz
  'x, y, z'

loop_
  _atom_site_label
  _atom_site_occupancy
  _atom_site_fract_x
  _atom_site_fract_y
  _atom_site_fract_z
  _atom_site_thermal_displace_type
  _atom_site_B_iso_or_equiv
  _atom_site_type_symbol
  Cu1      1.0000 0.04550  0.70918  0.46393  Biso   1.000  Cu
  Cu2      1.0000 0.95450  0.70918  0.03607  Biso   1.000  Cu
  Cu3      1.0000 0.54550  0.20918  0.46393  Biso   1.000  Cu
  Cu4      1.0000 0.45450  0.20918  0.03607  Biso   1.000  Cu
  Cu5      1.0000 0.95450  0.29082  0.53607  Biso   1.000  Cu
  Cu6      1.0000 0.04550  0.29082  0.96393  Biso   1.000  Cu
  Cu7      1.0000 0.45450  0.79082  0.53607  Biso   1.000  Cu
  Cu8      1.0000 0.54550  0.79082  0.96393  Biso   1.000  Cu
  N1       1.0000 0.13910  0.74850  0.42364  Biso   1.000  N
  N2       1.0000 0.86090  0.74850  0.07636  Biso   1.000  N
  N3       1.0000 0.63910  0.24850  0.42364  Biso   1.000  N
  N4       1.0000 0.36090  0.24850  0.07636  Biso   1.000  N
  N5       1.0000 0.86090  0.25150  0.57636  Biso   1.000  N
  N6       1.0000 0.13910  0.25150  0.92364  Biso   1.000  N
  N7       1.0000 0.36090  0.75150  0.57636  Biso   1.000  N
  N8       1.0000 0.63910  0.75150  0.92364  Biso   1.000  N
  N9       1.0000 0.12800  0.60440  0.49456  Biso   1.000  N
  N10      1.0000 0.87200  0.60440  0.00544  Biso   1.000  N
  N11      1.0000 0.62800  0.10440  0.49456  Biso   1.000  N
  N12      1.0000 0.37200  0.10440  0.00544  Biso   1.000  N
  N13      1.0000 0.87200  0.39560  0.50544  Biso   1.000  N
  N14      1.0000 0.12800  0.39560  0.99456  Biso   1.000  N
  N15      1.0000 0.37200  0.89560  0.50544  Biso   1.000  N
  N16      1.0000 0.62800  0.89560  0.99456  Biso   1.000  N
  N17      1.0000 0.96800  0.12970  0.17710  Biso   1.000  N
  N18      1.0000 0.03200  0.12970  0.32290  Biso   1.000  N
  N19      1.0000 0.46800  0.62970  0.17710  Biso   1.000  N
  N20      1.0000 0.53200  0.62970  0.32290  Biso   1.000  N
  N21      1.0000 0.03200  0.87030  0.82290  Biso   1.000  N
  N22      1.0000 0.96800  0.87030  0.67710  Biso   1.000  N
  N23      1.0000 0.53200  0.37030  0.82290  Biso   1.000  N
  N24      1.0000 0.46800  0.37030  0.67710  Biso   1.000  N
  O1       1.0000 0.06750  0.24660  0.18300  Biso   1.000  O
  O2       1.0000 0.93250  0.24660  0.31700  Biso   1.000  O
  O3       1.0000 0.56750  0.74660  0.18300  Biso   1.000  O
  O4       1.0000 0.43250  0.74660  0.31700  Biso   1.000  O
  O5       1.0000 0.93250  0.75340  0.81700  Biso   1.000  O
  O6       1.0000 0.06750  0.75340  0.68300  Biso   1.000  O
  O7       1.0000 0.43250  0.25340  0.81700  Biso   1.000  O
  O8       1.0000 0.56750  0.25340  0.68300  Biso   1.000  O
  O9       1.0000 0.97230  0.36810  0.89521  Biso   1.000  O
  O10      1.0000 0.02770  0.36810  0.60479  Biso   1.000  O
  O11      1.0000 0.47230  0.86810  0.89521  Biso   1.000  O
  O12      1.0000 0.52770  0.86810  0.60479  Biso   1.000  O
  O13      1.0000 0.02770  0.63190  0.10479  Biso   1.000  O
  O14      1.0000 0.97230  0.63190  0.39521  Biso   1.000  O
  O15      1.0000 0.52770  0.13190  0.10479  Biso   1.000  O
  O16      1.0000 0.47230  0.13190  0.39521  Biso   1.000  O
  O17      1.0000 0.94080  0.22490  0.85011  Biso   1.000  O
  O18      1.0000 0.05920  0.22490  0.64989  Biso   1.000  O
  O19      1.0000 0.44080  0.72490  0.85011  Biso   1.000  O
  O20      1.0000 0.55920  0.72490  0.64989  Biso   1.000  O
  O21      1.0000 0.05920  0.77510  0.14989  Biso   1.000  O
  O22      1.0000 0.94080  0.77510  0.35011  Biso   1.000  O
  O23      1.0000 0.55920  0.27510  0.14989  Biso   1.000  O
  O24      1.0000 0.44080  0.27510  0.35011  Biso   1.000  O
  O25      1.0000 0.88690  0.79820  0.51221  Biso   1.000  O
  O26      1.0000 0.11310  0.79820  0.98779  Biso   1.000  O
  O27      1.0000 0.38690  0.29820  0.51221  Biso   1.000  O
  O28      1.0000 0.61310  0.29820  0.98779  Biso   1.000  O
  O29      1.0000 0.11310  0.20180  0.48779  Biso   1.000  O
  O30      1.0000 0.88690  0.20180  0.01221  Biso   1.000  O
  O31      1.0000 0.61310  0.70180  0.48779  Biso   1.000  O
  O32      1.0000 0.38690  0.70180  0.01221  Biso   1.000  O
  O33      1.0000 0.97782  0.67260  0.51818  Biso   1.000  O
  O34      1.0000 0.02218  0.67260  0.98182  Biso   1.000  O
  O35      1.0000 0.47782  0.17260  0.51818  Biso   1.000  O
  O36      1.0000 0.52218  0.17260  0.98182  Biso   1.000  O
  O37      1.0000 0.02218  0.32740  0.48182  Biso   1.000  O
  O38      1.0000 0.97782  0.32740  0.01818  Biso   1.000  O
  O39      1.0000 0.52218  0.82740  0.48182  Biso   1.000  O
  O40      1.0000 0.47782  0.82740  0.01818  Biso   1.000  O
  O41      1.0000 0.74800  0.53250  0.68743  Biso   1.000  O
  O42      1.0000 0.25200  0.53250  0.81257  Biso   1.000  O
  O43      1.0000 0.24800  0.03250  0.68743  Biso   1.000  O
  O44      1.0000 0.75200  0.03250  0.81257  Biso   1.000  O
  O45      1.0000 0.25200  0.46750  0.31257  Biso   1.000  O
  O46      1.0000 0.74800  0.46750  0.18743  Biso   1.000  O
  O47      1.0000 0.75200  0.96750  0.31257  Biso   1.000  O
  O48      1.0000 0.24800  0.96750  0.18743  Biso   1.000  O
  O49      1.0000 0.00000  0.85450  0.25000  Biso   1.000  O
  O50      1.0000 0.50000  0.35450  0.25000  Biso   1.000  O
  O51      1.0000 0.00000  0.14550  0.75000  Biso   1.000  O
  O52      1.0000 0.50000  0.64550  0.75000  Biso   1.000  O
  H1       1.0000 0.98550  0.81720  0.27450  Biso   1.000  H
  H2       1.0000 0.01450  0.81720  0.22550  Biso   1.000  H
  H3       1.0000 0.48550  0.31720  0.27450  Biso   1.000  H
  H4       1.0000 0.51450  0.31720  0.22550  Biso   1.000  H
  H5       1.0000 0.01450  0.18280  0.72550  Biso   1.000  H
  H6       1.0000 0.98550  0.18280  0.77450  Biso   1.000  H
  H7       1.0000 0.51450  0.68280  0.72550  Biso   1.000  H
  H8       1.0000 0.48550  0.68280  0.77450  Biso   1.000  H
  O53      1.0000 0.98972  0.84180  0.44626  Biso   1.000  O
  O54      1.0000 0.01028  0.84180  0.05374  Biso   1.000  O
  O55      1.0000 0.48972  0.34180  0.44626  Biso   1.000  O
  O56      1.0000 0.51028  0.34180  0.05374  Biso   1.000  O
  O57      1.0000 0.01028  0.15820  0.55374  Biso   1.000  O
  O58      1.0000 0.98972  0.15820  0.94626  Biso   1.000  O
  O59      1.0000 0.51028  0.65820  0.55374  Biso   1.000  O
  O60      1.0000 0.48972  0.65820  0.94626  Biso   1.000  O
  H9       1.0000 0.97230  0.81930  0.41520  Biso   1.000  H
  H10      1.0000 0.02770  0.81930  0.08480  Biso   1.000  H
  H11      1.0000 0.47230  0.31930  0.41520  Biso   1.000  H
  H12      1.0000 0.52770  0.31930  0.08480  Biso   1.000  H
  H13      1.0000 0.02770  0.18070  0.58480  Biso   1.000  H
  H14      1.0000 0.97230  0.18070  0.91520  Biso   1.000  H
  H15      1.0000 0.52770  0.68070  0.58480  Biso   1.000  H
  H16      1.0000 0.47230  0.68070  0.91520  Biso   1.000  H
  H17      1.0000 0.95500  0.82660  0.46710  Biso   1.000  H
  H18      1.0000 0.04500  0.82660  0.03290  Biso   1.000  H
  H19      1.0000 0.45500  0.32660  0.46710  Biso   1.000  H
  H20      1.0000 0.54500  0.32660  0.03290  Biso   1.000  H
  H21      1.0000 0.04500  0.17340  0.53290  Biso   1.000  H
  H22      1.0000 0.95500  0.17340  0.96710  Biso   1.000  H
  H23      1.0000 0.54500  0.67340  0.53290  Biso   1.000  H
  H24      1.0000 0.45500  0.67340  0.96710  Biso   1.000  H
  C1       1.0000 0.14200  0.82000  0.38730  Biso   1.000  C
  C2       1.0000 0.85800  0.82000  0.11270  Biso   1.000  C
  C3       1.0000 0.64200  0.32000  0.38730  Biso   1.000  C
  C4       1.0000 0.35800  0.32000  0.11270  Biso   1.000  C
  C5       1.0000 0.85800  0.18000  0.61270  Biso   1.000  C
  C6       1.0000 0.14200  0.18000  0.88730  Biso   1.000  C
  C7       1.0000 0.35800  0.68000  0.61270  Biso   1.000  C
  C8       1.0000 0.64200  0.68000  0.88730  Biso   1.000  C
  H25      1.0000 0.09490  0.85770  0.37630  Biso   1.000  H
  H26      1.0000 0.90510  0.85770  0.12370  Biso   1.000  H
  H27      1.0000 0.59490  0.35770  0.37630  Biso   1.000  H
  H28      1.0000 0.40510  0.35770  0.12370  Biso   1.000  H
  H29      1.0000 0.90510  0.14230  0.62370  Biso   1.000  H
  H30      1.0000 0.09490  0.14230  0.87630  Biso   1.000  H
  H31      1.0000 0.40510  0.64230  0.62370  Biso   1.000  H
  H32      1.0000 0.59490  0.64230  0.87630  Biso   1.000  H
  C9       1.0000 0.21330  0.84090  0.36490  Biso   1.000  C
  C10      1.0000 0.78670  0.84090  0.13510  Biso   1.000  C
  C11      1.0000 0.71330  0.34090  0.36490  Biso   1.000  C
  C12      1.0000 0.28670  0.34090  0.13510  Biso   1.000  C
  C13      1.0000 0.78670  0.15910  0.63510  Biso   1.000  C
  C14      1.0000 0.21330  0.15910  0.86490  Biso   1.000  C
  C15      1.0000 0.28670  0.65910  0.63510  Biso   1.000  C
  C16      1.0000 0.71330  0.65910  0.86490  Biso   1.000  C
  H33      1.0000 0.21300  0.89170  0.33940  Biso   1.000  H
  H34      1.0000 0.78700  0.89170  0.16060  Biso   1.000  H
  H35      1.0000 0.71300  0.39170  0.33940  Biso   1.000  H
  H36      1.0000 0.28700  0.39170  0.16060  Biso   1.000  H
  H37      1.0000 0.78700  0.10830  0.66060  Biso   1.000  H
  H38      1.0000 0.21300  0.10830  0.83940  Biso   1.000  H
  H39      1.0000 0.28700  0.60830  0.66060  Biso   1.000  H
  H40      1.0000 0.71300  0.60830  0.83940  Biso   1.000  H
  C17      1.0000 0.28240  0.78790  0.38000  Biso   1.000  C
  C18      1.0000 0.71760  0.78790  0.12000  Biso   1.000  C
  C19      1.0000 0.78240  0.28790  0.38000  Biso   1.000  C
  C20      1.0000 0.21760  0.28790  0.12000  Biso   1.000  C
  C21      1.0000 0.71760  0.21210  0.62000  Biso   1.000  C
  C22      1.0000 0.28240  0.21210  0.88000  Biso   1.000  C
  C23      1.0000 0.21760  0.71210  0.62000  Biso   1.000  C
  C24      1.0000 0.78240  0.71210  0.88000  Biso   1.000  C
  H41      1.0000 0.33030  0.80290  0.36570  Biso   1.000  H
  H42      1.0000 0.66970  0.80290  0.13430  Biso   1.000  H
  H43      1.0000 0.83030  0.30290  0.36570  Biso   1.000  H
  H44      1.0000 0.16970  0.30290  0.13430  Biso   1.000  H
  H45      1.0000 0.66970  0.19710  0.63430  Biso   1.000  H
  H46      1.0000 0.33030  0.19710  0.86570  Biso   1.000  H
  H47      1.0000 0.16970  0.69710  0.63430  Biso   1.000  H
  H48      1.0000 0.83030  0.69710  0.86570  Biso   1.000  H
  C25      1.0000 0.28190  0.70920  0.41770  Biso   1.000  C
  C26      1.0000 0.71810  0.70920  0.08230  Biso   1.000  C
  C27      1.0000 0.78190  0.20920  0.41770  Biso   1.000  C
  C28      1.0000 0.21810  0.20920  0.08230  Biso   1.000  C
  C29      1.0000 0.71810  0.29080  0.58230  Biso   1.000  C
  C30      1.0000 0.28190  0.29080  0.91770  Biso   1.000  C
  C31      1.0000 0.21810  0.79080  0.58230  Biso   1.000  C
  C32      1.0000 0.78190  0.79080  0.91770  Biso   1.000  C
  C33      1.0000 0.20760  0.69280  0.43775  Biso   1.000  C
  C34      1.0000 0.79240  0.69280  0.06225  Biso   1.000  C
  C35      1.0000 0.70760  0.19280  0.43775  Biso   1.000  C
  C36      1.0000 0.29240  0.19280  0.06225  Biso   1.000  C
  C37      1.0000 0.79240  0.30720  0.56225  Biso   1.000  C
  C38      1.0000 0.20760  0.30720  0.93775  Biso   1.000  C
  C39      1.0000 0.29240  0.80720  0.56225  Biso   1.000  C
  C40      1.0000 0.70760  0.80720  0.93775  Biso   1.000  C
  C41      1.0000 0.20140  0.61400  0.47611  Biso   1.000  C
  C42      1.0000 0.79860  0.61400  0.02389  Biso   1.000  C
  C43      1.0000 0.70140  0.11400  0.47611  Biso   1.000  C
  C44      1.0000 0.29860  0.11400  0.02389  Biso   1.000  C
  C45      1.0000 0.79860  0.38600  0.52389  Biso   1.000  C
  C46      1.0000 0.20140  0.38600  0.97611  Biso   1.000  C
  C47      1.0000 0.29860  0.88600  0.52389  Biso   1.000  C
  C48      1.0000 0.70140  0.88600  0.97611  Biso   1.000  C
  C49      1.0000 0.26920  0.55180  0.49294  Biso   1.000  C
  C50      1.0000 0.73080  0.55180  0.00706  Biso   1.000  C
  C51      1.0000 0.76920  0.05180  0.49294  Biso   1.000  C
  C52      1.0000 0.23080  0.05180  0.00706  Biso   1.000  C
  C53      1.0000 0.73080  0.44820  0.50706  Biso   1.000  C
  C54      1.0000 0.26920  0.44820  0.99294  Biso   1.000  C
  C55      1.0000 0.23080  0.94820  0.50706  Biso   1.000  C
  C56      1.0000 0.76920  0.94820  0.99294  Biso   1.000  C
  C57      1.0000 0.34450  0.57040  0.47130  Biso   1.000  C
  C58      1.0000 0.65550  0.57040  0.02870  Biso   1.000  C
  C59      1.0000 0.84450  0.07040  0.47130  Biso   1.000  C
  C60      1.0000 0.15550  0.07040  0.02870  Biso   1.000  C
  C61      1.0000 0.65550  0.42960  0.52870  Biso   1.000  C
  C62      1.0000 0.34450  0.42960  0.97130  Biso   1.000  C
  C63      1.0000 0.15550  0.92960  0.52870  Biso   1.000  C
  C64      1.0000 0.84450  0.92960  0.97130  Biso   1.000  C
  H49      1.0000 0.38990  0.52950  0.48160  Biso   1.000  H
  H50      1.0000 0.61010  0.52950  0.01840  Biso   1.000  H
  H51      1.0000 0.88990  0.02950  0.48160  Biso   1.000  H
  H52      1.0000 0.11010  0.02950  0.01840  Biso   1.000  H
  H53      1.0000 0.61010  0.47050  0.51840  Biso   1.000  H
  H54      1.0000 0.38990  0.47050  0.98160  Biso   1.000  H
  H55      1.0000 0.11010  0.97050  0.51840  Biso   1.000  H
  H56      1.0000 0.88990  0.97050  0.98160  Biso   1.000  H
  C65      1.0000 0.35020  0.64650  0.43610  Biso   1.000  C
  C66      1.0000 0.64980  0.64650  0.06390  Biso   1.000  C
  C67      1.0000 0.85020  0.14650  0.43610  Biso   1.000  C
  C68      1.0000 0.14980  0.14650  0.06390  Biso   1.000  C
  C69      1.0000 0.64980  0.35350  0.56390  Biso   1.000  C
  C70      1.0000 0.35020  0.35350  0.93610  Biso   1.000  C
  C71      1.0000 0.14980  0.85350  0.56390  Biso   1.000  C
  C72      1.0000 0.85020  0.85350  0.93610  Biso   1.000  C
  H57      1.0000 0.40020  0.65800  0.42370  Biso   1.000  H
  H58      1.0000 0.59980  0.65800  0.07630  Biso   1.000  H
  H59      1.0000 0.90020  0.15800  0.42370  Biso   1.000  H
  H60      1.0000 0.09980  0.15800  0.07630  Biso   1.000  H
  H61      1.0000 0.59980  0.34200  0.57630  Biso   1.000  H
  H62      1.0000 0.40020  0.34200  0.92370  Biso   1.000  H
  H63      1.0000 0.09980  0.84200  0.57630  Biso   1.000  H
  H64      1.0000 0.90020  0.84200  0.92370  Biso   1.000  H
  C73      1.0000 0.25830  0.47540  0.52910  Biso   1.000  C
  C74      1.0000 0.74170  0.47540  0.97090  Biso   1.000  C
  C75      1.0000 0.75830  0.97540  0.52910  Biso   1.000  C
  C76      1.0000 0.24170  0.97540  0.97090  Biso   1.000  C
  C77      1.0000 0.74170  0.52460  0.47090  Biso   1.000  C
  C78      1.0000 0.25830  0.52460  0.02910  Biso   1.000  C
  C79      1.0000 0.24170  0.02460  0.47090  Biso   1.000  C
  C80      1.0000 0.75830  0.02460  0.02910  Biso   1.000  C
  H65      1.0000 0.30120  0.43140  0.54060  Biso   1.000  H
  H66      1.0000 0.69880  0.43140  0.95940  Biso   1.000  H
  H67      1.0000 0.80120  0.93140  0.54060  Biso   1.000  H
  H68      1.0000 0.19880  0.93140  0.95940  Biso   1.000  H
  H69      1.0000 0.69880  0.56860  0.45940  Biso   1.000  H
  H70      1.0000 0.30120  0.56860  0.04060  Biso   1.000  H
  H71      1.0000 0.19880  0.06860  0.45940  Biso   1.000  H
  H72      1.0000 0.80120  0.06860  0.04060  Biso   1.000  H
  C81      1.0000 0.18370  0.46530  0.54780  Biso   1.000  C
  C82      1.0000 0.81630  0.46530  0.95220  Biso   1.000  C
  C83      1.0000 0.68370  0.96530  0.54780  Biso   1.000  C
  C84      1.0000 0.31630  0.96530  0.95220  Biso   1.000  C
  C85      1.0000 0.81630  0.53470  0.45220  Biso   1.000  C
  C86      1.0000 0.18370  0.53470  0.04780  Biso   1.000  C
  C87      1.0000 0.31630  0.03470  0.45220  Biso   1.000  C
  C88      1.0000 0.68370  0.03470  0.04780  Biso   1.000  C
  H73      1.0000 0.17590  0.41500  0.57230  Biso   1.000  H
  H74      1.0000 0.82410  0.41500  0.92770  Biso   1.000  H
  H75      1.0000 0.67590  0.91500  0.57230  Biso   1.000  H
  H76      1.0000 0.32410  0.91500  0.92770  Biso   1.000  H
  H77      1.0000 0.82410  0.58500  0.42770  Biso   1.000  H
  H78      1.0000 0.17590  0.58500  0.07230  Biso   1.000  H
  H79      1.0000 0.32410  0.08500  0.42770  Biso   1.000  H
  H80      1.0000 0.67590  0.08500  0.07230  Biso   1.000  H
  C89      1.0000 0.11980  0.53170  0.52940  Biso   1.000  C
  C90      1.0000 0.88020  0.53170  0.97060  Biso   1.000  C
  C91      1.0000 0.61980  0.03170  0.52940  Biso   1.000  C
  C92      1.0000 0.38020  0.03170  0.97060  Biso   1.000  C
  C93      1.0000 0.88020  0.46830  0.47060  Biso   1.000  C
  C94      1.0000 0.11980  0.46830  0.02940  Biso   1.000  C
  C95      1.0000 0.38020  0.96830  0.47060  Biso   1.000  C
  C96      1.0000 0.61980  0.96830  0.02940  Biso   1.000  C
  H81      1.0000 0.06960  0.52450  0.54220  Biso   1.000  H
  H82      1.0000 0.93040  0.52450  0.95780  Biso   1.000  H
  H83      1.0000 0.56960  0.02450  0.54220  Biso   1.000  H
  H84      1.0000 0.43040  0.02450  0.95780  Biso   1.000  H
  H85      1.0000 0.93040  0.47550  0.45780  Biso   1.000  H
  H86      1.0000 0.06960  0.47550  0.04220  Biso   1.000  H
  H87      1.0000 0.43040  0.97550  0.45780  Biso   1.000  H
  H88      1.0000 0.56960  0.97550  0.04220  Biso   1.000  H
  C97      1.0000 0.91390  0.71690  0.53062  Biso   1.000  C
  C98      1.0000 0.08610  0.71690  0.96938  Biso   1.000  C
  C99      1.0000 0.41390  0.21690  0.53062  Biso   1.000  C
  C100     1.0000 0.58610  0.21690  0.96938  Biso   1.000  C
  C101     1.0000 0.08610  0.28310  0.46938  Biso   1.000  C
  C102     1.0000 0.91390  0.28310  0.03062  Biso   1.000  C
  C103     1.0000 0.58610  0.78310  0.46938  Biso   1.000  C
  C104     1.0000 0.41390  0.78310  0.03062  Biso   1.000  C
  C105     1.0000 0.87030  0.66440  0.57119  Biso   1.000  C
  C106     1.0000 0.12970  0.66440  0.92881  Biso   1.000  C
  C107     1.0000 0.37030  0.16440  0.57119  Biso   1.000  C
  C108     1.0000 0.62970  0.16440  0.92881  Biso   1.000  C
  C109     1.0000 0.12970  0.33560  0.42881  Biso   1.000  C
  C110     1.0000 0.87030  0.33560  0.07119  Biso   1.000  C
  C111     1.0000 0.62970  0.83560  0.42881  Biso   1.000  C
  C112     1.0000 0.37030  0.83560  0.07119  Biso   1.000  C
  C113     1.0000 0.79240  0.69570  0.58037  Biso   1.000  C
  C114     1.0000 0.20760  0.69570  0.91963  Biso   1.000  C
  C115     1.0000 0.29240  0.19570  0.58037  Biso   1.000  C
  C116     1.0000 0.70760  0.19570  0.91963  Biso   1.000  C
  C117     1.0000 0.20760  0.30430  0.41963  Biso   1.000  C
  C118     1.0000 0.79240  0.30430  0.08037  Biso   1.000  C
  C119     1.0000 0.70760  0.80430  0.41963  Biso   1.000  C
  C120     1.0000 0.29240  0.80430  0.08037  Biso   1.000  C
  H89      1.0000 0.76680  0.74830  0.56020  Biso   1.000  H
  H90      1.0000 0.23320  0.74830  0.93980  Biso   1.000  H
  H91      1.0000 0.26680  0.24830  0.56020  Biso   1.000  H
  H92      1.0000 0.73320  0.24830  0.93980  Biso   1.000  H
  H93      1.0000 0.23320  0.25170  0.43980  Biso   1.000  H
  H94      1.0000 0.76680  0.25170  0.06020  Biso   1.000  H
  H95      1.0000 0.73320  0.75170  0.43980  Biso   1.000  H
  H96      1.0000 0.26680  0.75170  0.06020  Biso   1.000  H
  C121     1.0000 0.75260  0.65030  0.61878  Biso   1.000  C
  C122     1.0000 0.24740  0.65030  0.88122  Biso   1.000  C
  C123     1.0000 0.25260  0.15030  0.61878  Biso   1.000  C
  C124     1.0000 0.74740  0.15030  0.88122  Biso   1.000  C
  C125     1.0000 0.24740  0.34970  0.38122  Biso   1.000  C
  C126     1.0000 0.75260  0.34970  0.11878  Biso   1.000  C
  C127     1.0000 0.74740  0.84970  0.38122  Biso   1.000  C
  C128     1.0000 0.25260  0.84970  0.11878  Biso   1.000  C
  H97      1.0000 0.70030  0.67150  0.62420  Biso   1.000  H
  H98      1.0000 0.29970  0.67150  0.87580  Biso   1.000  H
  H99      1.0000 0.20030  0.17150  0.62420  Biso   1.000  H
  H100     1.0000 0.79970  0.17150  0.87580  Biso   1.000  H
  H101     1.0000 0.29970  0.32850  0.37580  Biso   1.000  H
  H102     1.0000 0.70030  0.32850  0.12420  Biso   1.000  H
  H103     1.0000 0.79970  0.82850  0.37580  Biso   1.000  H
  H104     1.0000 0.20030  0.82850  0.12420  Biso   1.000  H
  C129     1.0000 0.79100  0.57340  0.64893  Biso   1.000  C
  C130     1.0000 0.20900  0.57340  0.85107  Biso   1.000  C
  C131     1.0000 0.29100  0.07340  0.64893  Biso   1.000  C
  C132     1.0000 0.70900  0.07340  0.85107  Biso   1.000  C
  C133     1.0000 0.20900  0.42660  0.35107  Biso   1.000  C
  C134     1.0000 0.79100  0.42660  0.14893  Biso   1.000  C
  C135     1.0000 0.70900  0.92660  0.35107  Biso   1.000  C
  C136     1.0000 0.29100  0.92660  0.14893  Biso   1.000  C
  C137     1.0000 0.86710  0.53720  0.63982  Biso   1.000  C
  C138     1.0000 0.13290  0.53720  0.86018  Biso   1.000  C
  C139     1.0000 0.36710  0.03720  0.63982  Biso   1.000  C
  C140     1.0000 0.63290  0.03720  0.86018  Biso   1.000  C
  C141     1.0000 0.13290  0.46280  0.36018  Biso   1.000  C
  C142     1.0000 0.86710  0.46280  0.13982  Biso   1.000  C
  C143     1.0000 0.63290  0.96280  0.36018  Biso   1.000  C
  C144     1.0000 0.36710  0.96280  0.13982  Biso   1.000  C
  H105     1.0000 0.89160  0.48340  0.65960  Biso   1.000  H
  H106     1.0000 0.10840  0.48340  0.84040  Biso   1.000  H
  H107     1.0000 0.39160  0.98340  0.65960  Biso   1.000  H
  H108     1.0000 0.60840  0.98340  0.84040  Biso   1.000  H
  H109     1.0000 0.10840  0.51660  0.34040  Biso   1.000  H
  H110     1.0000 0.89160  0.51660  0.15960  Biso   1.000  H
  H111     1.0000 0.60840  0.01660  0.34040  Biso   1.000  H
  H112     1.0000 0.39160  0.01660  0.15960  Biso   1.000  H
  C145     1.0000 0.90590  0.58280  0.60062  Biso   1.000  C
  C146     1.0000 0.09410  0.58280  0.89938  Biso   1.000  C
  C147     1.0000 0.40590  0.08280  0.60062  Biso   1.000  C
  C148     1.0000 0.59410  0.08280  0.89938  Biso   1.000  C
  C149     1.0000 0.09410  0.41720  0.39938  Biso   1.000  C
  C150     1.0000 0.90590  0.41720  0.10062  Biso   1.000  C
  C151     1.0000 0.59410  0.91720  0.39938  Biso   1.000  C
  C152     1.0000 0.40590  0.91720  0.10062  Biso   1.000  C
  H113     1.0000 0.95660  0.55860  0.59380  Biso   1.000  H
  H114     1.0000 0.04340  0.55860  0.90620  Biso   1.000  H
  H115     1.0000 0.45660  0.05860  0.59380  Biso   1.000  H
  H116     1.0000 0.54340  0.05860  0.90620  Biso   1.000  H
  H117     1.0000 0.04340  0.44140  0.40620  Biso   1.000  H
  H118     1.0000 0.95660  0.44140  0.09380  Biso   1.000  H
  H119     1.0000 0.54340  0.94140  0.40620  Biso   1.000  H
  H120     1.0000 0.45660  0.94140  0.09380  Biso   1.000  H
  C153     1.0000 0.79480  0.48150  0.72961  Biso   1.000  C
  C154     1.0000 0.20520  0.48150  0.77039  Biso   1.000  C
  C155     1.0000 0.29480  0.98150  0.72961  Biso   1.000  C
  C156     1.0000 0.70520  0.98150  0.77039  Biso   1.000  C
  C157     1.0000 0.20520  0.51850  0.27039  Biso   1.000  C
  C158     1.0000 0.79480  0.51850  0.22961  Biso   1.000  C
  C159     1.0000 0.70520  0.01850  0.27039  Biso   1.000  C
  C160     1.0000 0.29480  0.01850  0.22961  Biso   1.000  C
  C161     1.0000 0.78390  0.37890  0.73400  Biso   1.000  C
  C162     1.0000 0.21610  0.37890  0.76600  Biso   1.000  C
  C163     1.0000 0.28390  0.87890  0.73400  Biso   1.000  C
  C164     1.0000 0.71610  0.87890  0.76600  Biso   1.000  C
  C165     1.0000 0.21610  0.62110  0.26600  Biso   1.000  C
  C166     1.0000 0.78390  0.62110  0.23400  Biso   1.000  C
  C167     1.0000 0.71610  0.12110  0.26600  Biso   1.000  C
  C168     1.0000 0.28390  0.12110  0.23400  Biso   1.000  C
  H121     1.0000 0.74570  0.34510  0.70970  Biso   1.000  H
  H122     1.0000 0.25430  0.34510  0.79030  Biso   1.000  H
  H123     1.0000 0.24570  0.84510  0.70970  Biso   1.000  H
  H124     1.0000 0.75430  0.84510  0.79030  Biso   1.000  H
  H125     1.0000 0.25430  0.65490  0.29030  Biso   1.000  H
  H126     1.0000 0.74570  0.65490  0.20970  Biso   1.000  H
  H127     1.0000 0.75430  0.15490  0.29030  Biso   1.000  H
  H128     1.0000 0.24570  0.15490  0.20970  Biso   1.000  H
  C169     1.0000 0.83050  0.32680  0.77500  Biso   1.000  C
  C170     1.0000 0.16950  0.32680  0.72500  Biso   1.000  C
  C171     1.0000 0.33050  0.82680  0.77500  Biso   1.000  C
  C172     1.0000 0.66950  0.82680  0.72500  Biso   1.000  C
  C173     1.0000 0.16950  0.67320  0.22500  Biso   1.000  C
  C174     1.0000 0.83050  0.67320  0.27500  Biso   1.000  C
  C175     1.0000 0.66950  0.17320  0.22500  Biso   1.000  C
  C176     1.0000 0.33050  0.17320  0.27500  Biso   1.000  C
  H129     1.0000 0.82440  0.25740  0.77760  Biso   1.000  H
  H130     1.0000 0.17560  0.25740  0.72240  Biso   1.000  H
  H131     1.0000 0.32440  0.75740  0.77760  Biso   1.000  H
  H132     1.0000 0.67560  0.75740  0.72240  Biso   1.000  H
  H133     1.0000 0.17560  0.74260  0.22240  Biso   1.000  H
  H134     1.0000 0.82440  0.74260  0.27760  Biso   1.000  H
  H135     1.0000 0.67560  0.24260  0.22240  Biso   1.000  H
  H136     1.0000 0.32440  0.24260  0.27760  Biso   1.000  H
  C177     1.0000 0.88600  0.37720  0.81208  Biso   1.000  C
  C178     1.0000 0.11400  0.37720  0.68792  Biso   1.000  C
  C179     1.0000 0.38600  0.87720  0.81208  Biso   1.000  C
  C180     1.0000 0.61400  0.87720  0.68792  Biso   1.000  C
  C181     1.0000 0.11400  0.62280  0.18792  Biso   1.000  C
  C182     1.0000 0.88600  0.62280  0.31208  Biso   1.000  C
  C183     1.0000 0.61400  0.12280  0.18792  Biso   1.000  C
  C184     1.0000 0.38600  0.12280  0.31208  Biso   1.000  C
  C185     1.0000 0.89310  0.48130  0.80788  Biso   1.000  C
  C186     1.0000 0.10690  0.48130  0.69212  Biso   1.000  C
  C187     1.0000 0.39310  0.98130  0.80788  Biso   1.000  C
  C188     1.0000 0.60690  0.98130  0.69212  Biso   1.000  C
  C189     1.0000 0.10690  0.51870  0.19212  Biso   1.000  C
  C190     1.0000 0.89310  0.51870  0.30788  Biso   1.000  C
  C191     1.0000 0.60690  0.01870  0.19212  Biso   1.000  C
  C192     1.0000 0.39310  0.01870  0.30788  Biso   1.000  C
  H137     1.0000 0.92880  0.51620  0.83330  Biso   1.000  H
  H138     1.0000 0.07120  0.51620  0.66670  Biso   1.000  H
  H139     1.0000 0.42880  0.01620  0.83330  Biso   1.000  H
  H140     1.0000 0.57120  0.01620  0.66670  Biso   1.000  H
  H141     1.0000 0.07120  0.48380  0.16670  Biso   1.000  H
  H142     1.0000 0.92880  0.48380  0.33330  Biso   1.000  H
  H143     1.0000 0.57120  0.98380  0.16670  Biso   1.000  H
  H144     1.0000 0.42880  0.98380  0.33330  Biso   1.000  H
  C193     1.0000 0.84800  0.53380  0.76650  Biso   1.000  C
  C194     1.0000 0.15200  0.53380  0.73350  Biso   1.000  C
  C195     1.0000 0.34800  0.03380  0.76650  Biso   1.000  C
  C196     1.0000 0.65200  0.03380  0.73350  Biso   1.000  C
  C197     1.0000 0.15200  0.46620  0.23350  Biso   1.000  C
  C198     1.0000 0.84800  0.46620  0.26650  Biso   1.000  C
  C199     1.0000 0.65200  0.96620  0.23350  Biso   1.000  C
  C200     1.0000 0.34800  0.96620  0.26650  Biso   1.000  C
  H145     1.0000 0.85360  0.60340  0.76370  Biso   1.000  H
  H146     1.0000 0.14640  0.60340  0.73630  Biso   1.000  H
  H147     1.0000 0.35360  0.10340  0.76370  Biso   1.000  H
  H148     1.0000 0.64640  0.10340  0.73630  Biso   1.000  H
  H149     1.0000 0.14640  0.39660  0.23630  Biso   1.000  H
  H150     1.0000 0.85360  0.39660  0.26370  Biso   1.000  H
  H151     1.0000 0.64640  0.89660  0.23630  Biso   1.000  H
  H152     1.0000 0.35360  0.89660  0.26370  Biso   1.000  H
  C201     1.0000 0.93740  0.32010  0.85580  Biso   1.000  C
  C202     1.0000 0.06260  0.32010  0.64420  Biso   1.000  C
  C203     1.0000 0.43740  0.82010  0.85580  Biso   1.000  C
  C204     1.0000 0.56260  0.82010  0.64420  Biso   1.000  C
  C205     1.0000 0.06260  0.67990  0.14420  Biso   1.000  C
  C206     1.0000 0.93740  0.67990  0.35580  Biso   1.000  C
  C207     1.0000 0.56260  0.17990  0.14420  Biso   1.000  C
  C208     1.0000 0.43740  0.17990  0.35580  Biso   1.000  C
  C209     1.0000 0.99760  0.22140  0.18520  Biso   1.000  C
  C210     1.0000 0.00240  0.22140  0.31480  Biso   1.000  C
  C211     1.0000 0.49760  0.72140  0.18520  Biso   1.000  C
  C212     1.0000 0.50240  0.72140  0.31480  Biso   1.000  C
  C213     1.0000 0.00240  0.77860  0.81480  Biso   1.000  C
  C214     1.0000 0.99760  0.77860  0.68520  Biso   1.000  C
  C215     1.0000 0.50240  0.27860  0.81480  Biso   1.000  C
  C216     1.0000 0.49760  0.27860  0.68520  Biso   1.000  C
  H153     1.0000 0.96140  0.27110  0.19330  Biso   1.000  H
  H154     1.0000 0.03860  0.27110  0.30670  Biso   1.000  H
  H155     1.0000 0.46140  0.77110  0.19330  Biso   1.000  H
  H156     1.0000 0.53860  0.77110  0.30670  Biso   1.000  H
  H157     1.0000 0.03860  0.72890  0.80670  Biso   1.000  H
  H158     1.0000 0.96140  0.72890  0.69330  Biso   1.000  H
  H159     1.0000 0.53860  0.22890  0.80670  Biso   1.000  H
  H160     1.0000 0.46140  0.22890  0.69330  Biso   1.000  H
  C217     1.0000 0.88440  0.10550  0.18120  Biso   1.000  C
  C218     1.0000 0.11560  0.10550  0.31880  Biso   1.000  C
  C219     1.0000 0.38440  0.60550  0.18120  Biso   1.000  C
  C220     1.0000 0.61560  0.60550  0.31880  Biso   1.000  C
  C221     1.0000 0.11560  0.89450  0.81880  Biso   1.000  C
  C222     1.0000 0.88440  0.89450  0.68120  Biso   1.000  C
  C223     1.0000 0.61560  0.39450  0.81880  Biso   1.000  C
  C224     1.0000 0.38440  0.39450  0.68120  Biso   1.000  C
  H161     1.0000 0.88250  0.05160  0.20640  Biso   1.000  H
  H162     1.0000 0.11750  0.05160  0.29360  Biso   1.000  H
  H163     1.0000 0.38250  0.55160  0.20640  Biso   1.000  H
  H164     1.0000 0.61750  0.55160  0.29360  Biso   1.000  H
  H165     1.0000 0.11750  0.94840  0.79360  Biso   1.000  H
  H166     1.0000 0.88250  0.94840  0.70640  Biso   1.000  H
  H167     1.0000 0.61750  0.44840  0.79360  Biso   1.000  H
  H168     1.0000 0.38250  0.44840  0.70640  Biso   1.000  H
  H169     1.0000 0.85710  0.08490  0.14680  Biso   1.000  H
  H170     1.0000 0.14290  0.08490  0.35320  Biso   1.000  H
  H171     1.0000 0.35710  0.58490  0.14680  Biso   1.000  H
  H172     1.0000 0.64290  0.58490  0.35320  Biso   1.000  H
  H173     1.0000 0.14290  0.91510  0.85320  Biso   1.000  H
  H174     1.0000 0.85710  0.91510  0.64680  Biso   1.000  H
  H175     1.0000 0.64290  0.41510  0.85320  Biso   1.000  H
  H176     1.0000 0.35710  0.41510  0.64680  Biso   1.000  H
  H177     1.0000 0.85730  0.16380  0.19320  Biso   1.000  H
  H178     1.0000 0.14270  0.16380  0.30680  Biso   1.000  H
  H179     1.0000 0.35730  0.66380  0.19320  Biso   1.000  H
  H180     1.0000 0.64270  0.66380  0.30680  Biso   1.000  H
  H181     1.0000 0.14270  0.83620  0.80680  Biso   1.000  H
  H182     1.0000 0.85730  0.83620  0.69320  Biso   1.000  H
  H183     1.0000 0.64270  0.33620  0.80680  Biso   1.000  H
  H184     1.0000 0.35730  0.33620  0.69320  Biso   1.000  H
  C225     1.0000 0.02090  0.04730  0.16390  Biso   1.000  C
  C226     1.0000 0.97910  0.04730  0.33610  Biso   1.000  C
  C227     1.0000 0.52090  0.54730  0.16390  Biso   1.000  C
  C228     1.0000 0.47910  0.54730  0.33610  Biso   1.000  C
  C229     1.0000 0.97910  0.95270  0.83610  Biso   1.000  C
  C230     1.0000 0.02090  0.95270  0.66390  Biso   1.000  C
  C231     1.0000 0.47910  0.45270  0.83610  Biso   1.000  C
  C232     1.0000 0.52090  0.45270  0.66390  Biso   1.000  C
  H185     1.0000 0.07670  0.07040  0.16680  Biso   1.000  H
  H186     1.0000 0.92330  0.07040  0.33320  Biso   1.000  H
  H187     1.0000 0.57670  0.57040  0.16680  Biso   1.000  H
  H188     1.0000 0.42330  0.57040  0.33320  Biso   1.000  H
  H189     1.0000 0.92330  0.92960  0.83320  Biso   1.000  H
  H190     1.0000 0.07670  0.92960  0.66680  Biso   1.000  H
  H191     1.0000 0.42330  0.42960  0.83320  Biso   1.000  H
  H192     1.0000 0.57670  0.42960  0.66680  Biso   1.000  H
  H193     1.0000 0.00320  0.02510  0.12790  Biso   1.000  H
  H194     1.0000 0.99680  0.02510  0.37210  Biso   1.000  H
  H195     1.0000 0.50320  0.52510  0.12790  Biso   1.000  H
  H196     1.0000 0.49680  0.52510  0.37210  Biso   1.000  H
  H197     1.0000 0.99680  0.97490  0.87210  Biso   1.000  H
  H198     1.0000 0.00320  0.97490  0.62790  Biso   1.000  H
  H199     1.0000 0.49680  0.47490  0.87210  Biso   1.000  H
  H200     1.0000 0.50320  0.47490  0.62790  Biso   1.000  H
  H201     1.0000 0.01740  0.99220  0.18820  Biso   1.000  H
  H202     1.0000 0.98260  0.99220  0.31180  Biso   1.000  H
  H203     1.0000 0.51740  0.49220  0.18820  Biso   1.000  H
  H204     1.0000 0.48260  0.49220  0.31180  Biso   1.000  H
  H205     1.0000 0.98260  0.00780  0.81180  Biso   1.000  H
  H206     1.0000 0.01740  0.00780  0.68820  Biso   1.000  H
  H207     1.0000 0.48260  0.50780  0.81180  Biso   1.000  H
  H208     1.0000 0.51740  0.50780  0.68820  Biso   1.000  H
