data_image0
_cell_length_a       18.267
_cell_length_b       22.482
_cell_length_c       6.392
_cell_angle_alpha    90
_cell_angle_beta     90
_cell_angle_gamma    90

_symmetry_space_group_name_H-M    "P 1"
_symmetry_int_tables_number       1

loop_
  _symmetry_equiv_pos_as_xyz
  'x, y, z'

loop_
  _atom_site_label
  _atom_site_occupancy
  _atom_site_fract_x
  _atom_site_fract_y
  _atom_site_fract_z
  _atom_site_thermal_displace_type
  _atom_site_B_iso_or_equiv
  _atom_site_type_symbol
  Cu1      1.0000 0.38614  0.08108  0.50468  Biso   1.000  Cu
  Cu2      1.0000 0.61386  0.91892  0.50468  Biso   1.000  Cu
  Cu3      1.0000 0.86386  0.33108  0.75468  Biso   1.000  Cu
  Cu4      1.0000 0.63614  0.16892  0.75468  Biso   1.000  Cu
  Cu5      1.0000 0.38614  0.58108  0.00468  Biso   1.000  Cu
  Cu6      1.0000 0.61386  0.41892  0.00468  Biso   1.000  Cu
  Cu7      1.0000 0.88614  0.08108  0.00468  Biso   1.000  Cu
  Cu8      1.0000 0.11386  0.91892  0.00468  Biso   1.000  Cu
  Cu9      1.0000 0.88614  0.58108  0.50468  Biso   1.000  Cu
  Cu10     1.0000 0.11386  0.41892  0.50468  Biso   1.000  Cu
  S1       1.0000 0.50000  0.00000  0.28570  Biso   1.000  S
  S2       1.0000 0.75000  0.25000  0.53570  Biso   1.000  S
  S3       1.0000 0.50000  0.50000  0.78570  Biso   1.000  S
  S4       1.0000 0.00000  0.00000  0.78570  Biso   1.000  S
  S5       1.0000 0.00000  0.50000  0.28570  Biso   1.000  S
  O1       1.0000 0.48010  0.10688  0.60510  Biso   1.000  O
  O2       1.0000 0.51990  0.89312  0.60510  Biso   1.000  O
  O3       1.0000 0.76990  0.35688  0.85510  Biso   1.000  O
  O4       1.0000 0.73010  0.14312  0.85510  Biso   1.000  O
  O5       1.0000 0.48010  0.60688  0.10510  Biso   1.000  O
  O6       1.0000 0.51990  0.39312  0.10510  Biso   1.000  O
  O7       1.0000 0.98010  0.10688  0.10510  Biso   1.000  O
  O8       1.0000 0.01990  0.89312  0.10510  Biso   1.000  O
  O9       1.0000 0.98010  0.60688  0.60510  Biso   1.000  O
  O10      1.0000 0.01990  0.39312  0.60510  Biso   1.000  O
  O11      1.0000 0.40330  0.30160  0.58650  Biso   1.000  O
  O12      1.0000 0.59670  0.69840  0.58650  Biso   1.000  O
  O13      1.0000 0.84670  0.55160  0.83650  Biso   1.000  O
  O14      1.0000 0.65330  0.94840  0.83650  Biso   1.000  O
  O15      1.0000 0.40330  0.80160  0.08650  Biso   1.000  O
  O16      1.0000 0.59670  0.19840  0.08650  Biso   1.000  O
  O17      1.0000 0.90330  0.30160  0.08650  Biso   1.000  O
  O18      1.0000 0.09670  0.69840  0.08650  Biso   1.000  O
  O19      1.0000 0.90330  0.80160  0.58650  Biso   1.000  O
  O20      1.0000 0.09670  0.19840  0.58650  Biso   1.000  O
  O21      1.0000 0.43420  0.00598  0.41710  Biso   1.000  O
  O22      1.0000 0.56580  0.99402  0.41710  Biso   1.000  O
  O23      1.0000 0.81580  0.25598  0.66710  Biso   1.000  O
  O24      1.0000 0.68420  0.24402  0.66710  Biso   1.000  O
  O25      1.0000 0.43420  0.50598  0.91710  Biso   1.000  O
  O26      1.0000 0.56580  0.49402  0.91710  Biso   1.000  O
  O27      1.0000 0.93420  0.00598  0.91710  Biso   1.000  O
  O28      1.0000 0.06580  0.99402  0.91710  Biso   1.000  O
  O29      1.0000 0.93420  0.50598  0.41710  Biso   1.000  O
  O30      1.0000 0.06580  0.49402  0.41710  Biso   1.000  O
  O31      1.0000 0.49010  0.94660  0.15490  Biso   1.000  O
  O32      1.0000 0.50990  0.05340  0.15490  Biso   1.000  O
  O33      1.0000 0.75990  0.19660  0.40490  Biso   1.000  O
  O34      1.0000 0.74010  0.30340  0.40490  Biso   1.000  O
  O35      1.0000 0.49010  0.44660  0.65490  Biso   1.000  O
  O36      1.0000 0.50990  0.55340  0.65490  Biso   1.000  O
  O37      1.0000 0.99010  0.94660  0.65490  Biso   1.000  O
  O38      1.0000 0.00990  0.05340  0.65490  Biso   1.000  O
  O39      1.0000 0.99010  0.44660  0.15490  Biso   1.000  O
  O40      1.0000 0.00990  0.55340  0.15490  Biso   1.000  O
  N1       1.0000 0.51540  0.25490  0.64870  Biso   1.000  N
  N2       1.0000 0.48460  0.74510  0.64870  Biso   1.000  N
  N3       1.0000 0.73460  0.50490  0.89870  Biso   1.000  N
  N4       1.0000 0.76540  0.99510  0.89870  Biso   1.000  N
  N5       1.0000 0.51540  0.75490  0.14870  Biso   1.000  N
  N6       1.0000 0.48460  0.24510  0.14870  Biso   1.000  N
  N7       1.0000 0.01540  0.25490  0.14870  Biso   1.000  N
  N8       1.0000 0.98460  0.74510  0.14870  Biso   1.000  N
  N9       1.0000 0.01540  0.75490  0.64870  Biso   1.000  N
  N10      1.0000 0.98460  0.24510  0.64870  Biso   1.000  N
  H1       1.0000 0.54200  0.28550  0.67540  Biso   1.000  H
  H2       1.0000 0.45800  0.71450  0.67540  Biso   1.000  H
  H3       1.0000 0.70800  0.53550  0.92540  Biso   1.000  H
  H4       1.0000 0.79200  0.96450  0.92540  Biso   1.000  H
  H5       1.0000 0.54200  0.78550  0.17540  Biso   1.000  H
  H6       1.0000 0.45800  0.21450  0.17540  Biso   1.000  H
  H7       1.0000 0.04200  0.28550  0.17540  Biso   1.000  H
  H8       1.0000 0.95800  0.71450  0.17540  Biso   1.000  H
  H9       1.0000 0.04200  0.78550  0.67540  Biso   1.000  H
  H10      1.0000 0.95800  0.21450  0.67540  Biso   1.000  H
  N11      1.0000 0.54200  0.19630  0.64380  Biso   1.000  N
  N12      1.0000 0.45800  0.80370  0.64380  Biso   1.000  N
  N13      1.0000 0.70800  0.44630  0.89380  Biso   1.000  N
  N14      1.0000 0.79200  0.05370  0.89380  Biso   1.000  N
  N15      1.0000 0.54200  0.69630  0.14380  Biso   1.000  N
  N16      1.0000 0.45800  0.30370  0.14380  Biso   1.000  N
  N17      1.0000 0.04200  0.19630  0.14380  Biso   1.000  N
  N18      1.0000 0.95800  0.80370  0.14380  Biso   1.000  N
  N19      1.0000 0.04200  0.69630  0.64380  Biso   1.000  N
  N20      1.0000 0.95800  0.30370  0.64380  Biso   1.000  N
  N21      1.0000 0.42330  0.19850  0.59650  Biso   1.000  N
  N22      1.0000 0.57670  0.80150  0.59650  Biso   1.000  N
  N23      1.0000 0.82670  0.44850  0.84650  Biso   1.000  N
  N24      1.0000 0.67330  0.05150  0.84650  Biso   1.000  N
  N25      1.0000 0.42330  0.69850  0.09650  Biso   1.000  N
  N26      1.0000 0.57670  0.30150  0.09650  Biso   1.000  N
  N27      1.0000 0.92330  0.19850  0.09650  Biso   1.000  N
  N28      1.0000 0.07670  0.80150  0.09650  Biso   1.000  N
  N29      1.0000 0.92330  0.69850  0.59650  Biso   1.000  N
  N30      1.0000 0.07670  0.30150  0.59650  Biso   1.000  N
  N31      1.0000 0.35540  0.17150  0.55090  Biso   1.000  N
  N32      1.0000 0.64460  0.82850  0.55090  Biso   1.000  N
  N33      1.0000 0.89460  0.42150  0.80090  Biso   1.000  N
  N34      1.0000 0.60540  0.07850  0.80090  Biso   1.000  N
  N35      1.0000 0.35540  0.67150  0.05090  Biso   1.000  N
  N36      1.0000 0.64460  0.32850  0.05090  Biso   1.000  N
  N37      1.0000 0.85540  0.17150  0.05090  Biso   1.000  N
  N38      1.0000 0.14460  0.82850  0.05090  Biso   1.000  N
  N39      1.0000 0.85540  0.67150  0.55090  Biso   1.000  N
  N40      1.0000 0.14460  0.32850  0.55090  Biso   1.000  N
  H11      1.0000 0.32380  0.17530  0.65820  Biso   1.000  H
  H12      1.0000 0.67620  0.82470  0.65820  Biso   1.000  H
  H13      1.0000 0.92620  0.42530  0.90820  Biso   1.000  H
  H14      1.0000 0.57380  0.07470  0.90820  Biso   1.000  H
  H15      1.0000 0.32380  0.67530  0.15820  Biso   1.000  H
  H16      1.0000 0.67620  0.32470  0.15820  Biso   1.000  H
  H17      1.0000 0.82380  0.17530  0.15820  Biso   1.000  H
  H18      1.0000 0.17620  0.82470  0.15820  Biso   1.000  H
  H19      1.0000 0.82380  0.67530  0.65820  Biso   1.000  H
  H20      1.0000 0.17620  0.32470  0.65820  Biso   1.000  H
  H21      1.0000 0.33510  0.18700  0.43470  Biso   1.000  H
  H22      1.0000 0.66490  0.81300  0.43470  Biso   1.000  H
  H23      1.0000 0.91490  0.43700  0.68470  Biso   1.000  H
  H24      1.0000 0.58510  0.06300  0.68470  Biso   1.000  H
  H25      1.0000 0.33510  0.68700  0.93470  Biso   1.000  H
  H26      1.0000 0.66490  0.31300  0.93470  Biso   1.000  H
  H27      1.0000 0.83510  0.18700  0.93470  Biso   1.000  H
  H28      1.0000 0.16490  0.81300  0.93470  Biso   1.000  H
  H29      1.0000 0.83510  0.68700  0.43470  Biso   1.000  H
  H30      1.0000 0.16490  0.31300  0.43470  Biso   1.000  H
  C1       1.0000 0.48410  0.16300  0.61530  Biso   1.000  C
  C2       1.0000 0.51590  0.83700  0.61530  Biso   1.000  C
  C3       1.0000 0.76590  0.41300  0.86530  Biso   1.000  C
  C4       1.0000 0.73410  0.08700  0.86530  Biso   1.000  C
  C5       1.0000 0.48410  0.66300  0.11530  Biso   1.000  C
  C6       1.0000 0.51590  0.33700  0.11530  Biso   1.000  C
  C7       1.0000 0.98410  0.16300  0.11530  Biso   1.000  C
  C8       1.0000 0.01590  0.83700  0.11530  Biso   1.000  C
  C9       1.0000 0.98410  0.66300  0.61530  Biso   1.000  C
  C10      1.0000 0.01590  0.33700  0.61530  Biso   1.000  C
  C11      1.0000 0.44310  0.25750  0.60640  Biso   1.000  C
  C12      1.0000 0.55690  0.74250  0.60640  Biso   1.000  C
  C13      1.0000 0.80690  0.50750  0.85640  Biso   1.000  C
  C14      1.0000 0.69310  0.99250  0.85640  Biso   1.000  C
  C15      1.0000 0.44310  0.75750  0.10640  Biso   1.000  C
  C16      1.0000 0.55690  0.24250  0.10640  Biso   1.000  C
  C17      1.0000 0.94310  0.25750  0.10640  Biso   1.000  C
  C18      1.0000 0.05690  0.74250  0.10640  Biso   1.000  C
  C19      1.0000 0.94310  0.75750  0.60640  Biso   1.000  C
  C20      1.0000 0.05690  0.24250  0.60640  Biso   1.000  C
  O41      1.0000 0.34450  0.88970  0.37450  Biso   1.000  O
  O42      1.0000 0.65550  0.11030  0.37450  Biso   1.000  O
  O43      1.0000 0.90550  0.13970  0.62450  Biso   1.000  O
  O44      1.0000 0.59450  0.36030  0.62450  Biso   1.000  O
  O45      1.0000 0.34450  0.38970  0.87450  Biso   1.000  O
  O46      1.0000 0.65550  0.61030  0.87450  Biso   1.000  O
  O47      1.0000 0.84450  0.88970  0.87450  Biso   1.000  O
  O48      1.0000 0.15550  0.11030  0.87450  Biso   1.000  O
  O49      1.0000 0.84450  0.38970  0.37450  Biso   1.000  O
  O50      1.0000 0.15550  0.61030  0.37450  Biso   1.000  O
  H31      1.0000 0.31100  0.86600  0.35600  Biso   1.000  H
  H32      1.0000 0.68900  0.13400  0.35600  Biso   1.000  H
  H33      1.0000 0.93900  0.11600  0.60600  Biso   1.000  H
  H34      1.0000 0.56100  0.38400  0.60600  Biso   1.000  H
  H35      1.0000 0.31100  0.36600  0.85600  Biso   1.000  H
  H36      1.0000 0.68900  0.63400  0.85600  Biso   1.000  H
  H37      1.0000 0.81100  0.86600  0.85600  Biso   1.000  H
  H38      1.0000 0.18900  0.13400  0.85600  Biso   1.000  H
  H39      1.0000 0.81100  0.36600  0.35600  Biso   1.000  H
  H40      1.0000 0.18900  0.63400  0.35600  Biso   1.000  H
  H41      1.0000 0.35800  0.90000  0.25600  Biso   1.000  H
  H42      1.0000 0.64200  0.10000  0.25600  Biso   1.000  H
  H43      1.0000 0.89200  0.15000  0.50600  Biso   1.000  H
  H44      1.0000 0.60800  0.35000  0.50600  Biso   1.000  H
  H45      1.0000 0.35800  0.40000  0.75600  Biso   1.000  H
  H46      1.0000 0.64200  0.60000  0.75600  Biso   1.000  H
  H47      1.0000 0.85800  0.90000  0.75600  Biso   1.000  H
  H48      1.0000 0.14200  0.10000  0.75600  Biso   1.000  H
  H49      1.0000 0.85800  0.40000  0.25600  Biso   1.000  H
  H50      1.0000 0.14200  0.60000  0.25600  Biso   1.000  H
  O51      1.0000 0.26990  0.85688  0.85510  Biso   1.000  O
  O52      1.0000 0.26990  0.35688  0.35510  Biso   1.000  O
  O53      1.0000 0.73010  0.64312  0.35510  Biso   1.000  O
  O54      1.0000 0.76990  0.85688  0.35510  Biso   1.000  O
  O55      1.0000 0.23010  0.14312  0.35510  Biso   1.000  O
  O56      1.0000 0.23010  0.64312  0.85510  Biso   1.000  O
  O57      1.0000 0.34670  0.05160  0.83650  Biso   1.000  O
  O58      1.0000 0.34670  0.55160  0.33650  Biso   1.000  O
  O59      1.0000 0.65330  0.44840  0.33650  Biso   1.000  O
  O60      1.0000 0.84670  0.05160  0.33650  Biso   1.000  O
  O61      1.0000 0.15330  0.94840  0.33650  Biso   1.000  O
  O62      1.0000 0.15330  0.44840  0.83650  Biso   1.000  O
  N41      1.0000 0.23460  0.00490  0.89870  Biso   1.000  N
  N42      1.0000 0.23460  0.50490  0.39870  Biso   1.000  N
  N43      1.0000 0.76540  0.49510  0.39870  Biso   1.000  N
  N44      1.0000 0.73460  0.00490  0.39870  Biso   1.000  N
  N45      1.0000 0.26540  0.99510  0.39870  Biso   1.000  N
  N46      1.0000 0.26540  0.49510  0.89870  Biso   1.000  N
  H51      1.0000 0.20800  0.03550  0.92540  Biso   1.000  H
  H52      1.0000 0.20800  0.53550  0.42540  Biso   1.000  H
  H53      1.0000 0.79200  0.46450  0.42540  Biso   1.000  H
  H54      1.0000 0.70800  0.03550  0.42540  Biso   1.000  H
  H55      1.0000 0.29200  0.96450  0.42540  Biso   1.000  H
  H56      1.0000 0.29200  0.46450  0.92540  Biso   1.000  H
  N47      1.0000 0.20800  0.94630  0.89380  Biso   1.000  N
  N48      1.0000 0.20800  0.44630  0.39380  Biso   1.000  N
  N49      1.0000 0.79200  0.55370  0.39380  Biso   1.000  N
  N50      1.0000 0.70800  0.94630  0.39380  Biso   1.000  N
  N51      1.0000 0.29200  0.05370  0.39380  Biso   1.000  N
  N52      1.0000 0.29200  0.55370  0.89380  Biso   1.000  N
  N53      1.0000 0.32670  0.94850  0.84650  Biso   1.000  N
  N54      1.0000 0.32670  0.44850  0.34650  Biso   1.000  N
  N55      1.0000 0.67330  0.55150  0.34650  Biso   1.000  N
  N56      1.0000 0.82670  0.94850  0.34650  Biso   1.000  N
  N57      1.0000 0.17330  0.05150  0.34650  Biso   1.000  N
  N58      1.0000 0.17330  0.55150  0.84650  Biso   1.000  N
  N59      1.0000 0.39460  0.92150  0.80090  Biso   1.000  N
  N60      1.0000 0.39460  0.42150  0.30090  Biso   1.000  N
  N61      1.0000 0.60540  0.57850  0.30090  Biso   1.000  N
  N62      1.0000 0.89460  0.92150  0.30090  Biso   1.000  N
  N63      1.0000 0.10540  0.07850  0.30090  Biso   1.000  N
  N64      1.0000 0.10540  0.57850  0.80090  Biso   1.000  N
  H57      1.0000 0.42620  0.92530  0.90820  Biso   1.000  H
  H58      1.0000 0.42620  0.42530  0.40820  Biso   1.000  H
  H59      1.0000 0.57380  0.57470  0.40820  Biso   1.000  H
  H60      1.0000 0.92620  0.92530  0.40820  Biso   1.000  H
  H61      1.0000 0.07380  0.07470  0.40820  Biso   1.000  H
  H62      1.0000 0.07380  0.57470  0.90820  Biso   1.000  H
  H63      1.0000 0.41490  0.93700  0.68470  Biso   1.000  H
  H64      1.0000 0.41490  0.43700  0.18470  Biso   1.000  H
  H65      1.0000 0.58510  0.56300  0.18470  Biso   1.000  H
  H66      1.0000 0.91490  0.93700  0.18470  Biso   1.000  H
  H67      1.0000 0.08510  0.06300  0.18470  Biso   1.000  H
  H68      1.0000 0.08510  0.56300  0.68470  Biso   1.000  H
  C21      1.0000 0.26590  0.91300  0.86530  Biso   1.000  C
  C22      1.0000 0.26590  0.41300  0.36530  Biso   1.000  C
  C23      1.0000 0.73410  0.58700  0.36530  Biso   1.000  C
  C24      1.0000 0.76590  0.91300  0.36530  Biso   1.000  C
  C25      1.0000 0.23410  0.08700  0.36530  Biso   1.000  C
  C26      1.0000 0.23410  0.58700  0.86530  Biso   1.000  C
  C27      1.0000 0.30690  0.00750  0.85640  Biso   1.000  C
  C28      1.0000 0.30690  0.50750  0.35640  Biso   1.000  C
  C29      1.0000 0.69310  0.49250  0.35640  Biso   1.000  C
  C30      1.0000 0.80690  0.00750  0.35640  Biso   1.000  C
  C31      1.0000 0.19310  0.99250  0.35640  Biso   1.000  C
  C32      1.0000 0.19310  0.49250  0.85640  Biso   1.000  C
  Cu11     1.0000 0.36386  0.83108  0.75468  Biso   1.000  Cu
  Cu12     1.0000 0.36386  0.33108  0.25468  Biso   1.000  Cu
  Cu13     1.0000 0.63614  0.66892  0.25468  Biso   1.000  Cu
  Cu14     1.0000 0.86386  0.83108  0.25468  Biso   1.000  Cu
  Cu15     1.0000 0.13614  0.16892  0.25468  Biso   1.000  Cu
  Cu16     1.0000 0.13614  0.66892  0.75468  Biso   1.000  Cu
  O63      1.0000 0.31580  0.75598  0.66710  Biso   1.000  O
  O64      1.0000 0.31580  0.25598  0.16710  Biso   1.000  O
  O65      1.0000 0.68420  0.74402  0.16710  Biso   1.000  O
  O66      1.0000 0.81580  0.75598  0.16710  Biso   1.000  O
  O67      1.0000 0.18420  0.24402  0.16710  Biso   1.000  O
  O68      1.0000 0.18420  0.74402  0.66710  Biso   1.000  O
