data_image0
_cell_length_a       20.666
_cell_length_b       9.905
_cell_length_c       6.685
_cell_angle_alpha    90
_cell_angle_beta     91.91
_cell_angle_gamma    90

_symmetry_space_group_name_H-M    "P 1"
_symmetry_int_tables_number       1

loop_
  _symmetry_equiv_pos_as_xyz
  'x, y, z'

loop_
  _atom_site_label
  _atom_site_occupancy
  _atom_site_fract_x
  _atom_site_fract_y
  _atom_site_fract_z
  _atom_site_thermal_displace_type
  _atom_site_B_iso_or_equiv
  _atom_site_type_symbol
  Cu1      1.0000 0.00000  0.00000  0.00000  Biso   1.000  Cu
  Cu2      1.0000 0.50000  0.50000  0.00000  Biso   1.000  Cu
  Cu3      1.0000 0.27883  0.70419  0.67335  Biso   1.000  Cu
  Cu4      1.0000 0.77883  0.79581  0.67335  Biso   1.000  Cu
  Cu5      1.0000 0.72117  0.29581  0.32665  Biso   1.000  Cu
  Cu6      1.0000 0.22117  0.20419  0.32665  Biso   1.000  Cu
  O1       1.0000 0.07324  0.08960  0.14100  Biso   1.000  O
  O2       1.0000 0.57324  0.41040  0.14100  Biso   1.000  O
  O3       1.0000 0.92676  0.91040  0.85900  Biso   1.000  O
  O4       1.0000 0.42676  0.58960  0.85900  Biso   1.000  O
  O5       1.0000 0.20267  0.74420  0.92240  Biso   1.000  O
  O6       1.0000 0.70267  0.75580  0.92240  Biso   1.000  O
  O7       1.0000 0.79733  0.25580  0.07760  Biso   1.000  O
  O8       1.0000 0.29733  0.24420  0.07760  Biso   1.000  O
  N1       1.0000 0.22190  0.94780  0.09300  Biso   1.000  N
  N2       1.0000 0.72190  0.55220  0.09300  Biso   1.000  N
  N3       1.0000 0.77810  0.05220  0.90700  Biso   1.000  N
  N4       1.0000 0.27810  0.44780  0.90700  Biso   1.000  N
  H1       1.0000 0.26350  0.94510  0.10430  Biso   1.000  H
  H2       1.0000 0.76350  0.55490  0.10430  Biso   1.000  H
  H3       1.0000 0.73650  0.05490  0.89570  Biso   1.000  H
  H4       1.0000 0.23650  0.44510  0.89570  Biso   1.000  H
  N5       1.0000 0.18480  0.05360  0.16760  Biso   1.000  N
  N6       1.0000 0.68480  0.44640  0.16760  Biso   1.000  N
  N7       1.0000 0.81520  0.94640  0.83240  Biso   1.000  N
  N8       1.0000 0.31520  0.55360  0.83240  Biso   1.000  N
  N9       1.0000 0.12390  0.90000  0.01940  Biso   1.000  N
  N10      1.0000 0.62390  0.60000  0.01940  Biso   1.000  N
  N11      1.0000 0.87610  0.10000  0.98060  Biso   1.000  N
  N12      1.0000 0.37610  0.40000  0.98060  Biso   1.000  N
  N13      1.0000 0.06430  0.84740  0.94610  Biso   1.000  N
  N14      1.0000 0.56430  0.65260  0.94610  Biso   1.000  N
  N15      1.0000 0.93570  0.15260  0.05390  Biso   1.000  N
  N16      1.0000 0.43570  0.34740  0.05390  Biso   1.000  N
  H5       1.0000 0.05380  0.77170  0.01200  Biso   1.000  H
  H6       1.0000 0.55380  0.72830  0.01200  Biso   1.000  H
  H7       1.0000 0.94620  0.22830  0.98800  Biso   1.000  H
  H8       1.0000 0.44620  0.27170  0.98800  Biso   1.000  H
  H9       1.0000 0.06550  0.82910  0.81450  Biso   1.000  H
  H10      1.0000 0.56550  0.67090  0.81450  Biso   1.000  H
  H11      1.0000 0.93450  0.17090  0.18550  Biso   1.000  H
  H12      1.0000 0.43450  0.32910  0.18550  Biso   1.000  H
  C1       1.0000 0.12440  0.02260  0.11400  Biso   1.000  C
  C2       1.0000 0.62440  0.47740  0.11400  Biso   1.000  C
  C3       1.0000 0.87560  0.97740  0.88600  Biso   1.000  C
  C4       1.0000 0.37560  0.52260  0.88600  Biso   1.000  C
  C5       1.0000 0.18620  0.85100  0.00200  Biso   1.000  C
  C6       1.0000 0.68620  0.64900  0.00200  Biso   1.000  C
  C7       1.0000 0.81380  0.14900  0.99800  Biso   1.000  C
  C8       1.0000 0.31380  0.35100  0.99800  Biso   1.000  C
  O9       1.0000 0.24605  0.86930  0.53560  Biso   1.000  O
  O10      1.0000 0.74605  0.63070  0.53560  Biso   1.000  O
  O11      1.0000 0.75395  0.13070  0.46440  Biso   1.000  O
  O12      1.0000 0.25395  0.36930  0.46440  Biso   1.000  O
  O13      1.0000 0.42389  0.09680  0.78790  Biso   1.000  O
  O14      1.0000 0.92389  0.40320  0.78790  Biso   1.000  O
  O15      1.0000 0.57611  0.90320  0.21210  Biso   1.000  O
  O16      1.0000 0.07611  0.59680  0.21210  Biso   1.000  O
  N17      1.0000 0.33410  0.15900  0.59010  Biso   1.000  N
  N18      1.0000 0.83410  0.34100  0.59010  Biso   1.000  N
  N19      1.0000 0.66590  0.84100  0.40990  Biso   1.000  N
  N20      1.0000 0.16590  0.65900  0.40990  Biso   1.000  N
  H13      1.0000 0.34250  0.24320  0.57440  Biso   1.000  H
  H14      1.0000 0.84250  0.25680  0.57440  Biso   1.000  H
  H15      1.0000 0.65750  0.75680  0.42560  Biso   1.000  H
  H16      1.0000 0.15750  0.74320  0.42560  Biso   1.000  H
  N21      1.0000 0.27890  0.09580  0.50390  Biso   1.000  N
  N22      1.0000 0.77890  0.40420  0.50390  Biso   1.000  N
  N23      1.0000 0.72110  0.90420  0.49610  Biso   1.000  N
  N24      1.0000 0.22110  0.59580  0.49610  Biso   1.000  N
  N25      1.0000 0.33810  0.95570  0.68680  Biso   1.000  N
  N26      1.0000 0.83810  0.54430  0.68680  Biso   1.000  N
  N27      1.0000 0.66190  0.04430  0.31320  Biso   1.000  N
  N28      1.0000 0.16190  0.45570  0.31320  Biso   1.000  N
  N29      1.0000 0.35320  0.82880  0.77030  Biso   1.000  N
  N30      1.0000 0.85320  0.67120  0.77030  Biso   1.000  N
  N31      1.0000 0.64680  0.17120  0.22970  Biso   1.000  N
  N32      1.0000 0.14680  0.32880  0.22970  Biso   1.000  N
  H17      1.0000 0.35530  0.83330  0.90480  Biso   1.000  H
  H18      1.0000 0.85530  0.66670  0.90480  Biso   1.000  H
  H19      1.0000 0.64470  0.16670  0.09520  Biso   1.000  H
  H20      1.0000 0.14470  0.33330  0.09520  Biso   1.000  H
  H21      1.0000 0.39140  0.79870  0.72720  Biso   1.000  H
  H22      1.0000 0.89140  0.70130  0.72720  Biso   1.000  H
  H23      1.0000 0.60860  0.20130  0.27280  Biso   1.000  H
  H24      1.0000 0.10860  0.29870  0.27280  Biso   1.000  H
  C9       1.0000 0.28240  0.96880  0.56860  Biso   1.000  C
  C10      1.0000 0.78240  0.53120  0.56860  Biso   1.000  C
  C11      1.0000 0.71760  0.03120  0.43140  Biso   1.000  C
  C12      1.0000 0.21760  0.46880  0.43140  Biso   1.000  C
  C13      1.0000 0.37200  0.07590  0.69860  Biso   1.000  C
  C14      1.0000 0.87200  0.42410  0.69860  Biso   1.000  C
  C15      1.0000 0.62800  0.92410  0.30140  Biso   1.000  C
  C16      1.0000 0.12800  0.57590  0.30140  Biso   1.000  C
  O17      1.0000 0.02000  0.10610  0.68280  Biso   1.000  O
  O18      1.0000 0.52000  0.39390  0.68280  Biso   1.000  O
  O19      1.0000 0.98000  0.89390  0.31720  Biso   1.000  O
  O20      1.0000 0.48000  0.60610  0.31720  Biso   1.000  O
  O21      1.0000 0.04900  0.28600  0.52930  Biso   1.000  O
  O22      1.0000 0.54900  0.21400  0.52930  Biso   1.000  O
  O23      1.0000 0.95100  0.71400  0.47070  Biso   1.000  O
  O24      1.0000 0.45100  0.78600  0.47070  Biso   1.000  O
  O25      1.0000 0.12180  0.14740  0.63980  Biso   1.000  O
  O26      1.0000 0.62180  0.35260  0.63980  Biso   1.000  O
  O27      1.0000 0.87820  0.85260  0.36020  Biso   1.000  O
  O28      1.0000 0.37820  0.64740  0.36020  Biso   1.000  O
  N33      1.0000 0.06280  0.18030  0.61810  Biso   1.000  N
  N34      1.0000 0.56280  0.31970  0.61810  Biso   1.000  N
  N35      1.0000 0.93720  0.81970  0.38190  Biso   1.000  N
  N36      1.0000 0.43720  0.68030  0.38190  Biso   1.000  N
  O29      1.0000 0.09740  0.87220  0.53400  Biso   1.000  O
  O30      1.0000 0.59740  0.62780  0.53400  Biso   1.000  O
  O31      1.0000 0.90260  0.12780  0.46600  Biso   1.000  O
  O32      1.0000 0.40260  0.37220  0.46600  Biso   1.000  O
  O33      1.0000 0.14500  0.41790  0.83020  Biso   1.000  O
  O34      1.0000 0.64500  0.08210  0.83020  Biso   1.000  O
  O35      1.0000 0.85500  0.58210  0.16980  Biso   1.000  O
  O36      1.0000 0.35500  0.91790  0.16980  Biso   1.000  O
  O37      1.0000 0.96480  0.42490  0.25560  Biso   1.000  O
  O38      1.0000 0.46480  0.07510  0.25560  Biso   1.000  O
  O39      1.0000 0.03520  0.57510  0.74440  Biso   1.000  O
  O40      1.0000 0.53520  0.92490  0.74440  Biso   1.000  O
  H25      1.0000 0.06400  0.88200  0.46400  Biso   1.000  H
  H26      1.0000 0.56400  0.61800  0.46400  Biso   1.000  H
  H27      1.0000 0.93600  0.11800  0.53600  Biso   1.000  H
  H28      1.0000 0.43600  0.38200  0.53600  Biso   1.000  H
  H29      1.0000 0.10600  0.94800  0.57700  Biso   1.000  H
  H30      1.0000 0.60600  0.55200  0.57700  Biso   1.000  H
  H31      1.0000 0.89400  0.05200  0.42300  Biso   1.000  H
  H32      1.0000 0.39400  0.44800  0.42300  Biso   1.000  H
  H33      1.0000 0.12100  0.48100  0.80800  Biso   1.000  H
  H34      1.0000 0.62100  0.01900  0.80800  Biso   1.000  H
  H35      1.0000 0.87900  0.51900  0.19200  Biso   1.000  H
  H36      1.0000 0.37900  0.98100  0.19200  Biso   1.000  H
  H37      1.0000 0.13900  0.36400  0.74200  Biso   1.000  H
  H38      1.0000 0.63900  0.13600  0.74200  Biso   1.000  H
  H39      1.0000 0.86100  0.63600  0.25800  Biso   1.000  H
  H40      1.0000 0.36100  0.86400  0.25800  Biso   1.000  H
  H41      1.0000 0.98100  0.37900  0.35000  Biso   1.000  H
  H42      1.0000 0.48100  0.12100  0.35000  Biso   1.000  H
  H43      1.0000 0.01900  0.62100  0.65000  Biso   1.000  H
  H44      1.0000 0.51900  0.87900  0.65000  Biso   1.000  H
  H45      1.0000 0.99400  0.47600  0.22800  Biso   1.000  H
  H46      1.0000 0.49400  0.02400  0.22800  Biso   1.000  H
  H47      1.0000 0.00600  0.52400  0.77200  Biso   1.000  H
  H48      1.0000 0.50600  0.97600  0.77200  Biso   1.000  H
