data_image0
_cell_length_a       10.4491
_cell_length_b       9.8855
_cell_length_c       19.2465
_cell_angle_alpha    90
_cell_angle_beta     104.145
_cell_angle_gamma    90

_symmetry_space_group_name_H-M    "P 1"
_symmetry_int_tables_number       1

loop_
  _symmetry_equiv_pos_as_xyz
  'x, y, z'

loop_
  _atom_site_label
  _atom_site_occupancy
  _atom_site_fract_x
  _atom_site_fract_y
  _atom_site_fract_z
  _atom_site_thermal_displace_type
  _atom_site_B_iso_or_equiv
  _atom_site_type_symbol
  Eu1      1.0000 0.70930  0.97651  0.65327  Biso   1.000  Eu
  Eu2      1.0000 0.79070  0.47651  0.84673  Biso   1.000  Eu
  Eu3      1.0000 0.29070  0.02349  0.34673  Biso   1.000  Eu
  Eu4      1.0000 0.20930  0.52349  0.15327  Biso   1.000  Eu
  Cu1      1.0000 0.00000  0.00000  0.50000  Biso   1.000  Cu
  Cu2      1.0000 0.50000  0.50000  0.00000  Biso   1.000  Cu
  O1       1.0000 0.46520  0.91620  0.61324  Biso   1.000  O
  O2       1.0000 0.03480  0.41620  0.88676  Biso   1.000  O
  O3       1.0000 0.53480  0.08380  0.38676  Biso   1.000  O
  O4       1.0000 0.96520  0.58380  0.11324  Biso   1.000  O
  O5       1.0000 0.91770  0.93090  0.60582  Biso   1.000  O
  O6       1.0000 0.58230  0.43090  0.89418  Biso   1.000  O
  O7       1.0000 0.08230  0.06910  0.39418  Biso   1.000  O
  O8       1.0000 0.41770  0.56910  0.10582  Biso   1.000  O
  N1       1.0000 0.10910  0.83230  0.51702  Biso   1.000  N
  N2       1.0000 0.39090  0.33230  0.98298  Biso   1.000  N
  N3       1.0000 0.89090  0.16770  0.48298  Biso   1.000  N
  N4       1.0000 0.60910  0.66770  0.01702  Biso   1.000  N
  N5       1.0000 0.17490  0.21330  0.58082  Biso   1.000  N
  N6       1.0000 0.32510  0.71330  0.91918  Biso   1.000  N
  N7       1.0000 0.82510  0.78670  0.41918  Biso   1.000  N
  N8       1.0000 0.67490  0.28670  0.08082  Biso   1.000  N
  O9       1.0000 0.89370  0.83400  0.70403  Biso   1.000  O
  O10      1.0000 0.60630  0.33400  0.79597  Biso   1.000  O
  O11      1.0000 0.10630  0.16600  0.29597  Biso   1.000  O
  O12      1.0000 0.39370  0.66600  0.20403  Biso   1.000  O
  O13      1.0000 0.57400  0.15210  0.68661  Biso   1.000  O
  O14      1.0000 0.92600  0.65210  0.81339  Biso   1.000  O
  O15      1.0000 0.42600  0.84790  0.31339  Biso   1.000  O
  O16      1.0000 0.07400  0.34790  0.18661  Biso   1.000  O
  H1       1.0000 0.49330  0.13600  0.66730  Biso   1.000  H
  H2       1.0000 0.00670  0.63600  0.83270  Biso   1.000  H
  H3       1.0000 0.50670  0.86400  0.33270  Biso   1.000  H
  H4       1.0000 0.99330  0.36400  0.16730  Biso   1.000  H
  H5       1.0000 0.58600  0.15310  0.73190  Biso   1.000  H
  H6       1.0000 0.91400  0.65310  0.76810  Biso   1.000  H
  H7       1.0000 0.41400  0.84690  0.26810  Biso   1.000  H
  H8       1.0000 0.08600  0.34690  0.23190  Biso   1.000  H
  O17      1.0000 0.63040  0.08600  0.53920  Biso   1.000  O
  O18      1.0000 0.86960  0.58600  0.96080  Biso   1.000  O
  O19      1.0000 0.36960  0.91400  0.46080  Biso   1.000  O
  O20      1.0000 0.13040  0.41400  0.03920  Biso   1.000  O
  H9       1.0000 0.68280  0.14970  0.53540  Biso   1.000  H
  H10      1.0000 0.81720  0.64970  0.96460  Biso   1.000  H
  H11      1.0000 0.31720  0.85030  0.46460  Biso   1.000  H
  H12      1.0000 0.18280  0.35030  0.03540  Biso   1.000  H
  H13      1.0000 0.62710  0.02890  0.50580  Biso   1.000  H
  H14      1.0000 0.87290  0.52890  0.99420  Biso   1.000  H
  H15      1.0000 0.37290  0.97110  0.49420  Biso   1.000  H
  H16      1.0000 0.12710  0.47110  0.00580  Biso   1.000  H
  O21      1.0000 0.58070  0.83550  0.71558  Biso   1.000  O
  O22      1.0000 0.91930  0.33550  0.78442  Biso   1.000  O
  O23      1.0000 0.41930  0.16450  0.28442  Biso   1.000  O
  O24      1.0000 0.08070  0.66450  0.21558  Biso   1.000  O
  N9       1.0000 0.14200  0.08220  0.57513  Biso   1.000  N
  N10      1.0000 0.35800  0.58220  0.92487  Biso   1.000  N
  N11      1.0000 0.85800  0.91780  0.42487  Biso   1.000  N
  N12      1.0000 0.64200  0.41780  0.07513  Biso   1.000  N
  C1       1.0000 0.21330  0.87110  0.64767  Biso   1.000  C
  C2       1.0000 0.28670  0.37110  0.85233  Biso   1.000  C
  C3       1.0000 0.78670  0.12890  0.35233  Biso   1.000  C
  C4       1.0000 0.71330  0.62890  0.14767  Biso   1.000  C
  O25      1.0000 0.80030  0.02640  0.78505  Biso   1.000  O
  O26      1.0000 0.69970  0.52640  0.71495  Biso   1.000  O
  O27      1.0000 0.19970  0.97360  0.21495  Biso   1.000  O
  O28      1.0000 0.30030  0.47360  0.28505  Biso   1.000  O
  H17      1.0000 0.82420  0.95250  0.80700  Biso   1.000  H
  H18      1.0000 0.67580  0.45250  0.69300  Biso   1.000  H
  H19      1.0000 0.17580  0.04750  0.19300  Biso   1.000  H
  H20      1.0000 0.32420  0.54750  0.30700  Biso   1.000  H
  H21      1.0000 0.86660  0.07860  0.79010  Biso   1.000  H
  H22      1.0000 0.63340  0.57860  0.70990  Biso   1.000  H
  H23      1.0000 0.13340  0.92140  0.20990  Biso   1.000  H
  H24      1.0000 0.36660  0.42140  0.29010  Biso   1.000  H
  N13      1.0000 0.19630  0.64070  0.50125  Biso   1.000  N
  N14      1.0000 0.30370  0.14070  0.99875  Biso   1.000  N
  N15      1.0000 0.80370  0.35930  0.49875  Biso   1.000  N
  N16      1.0000 0.69630  0.85930  0.00125  Biso   1.000  N
  N17      1.0000 0.24560  0.67430  0.57129  Biso   1.000  N
  N18      1.0000 0.25440  0.17430  0.92871  Biso   1.000  N
  N19      1.0000 0.75440  0.32570  0.42871  Biso   1.000  N
  N20      1.0000 0.74560  0.82570  0.07129  Biso   1.000  N
  O29      1.0000 0.84480  0.17830  0.66488  Biso   1.000  O
  O30      1.0000 0.65520  0.67830  0.83512  Biso   1.000  O
  O31      1.0000 0.15520  0.82170  0.33512  Biso   1.000  O
  O32      1.0000 0.34480  0.32170  0.16488  Biso   1.000  O
  H25      1.0000 0.90330  0.17440  0.70420  Biso   1.000  H
  H26      1.0000 0.59670  0.67440  0.79580  Biso   1.000  H
  H27      1.0000 0.09670  0.82560  0.29580  Biso   1.000  H
  H28      1.0000 0.40330  0.32560  0.20420  Biso   1.000  H
  H29      1.0000 0.88200  0.18250  0.63030  Biso   1.000  H
  H30      1.0000 0.61800  0.68250  0.86970  Biso   1.000  H
  H31      1.0000 0.11800  0.81750  0.36970  Biso   1.000  H
  H32      1.0000 0.38200  0.31750  0.13030  Biso   1.000  H
  C5       1.0000 0.21540  0.02130  0.63250  Biso   1.000  C
  C6       1.0000 0.28460  0.52130  0.86750  Biso   1.000  C
  C7       1.0000 0.78460  0.97870  0.36750  Biso   1.000  C
  C8       1.0000 0.71540  0.47870  0.13250  Biso   1.000  C
  N21      1.0000 0.29300  0.10950  0.67481  Biso   1.000  N
  N22      1.0000 0.20700  0.60950  0.82519  Biso   1.000  N
  N23      1.0000 0.70700  0.89050  0.32519  Biso   1.000  N
  N24      1.0000 0.79300  0.39050  0.17481  Biso   1.000  N
  C9       1.0000 0.18940  0.79210  0.57897  Biso   1.000  C
  C10      1.0000 0.31060  0.29210  0.92103  Biso   1.000  C
  C11      1.0000 0.81060  0.20790  0.42103  Biso   1.000  C
  C12      1.0000 0.68940  0.70790  0.07897  Biso   1.000  C
  C13      1.0000 0.46950  0.86060  0.67197  Biso   1.000  C
  C14      1.0000 0.03050  0.36060  0.82803  Biso   1.000  C
  C15      1.0000 0.53050  0.13940  0.32803  Biso   1.000  C
  C16      1.0000 0.96950  0.63940  0.17197  Biso   1.000  C
  N25      1.0000 0.11580  0.73480  0.46865  Biso   1.000  N
  N26      1.0000 0.38420  0.23480  0.03135  Biso   1.000  N
  N27      1.0000 0.88420  0.26520  0.53135  Biso   1.000  N
  N28      1.0000 0.61580  0.76520  0.96865  Biso   1.000  N
  N29      1.0000 0.26600  0.23070  0.63999  Biso   1.000  N
  N30      1.0000 0.23400  0.73070  0.86001  Biso   1.000  N
  N31      1.0000 0.73400  0.76930  0.36001  Biso   1.000  N
  N32      1.0000 0.76600  0.26930  0.13999  Biso   1.000  N
  O33      1.0000 0.67670  0.77160  0.58140  Biso   1.000  O
  O34      1.0000 0.82330  0.27160  0.91860  Biso   1.000  O
  O35      1.0000 0.32330  0.22840  0.41860  Biso   1.000  O
  O36      1.0000 0.17670  0.72840  0.08140  Biso   1.000  O
  H33      1.0000 0.71630  0.77880  0.54790  Biso   1.000  H
  H34      1.0000 0.78370  0.27880  0.95210  Biso   1.000  H
  H35      1.0000 0.28370  0.22120  0.45210  Biso   1.000  H
  H36      1.0000 0.21630  0.72120  0.04790  Biso   1.000  H
  H37      1.0000 0.70770  0.70450  0.60780  Biso   1.000  H
  H38      1.0000 0.79230  0.20450  0.89220  Biso   1.000  H
  H39      1.0000 0.29230  0.29550  0.39220  Biso   1.000  H
  H40      1.0000 0.20770  0.79550  0.10780  Biso   1.000  H
  C17      1.0000 0.96670  0.86780  0.66258  Biso   1.000  C
  C18      1.0000 0.53330  0.36780  0.83742  Biso   1.000  C
  C19      1.0000 0.03330  0.13220  0.33742  Biso   1.000  C
  C20      1.0000 0.46670  0.63220  0.16258  Biso   1.000  C
  C21      1.0000 0.34830  0.82750  0.69756  Biso   1.000  C
  C22      1.0000 0.15170  0.32750  0.80244  Biso   1.000  C
  C23      1.0000 0.65170  0.17250  0.30244  Biso   1.000  C
  C24      1.0000 0.84830  0.67250  0.19756  Biso   1.000  C
  H41      1.0000 0.35680  0.86990  0.74390  Biso   1.000  H
  H42      1.0000 0.14320  0.36990  0.75610  Biso   1.000  H
  H43      1.0000 0.64320  0.13010  0.25610  Biso   1.000  H
  H44      1.0000 0.85680  0.63010  0.24390  Biso   1.000  H
  H45      1.0000 0.34620  0.73040  0.70470  Biso   1.000  H
  H46      1.0000 0.15380  0.23040  0.79530  Biso   1.000  H
  H47      1.0000 0.65380  0.26960  0.29530  Biso   1.000  H
  H48      1.0000 0.84620  0.76960  0.20470  Biso   1.000  H
  C25      1.0000 0.11050  0.83320  0.68995  Biso   1.000  C
  C26      1.0000 0.38950  0.33320  0.81005  Biso   1.000  C
  C27      1.0000 0.88950  0.16680  0.31005  Biso   1.000  C
  C28      1.0000 0.61050  0.66680  0.18995  Biso   1.000  C
  H49      1.0000 0.11570  0.73590  0.69690  Biso   1.000  H
  H50      1.0000 0.38430  0.23590  0.80310  Biso   1.000  H
  H51      1.0000 0.88430  0.26410  0.30310  Biso   1.000  H
  H52      1.0000 0.61570  0.76410  0.19690  Biso   1.000  H
  H53      1.0000 0.13960  0.87390  0.73700  Biso   1.000  H
  H54      1.0000 0.36040  0.37390  0.76300  Biso   1.000  H
  H55      1.0000 0.86040  0.12610  0.26300  Biso   1.000  H
  H56      1.0000 0.63960  0.62610  0.23700  Biso   1.000  H
  O37      1.0000 0.43110  0.46740  0.63308  Biso   1.000  O
  O38      1.0000 0.06890  0.96740  0.86692  Biso   1.000  O
  O39      1.0000 0.56890  0.53260  0.36692  Biso   1.000  O
  O40      1.0000 0.93110  0.03260  0.13308  Biso   1.000  O
  H57      1.0000 0.43630  0.44580  0.59110  Biso   1.000  H
  H58      1.0000 0.06370  0.94580  0.90890  Biso   1.000  H
  H59      1.0000 0.56370  0.55420  0.40890  Biso   1.000  H
  H60      1.0000 0.93630  0.05420  0.09110  Biso   1.000  H
  H61      1.0000 0.39210  0.40990  0.65360  Biso   1.000  H
  H62      1.0000 0.10790  0.90990  0.84640  Biso   1.000  H
  H63      1.0000 0.60790  0.59010  0.34640  Biso   1.000  H
  H64      1.0000 0.89210  0.09010  0.15360  Biso   1.000  H
  O41      1.0000 0.53140  0.34520  0.52660  Biso   1.000  O
  O42      1.0000 0.96860  0.84520  0.97340  Biso   1.000  O
  O43      1.0000 0.46860  0.65480  0.47340  Biso   1.000  O
  O44      1.0000 0.03140  0.15480  0.02660  Biso   1.000  O
  H65      1.0000 0.48940  0.27090  0.52350  Biso   1.000  H
  H66      1.0000 0.01060  0.77090  0.97650  Biso   1.000  H
  H67      1.0000 0.51060  0.72910  0.47650  Biso   1.000  H
  H68      1.0000 0.98940  0.22910  0.02350  Biso   1.000  H
  H69      1.0000 0.57000  0.35050  0.49260  Biso   1.000  H
  H70      1.0000 0.93000  0.85050  0.00740  Biso   1.000  H
  H71      1.0000 0.43000  0.64950  0.50740  Biso   1.000  H
  H72      1.0000 0.07000  0.14950  0.99260  Biso   1.000  H
  O45      1.0000 0.87470  0.62940  0.55063  Biso   1.000  O
  O46      1.0000 0.62530  0.12940  0.94937  Biso   1.000  O
  O47      1.0000 0.12530  0.37060  0.44937  Biso   1.000  O
  O48      1.0000 0.37470  0.87060  0.05063  Biso   1.000  O
  H73      1.0000 0.93010  0.69360  0.55440  Biso   1.000  H
  H74      1.0000 0.56990  0.19360  0.94560  Biso   1.000  H
  H75      1.0000 0.06990  0.30640  0.44560  Biso   1.000  H
  H76      1.0000 0.43010  0.80640  0.05440  Biso   1.000  H
  H77      1.0000 0.87610  0.58200  0.51400  Biso   1.000  H
  H78      1.0000 0.62390  0.08200  0.98600  Biso   1.000  H
  H79      1.0000 0.12390  0.41800  0.48600  Biso   1.000  H
  H80      1.0000 0.37610  0.91800  0.01400  Biso   1.000  H
