data_image0
_cell_length_a       9.674
_cell_length_b       10.558
_cell_length_c       10.644
_cell_angle_alpha    84.42
_cell_angle_beta     62.98
_cell_angle_gamma    63.864

_symmetry_space_group_name_H-M    "P 1"
_symmetry_int_tables_number       1

loop_
  _symmetry_equiv_pos_as_xyz
  'x, y, z'

loop_
  _atom_site_label
  _atom_site_occupancy
  _atom_site_fract_x
  _atom_site_fract_y
  _atom_site_fract_z
  _atom_site_thermal_displace_type
  _atom_site_B_iso_or_equiv
  _atom_site_type_symbol
  C1       1.0000 0.58240  0.75840  0.08850  Biso   1.000  C
  C2       1.0000 0.41760  0.24160  0.91150  Biso   1.000  C
  C3       1.0000 0.64950  0.60830  0.11810  Biso   1.000  C
  C4       1.0000 0.35050  0.39170  0.88190  Biso   1.000  C
  C5       1.0000 0.56930  0.52490  0.12150  Biso   1.000  C
  C6       1.0000 0.43070  0.47510  0.87850  Biso   1.000  C
  H1       1.0000 0.46840  0.56510  0.10820  Biso   1.000  H
  H2       1.0000 0.53160  0.43490  0.89180  Biso   1.000  H
  C7       1.0000 0.63680  0.38320  0.14420  Biso   1.000  C
  C8       1.0000 0.36320  0.61680  0.85580  Biso   1.000  C
  H3       1.0000 0.58230  0.32650  0.14640  Biso   1.000  H
  H4       1.0000 0.41770  0.67350  0.85360  Biso   1.000  H
  C9       1.0000 0.78560  0.32470  0.16380  Biso   1.000  C
  C10      1.0000 0.21440  0.67530  0.83620  Biso   1.000  C
  H5       1.0000 0.83280  0.22770  0.17830  Biso   1.000  H
  H6       1.0000 0.16720  0.77230  0.82170  Biso   1.000  H
  C11      1.0000 0.86250  0.40550  0.16210  Biso   1.000  C
  C12      1.0000 0.13750  0.59450  0.83790  Biso   1.000  C
  H7       1.0000 0.96230  0.36500  0.17700  Biso   1.000  H
  H8       1.0000 0.03770  0.63500  0.82300  Biso   1.000  H
  C13      1.0000 0.79700  0.54810  0.13880  Biso   1.000  C
  C14      1.0000 0.20300  0.45190  0.86120  Biso   1.000  C
  H9       1.0000 0.85270  0.60360  0.13710  Biso   1.000  H
  H10      1.0000 0.14730  0.39640  0.86290  Biso   1.000  H
  C15      1.0000 0.70760  0.86630  0.74870  Biso   1.000  C
  C16      1.0000 0.29240  0.13370  0.25130  Biso   1.000  C
  C17      1.0000 0.83480  0.78620  0.60500  Biso   1.000  C
  C18      1.0000 0.16520  0.21380  0.39500  Biso   1.000  C
  C19      1.0000 0.79640  0.70320  0.54410  Biso   1.000  C
  C20      1.0000 0.20360  0.29680  0.45590  Biso   1.000  C
  H11      1.0000 0.69040  0.69640  0.59530  Biso   1.000  H
  H12      1.0000 0.30960  0.30360  0.40470  Biso   1.000  H
  C21      1.0000 0.91520  0.62990  0.40700  Biso   1.000  C
  C22      1.0000 0.08480  0.37010  0.59300  Biso   1.000  C
  H13      1.0000 0.88960  0.57310  0.36520  Biso   1.000  H
  H14      1.0000 0.11040  0.42690  0.63480  Biso   1.000  H
  C23      1.0000 0.06730  0.63960  0.33310  Biso   1.000  C
  C24      1.0000 0.93270  0.36040  0.66690  Biso   1.000  C
  H15      1.0000 0.14670  0.58950  0.24010  Biso   1.000  H
  H16      1.0000 0.85330  0.41050  0.75990  Biso   1.000  H
  C25      1.0000 0.10730  0.72140  0.39200  Biso   1.000  C
  C26      1.0000 0.89270  0.27860  0.60800  Biso   1.000  C
  H17      1.0000 0.21310  0.72830  0.34000  Biso   1.000  H
  H18      1.0000 0.78690  0.27170  0.66000  Biso   1.000  H
  C27      1.0000 0.99070  0.79350  0.52840  Biso   1.000  C
  C28      1.0000 0.00930  0.20650  0.47160  Biso   1.000  C
  H19      1.0000 0.01830  0.84870  0.56990  Biso   1.000  H
  H20      1.0000 0.98170  0.15130  0.43010  Biso   1.000  H
  C29      1.0000 0.09620  0.05040  0.89640  Biso   1.000  C
  C30      1.0000 0.90380  0.94960  0.10360  Biso   1.000  C
  H21      1.0000 0.16250  0.08780  0.82130  Biso   1.000  H
  H22      1.0000 0.83750  0.91220  0.17870  Biso   1.000  H
  C31      1.0000 0.94500  0.06090  0.90440  Biso   1.000  C
  C32      1.0000 0.05500  0.93910  0.09560  Biso   1.000  C
  H23      1.0000 0.91010  0.10440  0.83450  Biso   1.000  H
  H24      1.0000 0.08990  0.89560  0.16550  Biso   1.000  H
  C33      1.0000 0.59400  0.29320  0.48620  Biso   1.000  C
  C34      1.0000 0.40600  0.70680  0.51380  Biso   1.000  C
  C35      1.0000 0.51700  0.44660  0.50100  Biso   1.000  C
  C36      1.0000 0.48300  0.55340  0.49900  Biso   1.000  C
  H25      1.0000 0.59010  0.47700  0.41760  Biso   1.000  H
  H26      1.0000 0.40990  0.52300  0.58240  Biso   1.000  H
  H27      1.0000 0.50830  0.48270  0.58690  Biso   1.000  H
  H28      1.0000 0.49170  0.51730  0.41310  Biso   1.000  H
  H29      1.0000 0.40130  0.48420  0.50750  Biso   1.000  H
  H30      1.0000 0.59870  0.51580  0.49250  Biso   1.000  H
  Cu1      1.0000 0.37675  0.98812  0.99188  Biso   1.000  Cu
  Cu2      1.0000 0.62325  0.01188  0.00812  Biso   1.000  Cu
  N1       1.0000 0.15270  0.98900  0.99160  Biso   1.000  N
  N2       1.0000 0.84730  0.01100  0.00840  Biso   1.000  N
  N3       1.0000 0.66400  0.17070  0.46630  Biso   1.000  N
  N4       1.0000 0.33600  0.82930  0.53370  Biso   1.000  N
  O1       1.0000 0.45000  0.80580  0.06650  Biso   1.000  O
  O2       1.0000 0.55000  0.19420  0.93350  Biso   1.000  O
  O3       1.0000 0.66360  0.82690  0.08070  Biso   1.000  O
  O4       1.0000 0.33640  0.17310  0.91930  Biso   1.000  O
  O5       1.0000 0.55300  0.88630  0.80040  Biso   1.000  O
  O6       1.0000 0.44700  0.11370  0.19960  Biso   1.000  O
  O7       1.0000 0.76370  0.91060  0.81330  Biso   1.000  O
  O8       1.0000 0.23630  0.08940  0.18670  Biso   1.000  O
  C37      1.0000 0.58800  0.11910  0.51000  Biso   1.000  C
  C38      1.0000 0.41200  0.88090  0.49000  Biso   1.000  C
  C39      1.0000 0.51300  0.02800  0.51100  Biso   1.000  C
  C40      1.0000 0.48700  0.97200  0.48900  Biso   1.000  C
  H31      1.0000 0.56300  0.94020  0.54740  Biso   1.000  H
  H32      1.0000 0.43700  0.05980  0.45260  Biso   1.000  H
  H33      1.0000 0.53700  0.00610  0.41340  Biso   1.000  H
  H34      1.0000 0.46300  0.99390  0.58660  Biso   1.000  H
  H35      1.0000 0.38720  0.07710  0.57130  Biso   1.000  H
  H36      1.0000 0.61280  0.92290  0.42870  Biso   1.000  H
  N5       1.0000 0.62900  0.20200  0.52400  Biso   1.000  N
  N6       1.0000 0.37100  0.79800  0.47600  Biso   1.000  N
