data_image0
_cell_length_a       10.585
_cell_length_b       19.27
_cell_length_c       9.692
_cell_angle_alpha    90
_cell_angle_beta     113.24
_cell_angle_gamma    90

_symmetry_space_group_name_H-M    "P 1"
_symmetry_int_tables_number       1

loop_
  _symmetry_equiv_pos_as_xyz
  'x, y, z'

loop_
  _atom_site_label
  _atom_site_occupancy
  _atom_site_fract_x
  _atom_site_fract_y
  _atom_site_fract_z
  _atom_site_thermal_displace_type
  _atom_site_B_iso_or_equiv
  _atom_site_type_symbol
  Cu1      1.0000 0.01846  0.49675  0.14083  Biso   1.000  Cu
  Cu2      1.0000 0.48154  0.99675  0.35917  Biso   1.000  Cu
  Cu3      1.0000 0.98154  0.50325  0.85917  Biso   1.000  Cu
  Cu4      1.0000 0.51846  0.00325  0.64083  Biso   1.000  Cu
  O1       1.0000 0.07040  0.39980  0.13500  Biso   1.000  O
  O2       1.0000 0.42960  0.89980  0.36500  Biso   1.000  O
  O3       1.0000 0.92960  0.60020  0.86500  Biso   1.000  O
  O4       1.0000 0.57040  0.10020  0.63500  Biso   1.000  O
  O5       1.0000 0.96430  0.59510  0.10730  Biso   1.000  O
  O6       1.0000 0.53570  0.09510  0.39270  Biso   1.000  O
  O7       1.0000 0.03570  0.40490  0.89270  Biso   1.000  O
  O8       1.0000 0.46430  0.90490  0.60730  Biso   1.000  O
  O9       1.0000 0.20950  0.52320  0.18790  Biso   1.000  O
  O10      1.0000 0.29050  0.02320  0.31210  Biso   1.000  O
  O11      1.0000 0.79050  0.47680  0.81210  Biso   1.000  O
  O12      1.0000 0.70950  0.97680  0.68790  Biso   1.000  O
  O13      1.0000 0.82430  0.46740  0.05400  Biso   1.000  O
  O14      1.0000 0.67570  0.96740  0.44600  Biso   1.000  O
  O15      1.0000 0.17570  0.53260  0.94600  Biso   1.000  O
  O16      1.0000 0.32430  0.03260  0.55400  Biso   1.000  O
  N1       1.0000 0.01800  0.49890  0.36630  Biso   1.000  N
  N2       1.0000 0.48200  0.99890  0.13370  Biso   1.000  N
  N3       1.0000 0.98200  0.50110  0.63370  Biso   1.000  N
  N4       1.0000 0.51800  0.00110  0.86630  Biso   1.000  N
  N5       1.0000 0.07500  0.27920  0.51320  Biso   1.000  N
  N6       1.0000 0.42500  0.77920  0.98680  Biso   1.000  N
  N7       1.0000 0.92500  0.72080  0.48680  Biso   1.000  N
  N8       1.0000 0.57500  0.22080  0.01320  Biso   1.000  N
  C1       1.0000 0.06890  0.37290  0.01620  Biso   1.000  C
  C2       1.0000 0.43110  0.87290  0.48380  Biso   1.000  C
  C3       1.0000 0.93110  0.62710  0.98380  Biso   1.000  C
  C4       1.0000 0.56890  0.12710  0.51620  Biso   1.000  C
  C5       1.0000 0.10550  0.29850  0.01940  Biso   1.000  C
  C6       1.0000 0.39450  0.79850  0.48060  Biso   1.000  C
  C7       1.0000 0.89450  0.70150  0.98060  Biso   1.000  C
  C8       1.0000 0.60550  0.20150  0.51940  Biso   1.000  C
  C9       1.0000 0.16980  0.26390  0.15400  Biso   1.000  C
  C10      1.0000 0.33020  0.76390  0.34600  Biso   1.000  C
  C11      1.0000 0.83020  0.73610  0.84600  Biso   1.000  C
  C12      1.0000 0.66980  0.23610  0.65400  Biso   1.000  C
  C13      1.0000 0.19830  0.19420  0.15710  Biso   1.000  C
  C14      1.0000 0.30170  0.69420  0.34290  Biso   1.000  C
  C15      1.0000 0.80170  0.80580  0.84290  Biso   1.000  C
  C16      1.0000 0.69830  0.30580  0.65710  Biso   1.000  C
  C17      1.0000 0.16180  0.15780  0.02800  Biso   1.000  C
  C18      1.0000 0.33820  0.65780  0.47200  Biso   1.000  C
  C19      1.0000 0.83820  0.84220  0.97200  Biso   1.000  C
  C20      1.0000 0.66180  0.34220  0.52800  Biso   1.000  C
  C21      1.0000 0.09950  0.19050  0.89320  Biso   1.000  C
  C22      1.0000 0.40050  0.69050  0.60680  Biso   1.000  C
  C23      1.0000 0.90050  0.80950  0.10680  Biso   1.000  C
  C24      1.0000 0.59950  0.30950  0.39320  Biso   1.000  C
  C25      1.0000 0.07150  0.26090  0.88870  Biso   1.000  C
  C26      1.0000 0.42850  0.76090  0.61130  Biso   1.000  C
  C27      1.0000 0.92850  0.73910  0.11130  Biso   1.000  C
  C28      1.0000 0.57150  0.23910  0.38870  Biso   1.000  C
  C29      1.0000 0.25010  0.53530  0.08450  Biso   1.000  C
  C30      1.0000 0.24990  0.03530  0.41550  Biso   1.000  C
  C31      1.0000 0.74990  0.46470  0.91550  Biso   1.000  C
  C32      1.0000 0.75010  0.96470  0.58450  Biso   1.000  C
  C33      1.0000 0.39830  0.55420  0.12780  Biso   1.000  C
  C34      1.0000 0.10170  0.05420  0.37220  Biso   1.000  C
  C35      1.0000 0.60170  0.44580  0.87220  Biso   1.000  C
  C36      1.0000 0.89830  0.94580  0.62780  Biso   1.000  C
  C37      1.0000 0.44290  0.58140  0.02370  Biso   1.000  C
  C38      1.0000 0.05710  0.08140  0.47630  Biso   1.000  C
  C39      1.0000 0.55710  0.41860  0.97630  Biso   1.000  C
  C40      1.0000 0.94290  0.91860  0.52370  Biso   1.000  C
  C41      1.0000 0.57820  0.60000  0.06280  Biso   1.000  C
  C42      1.0000 0.92180  0.10000  0.43720  Biso   1.000  C
  C43      1.0000 0.42180  0.40000  0.93720  Biso   1.000  C
  C44      1.0000 0.07820  0.90000  0.56280  Biso   1.000  C
  C45      1.0000 0.66980  0.59060  0.20640  Biso   1.000  C
  C46      1.0000 0.83020  0.09060  0.29360  Biso   1.000  C
  C47      1.0000 0.33020  0.40940  0.79360  Biso   1.000  C
  C48      1.0000 0.16980  0.90940  0.70640  Biso   1.000  C
  C49      1.0000 0.62930  0.56320  0.31300  Biso   1.000  C
  C50      1.0000 0.87070  0.06320  0.18700  Biso   1.000  C
  C51      1.0000 0.37070  0.43680  0.68700  Biso   1.000  C
  C52      1.0000 0.12930  0.93680  0.81300  Biso   1.000  C
  C53      1.0000 0.49100  0.54510  0.27480  Biso   1.000  C
  C54      1.0000 0.00900  0.04510  0.22520  Biso   1.000  C
  C55      1.0000 0.50900  0.45490  0.72520  Biso   1.000  C
  C56      1.0000 0.99100  0.95490  0.77480  Biso   1.000  C
  C57      1.0000 0.98860  0.44180  0.42290  Biso   1.000  C
  C58      1.0000 0.51140  0.94180  0.07710  Biso   1.000  C
  C59      1.0000 0.01140  0.55820  0.57710  Biso   1.000  C
  C60      1.0000 0.48860  0.05820  0.92290  Biso   1.000  C
  C61      1.0000 0.02930  0.55710  0.44320  Biso   1.000  C
  C62      1.0000 0.47070  0.05710  0.05680  Biso   1.000  C
  C63      1.0000 0.97070  0.44290  0.55680  Biso   1.000  C
  C64      1.0000 0.52930  0.94290  0.94320  Biso   1.000  C
  C65      1.0000 0.18310  0.25880  0.56790  Biso   1.000  C
  C66      1.0000 0.31690  0.75880  0.93210  Biso   1.000  C
  C67      1.0000 0.81690  0.74120  0.43210  Biso   1.000  C
  C68      1.0000 0.68310  0.24120  0.06790  Biso   1.000  C
  C69      1.0000 0.32050  0.23310  0.64000  Biso   1.000  C
  C70      1.0000 0.17950  0.73310  0.86000  Biso   1.000  C
  C71      1.0000 0.67950  0.76690  0.36000  Biso   1.000  C
  C72      1.0000 0.82050  0.26690  0.14000  Biso   1.000  C
  H1       1.0000 0.19700  0.29000  0.24800  Biso   1.000  H
  H2       1.0000 0.30300  0.79000  0.25200  Biso   1.000  H
  H3       1.0000 0.80300  0.71000  0.75200  Biso   1.000  H
  H4       1.0000 0.69700  0.21000  0.74800  Biso   1.000  H
  H5       1.0000 0.24500  0.17100  0.25300  Biso   1.000  H
  H6       1.0000 0.25500  0.67100  0.24700  Biso   1.000  H
  H7       1.0000 0.75500  0.82900  0.74700  Biso   1.000  H
  H8       1.0000 0.74500  0.32900  0.75300  Biso   1.000  H
  H9       1.0000 0.18000  0.10800  0.03000  Biso   1.000  H
  H10      1.0000 0.32000  0.60800  0.47000  Biso   1.000  H
  H11      1.0000 0.82000  0.89200  0.97000  Biso   1.000  H
  H12      1.0000 0.68000  0.39200  0.53000  Biso   1.000  H
  H13      1.0000 0.07500  0.16500  0.80000  Biso   1.000  H
  H14      1.0000 0.42500  0.66500  0.70000  Biso   1.000  H
  H15      1.0000 0.92500  0.83500  0.20000  Biso   1.000  H
  H16      1.0000 0.57500  0.33500  0.30000  Biso   1.000  H
  H17      1.0000 0.02700  0.28400  0.79200  Biso   1.000  H
  H18      1.0000 0.47300  0.78400  0.70800  Biso   1.000  H
  H19      1.0000 0.97300  0.71600  0.20800  Biso   1.000  H
  H20      1.0000 0.52700  0.21600  0.29200  Biso   1.000  H
  H21      1.0000 0.37700  0.58800  0.92000  Biso   1.000  H
  H22      1.0000 0.12300  0.08800  0.58000  Biso   1.000  H
  H23      1.0000 0.62300  0.41200  0.08000  Biso   1.000  H
  H24      1.0000 0.87700  0.91200  0.42000  Biso   1.000  H
  H25      1.0000 0.60800  0.62000  0.98800  Biso   1.000  H
  H26      1.0000 0.89200  0.12000  0.51200  Biso   1.000  H
  H27      1.0000 0.39200  0.38000  0.01200  Biso   1.000  H
  H28      1.0000 0.10800  0.88000  0.48800  Biso   1.000  H
  H29      1.0000 0.76500  0.60400  0.23500  Biso   1.000  H
  H30      1.0000 0.73500  0.10400  0.26500  Biso   1.000  H
  H31      1.0000 0.23500  0.39600  0.76500  Biso   1.000  H
  H32      1.0000 0.26500  0.89600  0.73500  Biso   1.000  H
  H33      1.0000 0.69500  0.55600  0.41600  Biso   1.000  H
  H34      1.0000 0.80500  0.05600  0.08400  Biso   1.000  H
  H35      1.0000 0.30500  0.44400  0.58400  Biso   1.000  H
  H36      1.0000 0.19500  0.94400  0.91600  Biso   1.000  H
  H37      1.0000 0.46100  0.52600  0.35000  Biso   1.000  H
  H38      1.0000 0.03900  0.02600  0.15000  Biso   1.000  H
  H39      1.0000 0.53900  0.47400  0.65000  Biso   1.000  H
  H40      1.0000 0.96100  0.97400  0.85000  Biso   1.000  H
  H41      1.0000 0.98000  0.39900  0.37000  Biso   1.000  H
  H42      1.0000 0.52000  0.89900  0.13000  Biso   1.000  H
  H43      1.0000 0.02000  0.60100  0.63000  Biso   1.000  H
  H44      1.0000 0.48000  0.10100  0.87000  Biso   1.000  H
  H45      1.0000 0.05100  0.59900  0.40400  Biso   1.000  H
  H46      1.0000 0.44900  0.09900  0.09600  Biso   1.000  H
  H47      1.0000 0.94900  0.40100  0.59600  Biso   1.000  H
  H48      1.0000 0.55100  0.90100  0.90400  Biso   1.000  H
  H49      1.0000 0.34000  0.19800  0.58100  Biso   1.000  H
  H50      1.0000 0.16000  0.69800  0.91900  Biso   1.000  H
  H51      1.0000 0.66000  0.80200  0.41900  Biso   1.000  H
  H52      1.0000 0.84000  0.30200  0.08100  Biso   1.000  H
  H53      1.0000 0.33400  0.21200  0.73600  Biso   1.000  H
  H54      1.0000 0.16600  0.71200  0.76400  Biso   1.000  H
  H55      1.0000 0.66600  0.78800  0.26400  Biso   1.000  H
  H56      1.0000 0.83400  0.28800  0.23600  Biso   1.000  H
  H57      1.0000 0.39000  0.26900  0.66100  Biso   1.000  H
  H58      1.0000 0.11000  0.76900  0.83900  Biso   1.000  H
  H59      1.0000 0.61000  0.73100  0.33900  Biso   1.000  H
  H60      1.0000 0.89000  0.23100  0.16100  Biso   1.000  H
