data_image0
_cell_length_a       3.9411
_cell_length_b       7.1093
_cell_length_c       8.8596
_cell_angle_alpha    87.097
_cell_angle_beta     82.663
_cell_angle_gamma    83.787

_symmetry_space_group_name_H-M    "P 1"
_symmetry_int_tables_number       1

loop_
  _symmetry_equiv_pos_as_xyz
  'x, y, z'

loop_
  _atom_site_label
  _atom_site_occupancy
  _atom_site_fract_x
  _atom_site_fract_y
  _atom_site_fract_z
  _atom_site_thermal_displace_type
  _atom_site_B_iso_or_equiv
  _atom_site_type_symbol
  Br1      1.0000 0.40326  0.76051  0.11814  Biso   1.000  Br
  Br2      1.0000 0.59674  0.23949  0.88186  Biso   1.000  Br
  Cu1      1.0000 0.00000  0.00000  0.00000  Biso   1.000  Cu
  N1       1.0000 0.93350  0.14450  0.18660  Biso   1.000  N
  N2       1.0000 0.06650  0.85550  0.81340  Biso   1.000  N
  N3       1.0000 0.92640  0.39140  0.32910  Biso   1.000  N
  N4       1.0000 0.07360  0.60860  0.67090  Biso   1.000  N
  H1       1.0000 0.95850  0.50180  0.35660  Biso   1.000  H
  H2       1.0000 0.04150  0.49820  0.64340  Biso   1.000  H
  C1       1.0000 0.02190  0.32090  0.19170  Biso   1.000  C
  C2       1.0000 0.97810  0.67910  0.80830  Biso   1.000  C
  H3       1.0000 0.13530  0.38570  0.10990  Biso   1.000  H
  H4       1.0000 0.86470  0.61430  0.89010  Biso   1.000  H
  C3       1.0000 0.78080  0.10500  0.32340  Biso   1.000  C
  C4       1.0000 0.21920  0.89500  0.67660  Biso   1.000  C
  H5       1.0000 0.69230  0.99090  0.35320  Biso   1.000  H
  H6       1.0000 0.30770  0.00910  0.64680  Biso   1.000  H
  C5       1.0000 0.76920  0.25700  0.41780  Biso   1.000  C
  C6       1.0000 0.23080  0.74300  0.58220  Biso   1.000  C
  H7       1.0000 0.67460  0.26460  0.51920  Biso   1.000  H
  H8       1.0000 0.32540  0.73540  0.48080  Biso   1.000  H
