data_image0
_cell_length_a       16.83
_cell_length_b       20.701
_cell_length_c       18.17
_cell_angle_alpha    90
_cell_angle_beta     113.26
_cell_angle_gamma    90

_symmetry_space_group_name_H-M    "P 1"
_symmetry_int_tables_number       1

loop_
  _symmetry_equiv_pos_as_xyz
  'x, y, z'

loop_
  _atom_site_label
  _atom_site_occupancy
  _atom_site_fract_x
  _atom_site_fract_y
  _atom_site_fract_z
  _atom_site_thermal_displace_type
  _atom_site_B_iso_or_equiv
  _atom_site_type_symbol
  Cu1      1.0000 0.50000  0.04432  0.25000  Biso   1.000  Cu
  Cu2      1.0000 0.00000  0.54432  0.25000  Biso   1.000  Cu
  Cu3      1.0000 0.50000  0.95568  0.75000  Biso   1.000  Cu
  Cu4      1.0000 0.00000  0.45568  0.75000  Biso   1.000  Cu
  Cu5      1.0000 0.51005  0.28457  0.57659  Biso   1.000  Cu
  Cu6      1.0000 0.01005  0.78457  0.57659  Biso   1.000  Cu
  Cu7      1.0000 0.48995  0.28457  0.92341  Biso   1.000  Cu
  Cu8      1.0000 0.98995  0.78457  0.92341  Biso   1.000  Cu
  Cu9      1.0000 0.48995  0.71543  0.42341  Biso   1.000  Cu
  Cu10     1.0000 0.98995  0.21543  0.42341  Biso   1.000  Cu
  Cu11     1.0000 0.51005  0.71543  0.07659  Biso   1.000  Cu
  Cu12     1.0000 0.01005  0.21543  0.07659  Biso   1.000  Cu
  N1       1.0000 0.43838  0.09124  0.14147  Biso   1.000  N
  N2       1.0000 0.93838  0.59124  0.14147  Biso   1.000  N
  N3       1.0000 0.56162  0.09124  0.35853  Biso   1.000  N
  N4       1.0000 0.06162  0.59124  0.35853  Biso   1.000  N
  N5       1.0000 0.56162  0.90876  0.85853  Biso   1.000  N
  N6       1.0000 0.06162  0.40876  0.85853  Biso   1.000  N
  N7       1.0000 0.43838  0.90876  0.64147  Biso   1.000  N
  N8       1.0000 0.93838  0.40876  0.64147  Biso   1.000  N
  C1       1.0000 0.38330  0.13950  0.13654  Biso   1.000  C
  C2       1.0000 0.88330  0.63950  0.13654  Biso   1.000  C
  C3       1.0000 0.61670  0.13950  0.36346  Biso   1.000  C
  C4       1.0000 0.11670  0.63950  0.36346  Biso   1.000  C
  C5       1.0000 0.61670  0.86050  0.86346  Biso   1.000  C
  C6       1.0000 0.11670  0.36050  0.86346  Biso   1.000  C
  C7       1.0000 0.38330  0.86050  0.63654  Biso   1.000  C
  C8       1.0000 0.88330  0.36050  0.63654  Biso   1.000  C
  C9       1.0000 0.33830  0.17258  0.06598  Biso   1.000  C
  C10      1.0000 0.83830  0.67258  0.06598  Biso   1.000  C
  C11      1.0000 0.66170  0.17258  0.43402  Biso   1.000  C
  C12      1.0000 0.16170  0.67258  0.43402  Biso   1.000  C
  C13      1.0000 0.66170  0.82742  0.93402  Biso   1.000  C
  C14      1.0000 0.16170  0.32742  0.93402  Biso   1.000  C
  C15      1.0000 0.33830  0.82742  0.56598  Biso   1.000  C
  C16      1.0000 0.83830  0.32742  0.56598  Biso   1.000  C
  H1       1.0000 0.29940  0.20630  0.06440  Biso   1.000  H
  H2       1.0000 0.79940  0.70630  0.06440  Biso   1.000  H
  H3       1.0000 0.70060  0.20630  0.43560  Biso   1.000  H
  H4       1.0000 0.20060  0.70630  0.43560  Biso   1.000  H
  H5       1.0000 0.70060  0.79370  0.93560  Biso   1.000  H
  H6       1.0000 0.20060  0.29370  0.93560  Biso   1.000  H
  H7       1.0000 0.29940  0.79370  0.56440  Biso   1.000  H
  H8       1.0000 0.79940  0.29370  0.56440  Biso   1.000  H
  C17      1.0000 0.35100  0.15555  0.99840  Biso   1.000  C
  C18      1.0000 0.85100  0.65555  0.99840  Biso   1.000  C
  C19      1.0000 0.64900  0.15555  0.50160  Biso   1.000  C
  C20      1.0000 0.14900  0.65555  0.50160  Biso   1.000  C
  C21      1.0000 0.64900  0.84445  0.00160  Biso   1.000  C
  C22      1.0000 0.14900  0.34445  0.00160  Biso   1.000  C
  C23      1.0000 0.35100  0.84445  0.49840  Biso   1.000  C
  C24      1.0000 0.85100  0.34445  0.49840  Biso   1.000  C
  H9       1.0000 0.32100  0.17760  0.94940  Biso   1.000  H
  H10      1.0000 0.82100  0.67760  0.94940  Biso   1.000  H
  H11      1.0000 0.67900  0.17760  0.55060  Biso   1.000  H
  H12      1.0000 0.17900  0.67760  0.55060  Biso   1.000  H
  H13      1.0000 0.67900  0.82240  0.05060  Biso   1.000  H
  H14      1.0000 0.17900  0.32240  0.05060  Biso   1.000  H
  H15      1.0000 0.32100  0.82240  0.44940  Biso   1.000  H
  H16      1.0000 0.82100  0.32240  0.44940  Biso   1.000  H
  C25      1.0000 0.40790  0.10590  0.00210  Biso   1.000  C
  C26      1.0000 0.90790  0.60590  0.00210  Biso   1.000  C
  C27      1.0000 0.59210  0.10590  0.49790  Biso   1.000  C
  C28      1.0000 0.09210  0.60590  0.49790  Biso   1.000  C
  C29      1.0000 0.59210  0.89410  0.99790  Biso   1.000  C
  C30      1.0000 0.09210  0.39410  0.99790  Biso   1.000  C
  C31      1.0000 0.40790  0.89410  0.50210  Biso   1.000  C
  C32      1.0000 0.90790  0.39410  0.50210  Biso   1.000  C
  H17      1.0000 0.41770  0.09370  0.95600  Biso   1.000  H
  H18      1.0000 0.91770  0.59370  0.95600  Biso   1.000  H
  H19      1.0000 0.58230  0.09370  0.54400  Biso   1.000  H
  H20      1.0000 0.08230  0.59370  0.54400  Biso   1.000  H
  H21      1.0000 0.58230  0.90630  0.04400  Biso   1.000  H
  H22      1.0000 0.08230  0.40630  0.04400  Biso   1.000  H
  H23      1.0000 0.41770  0.90630  0.45600  Biso   1.000  H
  H24      1.0000 0.91770  0.40630  0.45600  Biso   1.000  H
  C33      1.0000 0.44970  0.07476  0.07390  Biso   1.000  C
  C34      1.0000 0.94970  0.57476  0.07390  Biso   1.000  C
  C35      1.0000 0.55030  0.07476  0.42610  Biso   1.000  C
  C36      1.0000 0.05030  0.57476  0.42610  Biso   1.000  C
  C37      1.0000 0.55030  0.92524  0.92610  Biso   1.000  C
  C38      1.0000 0.05030  0.42524  0.92610  Biso   1.000  C
  C39      1.0000 0.44970  0.92524  0.57390  Biso   1.000  C
  C40      1.0000 0.94970  0.42524  0.57390  Biso   1.000  C
  H25      1.0000 0.48800  0.04030  0.07630  Biso   1.000  H
  H26      1.0000 0.98800  0.54030  0.07630  Biso   1.000  H
  H27      1.0000 0.51200  0.04030  0.42370  Biso   1.000  H
  H28      1.0000 0.01200  0.54030  0.42370  Biso   1.000  H
  H29      1.0000 0.51200  0.95970  0.92370  Biso   1.000  H
  H30      1.0000 0.01200  0.45970  0.92370  Biso   1.000  H
  H31      1.0000 0.48800  0.95970  0.57630  Biso   1.000  H
  H32      1.0000 0.98800  0.45970  0.57630  Biso   1.000  H
  N9       1.0000 0.37127  0.15228  0.20913  Biso   1.000  N
  N10      1.0000 0.87127  0.65228  0.20913  Biso   1.000  N
  N11      1.0000 0.62873  0.15228  0.29087  Biso   1.000  N
  N12      1.0000 0.12873  0.65228  0.29087  Biso   1.000  N
  N13      1.0000 0.62873  0.84772  0.79087  Biso   1.000  N
  N14      1.0000 0.12873  0.34772  0.79087  Biso   1.000  N
  N15      1.0000 0.37127  0.84772  0.70913  Biso   1.000  N
  N16      1.0000 0.87127  0.34772  0.70913  Biso   1.000  N
  N17      1.0000 0.38492  0.04624  0.26102  Biso   1.000  N
  N18      1.0000 0.88492  0.54624  0.26102  Biso   1.000  N
  N19      1.0000 0.61508  0.04624  0.23898  Biso   1.000  N
  N20      1.0000 0.11508  0.54624  0.23898  Biso   1.000  N
  N21      1.0000 0.61508  0.95376  0.73898  Biso   1.000  N
  N22      1.0000 0.11508  0.45376  0.73898  Biso   1.000  N
  N23      1.0000 0.38492  0.95376  0.76102  Biso   1.000  N
  N24      1.0000 0.88492  0.45376  0.76102  Biso   1.000  N
  C41      1.0000 0.33802  0.10077  0.24165  Biso   1.000  C
  C42      1.0000 0.83802  0.60077  0.24165  Biso   1.000  C
  C43      1.0000 0.66198  0.10077  0.25835  Biso   1.000  C
  C44      1.0000 0.16198  0.60077  0.25835  Biso   1.000  C
  C45      1.0000 0.66198  0.89923  0.75835  Biso   1.000  C
  C46      1.0000 0.16198  0.39923  0.75835  Biso   1.000  C
  C47      1.0000 0.33802  0.89923  0.74165  Biso   1.000  C
  C48      1.0000 0.83802  0.39923  0.74165  Biso   1.000  C
  C49      1.0000 0.25898  0.10665  0.24814  Biso   1.000  C
  C50      1.0000 0.75898  0.60665  0.24814  Biso   1.000  C
  C51      1.0000 0.74102  0.10665  0.25186  Biso   1.000  C
  C52      1.0000 0.24102  0.60665  0.25186  Biso   1.000  C
  C53      1.0000 0.74102  0.89335  0.75186  Biso   1.000  C
  C54      1.0000 0.24102  0.39335  0.75186  Biso   1.000  C
  C55      1.0000 0.25898  0.89335  0.74814  Biso   1.000  C
  C56      1.0000 0.75898  0.39335  0.74814  Biso   1.000  C
  H33      1.0000 0.22700  0.14570  0.23330  Biso   1.000  H
  H34      1.0000 0.72700  0.64570  0.23330  Biso   1.000  H
  H35      1.0000 0.77300  0.14570  0.26670  Biso   1.000  H
  H36      1.0000 0.27300  0.64570  0.26670  Biso   1.000  H
  H37      1.0000 0.77300  0.85430  0.76670  Biso   1.000  H
  H38      1.0000 0.27300  0.35430  0.76670  Biso   1.000  H
  H39      1.0000 0.22700  0.85430  0.73330  Biso   1.000  H
  H40      1.0000 0.72700  0.35430  0.73330  Biso   1.000  H
  C57      1.0000 0.22730  0.05527  0.27633  Biso   1.000  C
  C58      1.0000 0.72730  0.55527  0.27633  Biso   1.000  C
  C59      1.0000 0.77270  0.05527  0.22367  Biso   1.000  C
  C60      1.0000 0.27270  0.55527  0.22367  Biso   1.000  C
  C61      1.0000 0.77270  0.94473  0.72367  Biso   1.000  C
  C62      1.0000 0.27270  0.44473  0.72367  Biso   1.000  C
  C63      1.0000 0.22730  0.94473  0.77633  Biso   1.000  C
  C64      1.0000 0.72730  0.44473  0.77633  Biso   1.000  C
  H41      1.0000 0.17390  0.05870  0.28240  Biso   1.000  H
  H42      1.0000 0.67390  0.55870  0.28240  Biso   1.000  H
  H43      1.0000 0.82610  0.05870  0.21760  Biso   1.000  H
  H44      1.0000 0.32610  0.55870  0.21760  Biso   1.000  H
  H45      1.0000 0.82610  0.94130  0.71760  Biso   1.000  H
  H46      1.0000 0.32610  0.44130  0.71760  Biso   1.000  H
  H47      1.0000 0.17390  0.94130  0.78240  Biso   1.000  H
  H48      1.0000 0.67390  0.44130  0.78240  Biso   1.000  H
  C65      1.0000 0.27460  0.99827  0.29570  Biso   1.000  C
  C66      1.0000 0.77460  0.49827  0.29570  Biso   1.000  C
  C67      1.0000 0.72540  0.99827  0.20430  Biso   1.000  C
  C68      1.0000 0.22540  0.49827  0.20430  Biso   1.000  C
  C69      1.0000 0.72540  0.00173  0.70430  Biso   1.000  C
  C70      1.0000 0.22540  0.50173  0.70430  Biso   1.000  C
  C71      1.0000 0.27460  0.00173  0.79570  Biso   1.000  C
  C72      1.0000 0.77460  0.50173  0.79570  Biso   1.000  C
  H49      1.0000 0.25380  0.96180  0.31450  Biso   1.000  H
  H50      1.0000 0.75380  0.46180  0.31450  Biso   1.000  H
  H51      1.0000 0.74620  0.96180  0.18550  Biso   1.000  H
  H52      1.0000 0.24620  0.46180  0.18550  Biso   1.000  H
  H53      1.0000 0.74620  0.03820  0.68550  Biso   1.000  H
  H54      1.0000 0.24620  0.53820  0.68550  Biso   1.000  H
  H55      1.0000 0.25380  0.03820  0.81450  Biso   1.000  H
  H56      1.0000 0.75380  0.53820  0.81450  Biso   1.000  H
  C73      1.0000 0.35260  0.99575  0.28720  Biso   1.000  C
  C74      1.0000 0.85260  0.49575  0.28720  Biso   1.000  C
  C75      1.0000 0.64740  0.99575  0.21280  Biso   1.000  C
  C76      1.0000 0.14740  0.49575  0.21280  Biso   1.000  C
  C77      1.0000 0.64740  0.00425  0.71280  Biso   1.000  C
  C78      1.0000 0.14740  0.50425  0.71280  Biso   1.000  C
  C79      1.0000 0.35260  0.00425  0.78720  Biso   1.000  C
  C80      1.0000 0.85260  0.50425  0.78720  Biso   1.000  C
  H57      1.0000 0.38480  0.95670  0.30030  Biso   1.000  H
  H58      1.0000 0.88480  0.45670  0.30030  Biso   1.000  H
  H59      1.0000 0.61520  0.95670  0.19970  Biso   1.000  H
  H60      1.0000 0.11520  0.45670  0.19970  Biso   1.000  H
  H61      1.0000 0.61520  0.04330  0.69970  Biso   1.000  H
  H62      1.0000 0.11520  0.54330  0.69970  Biso   1.000  H
  H63      1.0000 0.38480  0.04330  0.80030  Biso   1.000  H
  H64      1.0000 0.88480  0.54330  0.80030  Biso   1.000  H
  C81      1.0000 0.37680  0.21505  0.23933  Biso   1.000  C
  C82      1.0000 0.87680  0.71505  0.23933  Biso   1.000  C
  C83      1.0000 0.62320  0.21505  0.26067  Biso   1.000  C
  C84      1.0000 0.12320  0.71505  0.26067  Biso   1.000  C
  C85      1.0000 0.62320  0.78495  0.76067  Biso   1.000  C
  C86      1.0000 0.12320  0.28495  0.76067  Biso   1.000  C
  C87      1.0000 0.37680  0.78495  0.73933  Biso   1.000  C
  C88      1.0000 0.87680  0.28495  0.73933  Biso   1.000  C
  N25      1.0000 0.37118  0.22003  0.31091  Biso   1.000  N
  N26      1.0000 0.87118  0.72003  0.31091  Biso   1.000  N
  N27      1.0000 0.62882  0.22003  0.18909  Biso   1.000  N
  N28      1.0000 0.12882  0.72003  0.18909  Biso   1.000  N
  N29      1.0000 0.62882  0.77997  0.68909  Biso   1.000  N
  N30      1.0000 0.12882  0.27997  0.68909  Biso   1.000  N
  N31      1.0000 0.37118  0.77997  0.81091  Biso   1.000  N
  N32      1.0000 0.87118  0.27997  0.81091  Biso   1.000  N
  C89      1.0000 0.37884  0.28101  0.33661  Biso   1.000  C
  C90      1.0000 0.87884  0.78101  0.33661  Biso   1.000  C
  C91      1.0000 0.62116  0.28101  0.16339  Biso   1.000  C
  C92      1.0000 0.12116  0.78101  0.16339  Biso   1.000  C
  C93      1.0000 0.62116  0.71899  0.66339  Biso   1.000  C
  C94      1.0000 0.12116  0.21899  0.66339  Biso   1.000  C
  C95      1.0000 0.37884  0.71899  0.83661  Biso   1.000  C
  C96      1.0000 0.87884  0.21899  0.83661  Biso   1.000  C
  N33      1.0000 0.39661  0.33280  0.30275  Biso   1.000  N
  N34      1.0000 0.89661  0.83280  0.30275  Biso   1.000  N
  N35      1.0000 0.60339  0.33280  0.19725  Biso   1.000  N
  N36      1.0000 0.10339  0.83280  0.19725  Biso   1.000  N
  N37      1.0000 0.60339  0.66720  0.69725  Biso   1.000  N
  N38      1.0000 0.10339  0.16720  0.69725  Biso   1.000  N
  N39      1.0000 0.39661  0.66720  0.80275  Biso   1.000  N
  N40      1.0000 0.89661  0.16720  0.80275  Biso   1.000  N
  C97      1.0000 0.40004  0.32092  0.23130  Biso   1.000  C
  C98      1.0000 0.90004  0.82092  0.23130  Biso   1.000  C
  C99      1.0000 0.59996  0.32092  0.26870  Biso   1.000  C
  C100     1.0000 0.09996  0.82092  0.26870  Biso   1.000  C
  C101     1.0000 0.59996  0.67908  0.76870  Biso   1.000  C
  C102     1.0000 0.09996  0.17908  0.76870  Biso   1.000  C
  C103     1.0000 0.40004  0.67908  0.73130  Biso   1.000  C
  C104     1.0000 0.90004  0.17908  0.73130  Biso   1.000  C
  N41      1.0000 0.38898  0.26190  0.19549  Biso   1.000  N
  N42      1.0000 0.88898  0.76190  0.19549  Biso   1.000  N
  N43      1.0000 0.61102  0.26190  0.30451  Biso   1.000  N
  N44      1.0000 0.11102  0.76190  0.30451  Biso   1.000  N
  N45      1.0000 0.61102  0.73810  0.80451  Biso   1.000  N
  N46      1.0000 0.11102  0.23810  0.80451  Biso   1.000  N
  N47      1.0000 0.38898  0.73810  0.69549  Biso   1.000  N
  N48      1.0000 0.88898  0.23810  0.69549  Biso   1.000  N
  N49      1.0000 0.41519  0.37066  0.19078  Biso   1.000  N
  N50      1.0000 0.91519  0.87066  0.19078  Biso   1.000  N
  N51      1.0000 0.58481  0.37066  0.30922  Biso   1.000  N
  N52      1.0000 0.08481  0.87066  0.30922  Biso   1.000  N
  N53      1.0000 0.58481  0.62934  0.80922  Biso   1.000  N
  N54      1.0000 0.08481  0.12934  0.80922  Biso   1.000  N
  N55      1.0000 0.41519  0.62934  0.69078  Biso   1.000  N
  N56      1.0000 0.91519  0.12934  0.69078  Biso   1.000  N
  H65      1.0000 0.40390  0.36610  0.13950  Biso   1.000  H
  H66      1.0000 0.90390  0.86610  0.13950  Biso   1.000  H
  H67      1.0000 0.59610  0.36610  0.36050  Biso   1.000  H
  H68      1.0000 0.09610  0.86610  0.36050  Biso   1.000  H
  H69      1.0000 0.59610  0.63390  0.86050  Biso   1.000  H
  H70      1.0000 0.09610  0.13390  0.86050  Biso   1.000  H
  H71      1.0000 0.40390  0.63390  0.63950  Biso   1.000  H
  H72      1.0000 0.90390  0.13390  0.63950  Biso   1.000  H
  C105     1.0000 0.44980  0.43182  0.23001  Biso   1.000  C
  C106     1.0000 0.94980  0.93182  0.23001  Biso   1.000  C
  C107     1.0000 0.55020  0.43182  0.26999  Biso   1.000  C
  C108     1.0000 0.05020  0.93182  0.26999  Biso   1.000  C
  C109     1.0000 0.55020  0.56818  0.76999  Biso   1.000  C
  C110     1.0000 0.05020  0.06818  0.76999  Biso   1.000  C
  C111     1.0000 0.44980  0.56818  0.73001  Biso   1.000  C
  C112     1.0000 0.94980  0.06818  0.73001  Biso   1.000  C
  H73      1.0000 0.42660  0.44050  0.27130  Biso   1.000  H
  H74      1.0000 0.92660  0.94050  0.27130  Biso   1.000  H
  H75      1.0000 0.57340  0.44050  0.22870  Biso   1.000  H
  H76      1.0000 0.07340  0.94050  0.22870  Biso   1.000  H
  H77      1.0000 0.57340  0.55950  0.72870  Biso   1.000  H
  H78      1.0000 0.07340  0.05950  0.72870  Biso   1.000  H
  H79      1.0000 0.42660  0.55950  0.77130  Biso   1.000  H
  H80      1.0000 0.92660  0.05950  0.77130  Biso   1.000  H
  H81      1.0000 0.43030  0.46700  0.19000  Biso   1.000  H
  H82      1.0000 0.93030  0.96700  0.19000  Biso   1.000  H
  H83      1.0000 0.56970  0.46700  0.31000  Biso   1.000  H
  H84      1.0000 0.06970  0.96700  0.31000  Biso   1.000  H
  H85      1.0000 0.56970  0.53300  0.81000  Biso   1.000  H
  H86      1.0000 0.06970  0.03300  0.81000  Biso   1.000  H
  H87      1.0000 0.43030  0.53300  0.69000  Biso   1.000  H
  H88      1.0000 0.93030  0.03300  0.69000  Biso   1.000  H
  N57      1.0000 0.40723  0.22801  0.52590  Biso   1.000  N
  N58      1.0000 0.90723  0.72801  0.52590  Biso   1.000  N
  N59      1.0000 0.59277  0.22801  0.97410  Biso   1.000  N
  N60      1.0000 0.09277  0.72801  0.97410  Biso   1.000  N
  N61      1.0000 0.59277  0.77199  0.47410  Biso   1.000  N
  N62      1.0000 0.09277  0.27199  0.47410  Biso   1.000  N
  N63      1.0000 0.40723  0.77199  0.02590  Biso   1.000  N
  N64      1.0000 0.90723  0.27199  0.02590  Biso   1.000  N
  C113     1.0000 0.35010  0.23883  0.45027  Biso   1.000  C
  C114     1.0000 0.85010  0.73883  0.45027  Biso   1.000  C
  C115     1.0000 0.64990  0.23883  0.04973  Biso   1.000  C
  C116     1.0000 0.14990  0.73883  0.04973  Biso   1.000  C
  C117     1.0000 0.64990  0.76117  0.54973  Biso   1.000  C
  C118     1.0000 0.14990  0.26117  0.54973  Biso   1.000  C
  C119     1.0000 0.35010  0.76117  0.95027  Biso   1.000  C
  C120     1.0000 0.85010  0.26117  0.95027  Biso   1.000  C
  C121     1.0000 0.27540  0.20318  0.41406  Biso   1.000  C
  C122     1.0000 0.77540  0.70318  0.41406  Biso   1.000  C
  C123     1.0000 0.72460  0.20318  0.08594  Biso   1.000  C
  C124     1.0000 0.22460  0.70318  0.08594  Biso   1.000  C
  C125     1.0000 0.72460  0.79682  0.58594  Biso   1.000  C
  C126     1.0000 0.22460  0.29682  0.58594  Biso   1.000  C
  C127     1.0000 0.27540  0.79682  0.91406  Biso   1.000  C
  C128     1.0000 0.77540  0.29682  0.91406  Biso   1.000  C
  H89      1.0000 0.23470  0.21390  0.36200  Biso   1.000  H
  H90      1.0000 0.73470  0.71390  0.36200  Biso   1.000  H
  H91      1.0000 0.76530  0.21390  0.13800  Biso   1.000  H
  H92      1.0000 0.26530  0.71390  0.13800  Biso   1.000  H
  H93      1.0000 0.76530  0.78610  0.63800  Biso   1.000  H
  H94      1.0000 0.26530  0.28610  0.63800  Biso   1.000  H
  H95      1.0000 0.23470  0.78610  0.86200  Biso   1.000  H
  H96      1.0000 0.73470  0.28610  0.86200  Biso   1.000  H
  C129     1.0000 0.26140  0.15111  0.45590  Biso   1.000  C
  C130     1.0000 0.76140  0.65111  0.45590  Biso   1.000  C
  C131     1.0000 0.73860  0.15111  0.04410  Biso   1.000  C
  C132     1.0000 0.23860  0.65111  0.04410  Biso   1.000  C
  C133     1.0000 0.73860  0.84889  0.54410  Biso   1.000  C
  C134     1.0000 0.23860  0.34889  0.54410  Biso   1.000  C
  C135     1.0000 0.26140  0.84889  0.95590  Biso   1.000  C
  C136     1.0000 0.76140  0.34889  0.95590  Biso   1.000  C
  H97      1.0000 0.21160  0.12460  0.43210  Biso   1.000  H
  H98      1.0000 0.71160  0.62460  0.43210  Biso   1.000  H
  H99      1.0000 0.78840  0.12460  0.06790  Biso   1.000  H
  H100     1.0000 0.28840  0.62460  0.06790  Biso   1.000  H
  H101     1.0000 0.78840  0.87540  0.56790  Biso   1.000  H
  H102     1.0000 0.28840  0.37540  0.56790  Biso   1.000  H
  H103     1.0000 0.21160  0.87540  0.93210  Biso   1.000  H
  H104     1.0000 0.71160  0.37540  0.93210  Biso   1.000  H
  C137     1.0000 0.32080  0.13854  0.53240  Biso   1.000  C
  C138     1.0000 0.82080  0.63854  0.53240  Biso   1.000  C
  C139     1.0000 0.67920  0.13854  0.96760  Biso   1.000  C
  C140     1.0000 0.17920  0.63854  0.96760  Biso   1.000  C
  C141     1.0000 0.67920  0.86146  0.46760  Biso   1.000  C
  C142     1.0000 0.17920  0.36146  0.46760  Biso   1.000  C
  C143     1.0000 0.32080  0.86146  0.03240  Biso   1.000  C
  C144     1.0000 0.82080  0.36146  0.03240  Biso   1.000  C
  H105     1.0000 0.31300  0.10250  0.56110  Biso   1.000  H
  H106     1.0000 0.81300  0.60250  0.56110  Biso   1.000  H
  H107     1.0000 0.68700  0.10250  0.93890  Biso   1.000  H
  H108     1.0000 0.18700  0.60250  0.93890  Biso   1.000  H
  H109     1.0000 0.68700  0.89750  0.43890  Biso   1.000  H
  H110     1.0000 0.18700  0.39750  0.43890  Biso   1.000  H
  H111     1.0000 0.31300  0.89750  0.06110  Biso   1.000  H
  H112     1.0000 0.81300  0.39750  0.06110  Biso   1.000  H
  C145     1.0000 0.39160  0.17850  0.56710  Biso   1.000  C
  C146     1.0000 0.89160  0.67850  0.56710  Biso   1.000  C
  C147     1.0000 0.60840  0.17850  0.93290  Biso   1.000  C
  C148     1.0000 0.10840  0.67850  0.93290  Biso   1.000  C
  C149     1.0000 0.60840  0.82150  0.43290  Biso   1.000  C
  C150     1.0000 0.10840  0.32150  0.43290  Biso   1.000  C
  C151     1.0000 0.39160  0.82150  0.06710  Biso   1.000  C
  C152     1.0000 0.89160  0.32150  0.06710  Biso   1.000  C
  H113     1.0000 0.43010  0.17110  0.62100  Biso   1.000  H
  H114     1.0000 0.93010  0.67110  0.62100  Biso   1.000  H
  H115     1.0000 0.56990  0.17110  0.87900  Biso   1.000  H
  H116     1.0000 0.06990  0.67110  0.87900  Biso   1.000  H
  H117     1.0000 0.56990  0.82890  0.37900  Biso   1.000  H
  H118     1.0000 0.06990  0.32890  0.37900  Biso   1.000  H
  H119     1.0000 0.43010  0.82890  0.12100  Biso   1.000  H
  H120     1.0000 0.93010  0.32890  0.12100  Biso   1.000  H
  N65      1.0000 0.37027  0.29143  0.40924  Biso   1.000  N
  N66      1.0000 0.87027  0.79143  0.40924  Biso   1.000  N
  N67      1.0000 0.62973  0.29143  0.09076  Biso   1.000  N
  N68      1.0000 0.12973  0.79143  0.09076  Biso   1.000  N
  N69      1.0000 0.62973  0.70857  0.59076  Biso   1.000  N
  N70      1.0000 0.12973  0.20857  0.59076  Biso   1.000  N
  N71      1.0000 0.37027  0.70857  0.90924  Biso   1.000  N
  N72      1.0000 0.87027  0.20857  0.90924  Biso   1.000  N
  N73      1.0000 0.43710  0.36028  0.51937  Biso   1.000  N
  N74      1.0000 0.93710  0.86028  0.51937  Biso   1.000  N
  N75      1.0000 0.56290  0.36028  0.98063  Biso   1.000  N
  N76      1.0000 0.06290  0.86028  0.98063  Biso   1.000  N
  N77      1.0000 0.56290  0.63972  0.48063  Biso   1.000  N
  N78      1.0000 0.06290  0.13972  0.48063  Biso   1.000  N
  N79      1.0000 0.43710  0.63972  0.01937  Biso   1.000  N
  N80      1.0000 0.93710  0.13972  0.01937  Biso   1.000  N
  C153     1.0000 0.38024  0.35460  0.44281  Biso   1.000  C
  C154     1.0000 0.88024  0.85460  0.44281  Biso   1.000  C
  C155     1.0000 0.61976  0.35460  0.05719  Biso   1.000  C
  C156     1.0000 0.11976  0.85460  0.05719  Biso   1.000  C
  C157     1.0000 0.61976  0.64540  0.55719  Biso   1.000  C
  C158     1.0000 0.11976  0.14540  0.55719  Biso   1.000  C
  C159     1.0000 0.38024  0.64540  0.94281  Biso   1.000  C
  C160     1.0000 0.88024  0.14540  0.94281  Biso   1.000  C
  C161     1.0000 0.33280  0.40635  0.39923  Biso   1.000  C
  C162     1.0000 0.83280  0.90635  0.39923  Biso   1.000  C
  C163     1.0000 0.66720  0.40635  0.10077  Biso   1.000  C
  C164     1.0000 0.16720  0.90635  0.10077  Biso   1.000  C
  C165     1.0000 0.66720  0.59365  0.60077  Biso   1.000  C
  C166     1.0000 0.16720  0.09365  0.60077  Biso   1.000  C
  C167     1.0000 0.33280  0.59365  0.89923  Biso   1.000  C
  C168     1.0000 0.83280  0.09365  0.89923  Biso   1.000  C
  H121     1.0000 0.29270  0.40080  0.34540  Biso   1.000  H
  H122     1.0000 0.79270  0.90080  0.34540  Biso   1.000  H
  H123     1.0000 0.70730  0.40080  0.15460  Biso   1.000  H
  H124     1.0000 0.20730  0.90080  0.15460  Biso   1.000  H
  H125     1.0000 0.70730  0.59920  0.65460  Biso   1.000  H
  H126     1.0000 0.20730  0.09920  0.65460  Biso   1.000  H
  H127     1.0000 0.29270  0.59920  0.84540  Biso   1.000  H
  H128     1.0000 0.79270  0.09920  0.84540  Biso   1.000  H
  C169     1.0000 0.34490  0.46617  0.43540  Biso   1.000  C
  C170     1.0000 0.84490  0.96617  0.43540  Biso   1.000  C
  C171     1.0000 0.65510  0.46617  0.06460  Biso   1.000  C
  C172     1.0000 0.15510  0.96617  0.06460  Biso   1.000  C
  C173     1.0000 0.65510  0.53383  0.56460  Biso   1.000  C
  C174     1.0000 0.15510  0.03383  0.56460  Biso   1.000  C
  C175     1.0000 0.34490  0.53383  0.93540  Biso   1.000  C
  C176     1.0000 0.84490  0.03383  0.93540  Biso   1.000  C
  H129     1.0000 0.31410  0.50280  0.40660  Biso   1.000  H
  H130     1.0000 0.81410  0.00280  0.40660  Biso   1.000  H
  H131     1.0000 0.68590  0.50280  0.09340  Biso   1.000  H
  H132     1.0000 0.18590  0.00280  0.09340  Biso   1.000  H
  H133     1.0000 0.68590  0.49720  0.59340  Biso   1.000  H
  H134     1.0000 0.18590  0.99720  0.59340  Biso   1.000  H
  H135     1.0000 0.31410  0.49720  0.90660  Biso   1.000  H
  H136     1.0000 0.81410  0.99720  0.90660  Biso   1.000  H
  C177     1.0000 0.40330  0.47213  0.51520  Biso   1.000  C
  C178     1.0000 0.90330  0.97213  0.51520  Biso   1.000  C
  C179     1.0000 0.59670  0.47213  0.98480  Biso   1.000  C
  C180     1.0000 0.09670  0.97213  0.98480  Biso   1.000  C
  C181     1.0000 0.59670  0.52787  0.48480  Biso   1.000  C
  C182     1.0000 0.09670  0.02787  0.48480  Biso   1.000  C
  C183     1.0000 0.40330  0.52787  0.01520  Biso   1.000  C
  C184     1.0000 0.90330  0.02787  0.01520  Biso   1.000  C
  H137     1.0000 0.41230  0.51270  0.54160  Biso   1.000  H
  H138     1.0000 0.91230  0.01270  0.54160  Biso   1.000  H
  H139     1.0000 0.58770  0.51270  0.95840  Biso   1.000  H
  H140     1.0000 0.08770  0.01270  0.95840  Biso   1.000  H
  H141     1.0000 0.58770  0.48730  0.45840  Biso   1.000  H
  H142     1.0000 0.08770  0.98730  0.45840  Biso   1.000  H
  H143     1.0000 0.41230  0.48730  0.04160  Biso   1.000  H
  H144     1.0000 0.91230  0.98730  0.04160  Biso   1.000  H
  C185     1.0000 0.44710  0.41856  0.55460  Biso   1.000  C
  C186     1.0000 0.94710  0.91856  0.55460  Biso   1.000  C
  C187     1.0000 0.55290  0.41856  0.94540  Biso   1.000  C
  C188     1.0000 0.05290  0.91856  0.94540  Biso   1.000  C
  C189     1.0000 0.55290  0.58144  0.44540  Biso   1.000  C
  C190     1.0000 0.05290  0.08144  0.44540  Biso   1.000  C
  C191     1.0000 0.44710  0.58144  0.05460  Biso   1.000  C
  C192     1.0000 0.94710  0.08144  0.05460  Biso   1.000  C
  H145     1.0000 0.48610  0.42270  0.60900  Biso   1.000  H
  H146     1.0000 0.98610  0.92270  0.60900  Biso   1.000  H
  H147     1.0000 0.51390  0.42270  0.89100  Biso   1.000  H
  H148     1.0000 0.01390  0.92270  0.89100  Biso   1.000  H
  H149     1.0000 0.51390  0.57730  0.39100  Biso   1.000  H
  H150     1.0000 0.01390  0.07730  0.39100  Biso   1.000  H
  H151     1.0000 0.48610  0.57730  0.10900  Biso   1.000  H
  H152     1.0000 0.98610  0.07730  0.10900  Biso   1.000  H
  N81      1.0000 0.50000  0.91673  0.25000  Biso   1.000  N
  N82      1.0000 0.00000  0.41673  0.25000  Biso   1.000  N
  N83      1.0000 0.50000  0.08327  0.75000  Biso   1.000  N
  N84      1.0000 0.00000  0.58327  0.75000  Biso   1.000  N
  O1       1.0000 0.53758  0.94585  0.31290  Biso   1.000  O
  O2       1.0000 0.03758  0.44585  0.31290  Biso   1.000  O
  O3       1.0000 0.46242  0.94585  0.18710  Biso   1.000  O
  O4       1.0000 0.96242  0.44585  0.18710  Biso   1.000  O
  O5       1.0000 0.46242  0.05415  0.68710  Biso   1.000  O
  O6       1.0000 0.96242  0.55415  0.68710  Biso   1.000  O
  O7       1.0000 0.53758  0.05415  0.81290  Biso   1.000  O
  O8       1.0000 0.03758  0.55415  0.81290  Biso   1.000  O
  O9       1.0000 0.50000  0.85593  0.25000  Biso   1.000  O
  O10      1.0000 0.00000  0.35593  0.25000  Biso   1.000  O
  O11      1.0000 0.50000  0.14407  0.75000  Biso   1.000  O
  O12      1.0000 0.00000  0.64407  0.75000  Biso   1.000  O
  N85      1.0000 0.50000  0.33860  0.75000  Biso   1.000  N
  N86      1.0000 0.00000  0.83860  0.75000  Biso   1.000  N
  N87      1.0000 0.50000  0.66140  0.25000  Biso   1.000  N
  N88      1.0000 0.00000  0.16140  0.25000  Biso   1.000  N
  O13      1.0000 0.46850  0.30834  0.68447  Biso   1.000  O
  O14      1.0000 0.96850  0.80834  0.68447  Biso   1.000  O
  O15      1.0000 0.53150  0.30834  0.81553  Biso   1.000  O
  O16      1.0000 0.03150  0.80834  0.81553  Biso   1.000  O
  O17      1.0000 0.53150  0.69166  0.31553  Biso   1.000  O
  O18      1.0000 0.03150  0.19166  0.31553  Biso   1.000  O
  O19      1.0000 0.46850  0.69166  0.18447  Biso   1.000  O
  O20      1.0000 0.96850  0.19166  0.18447  Biso   1.000  O
  O21      1.0000 0.50000  0.39910  0.75000  Biso   1.000  O
  O22      1.0000 0.00000  0.89910  0.75000  Biso   1.000  O
  O23      1.0000 0.50000  0.60090  0.25000  Biso   1.000  O
  O24      1.0000 0.00000  0.10090  0.25000  Biso   1.000  O
  N89      1.0000 0.64012  0.20795  0.69207  Biso   1.000  N
  N90      1.0000 0.14012  0.70795  0.69207  Biso   1.000  N
  N91      1.0000 0.35988  0.20795  0.80793  Biso   1.000  N
  N92      1.0000 0.85988  0.70795  0.80793  Biso   1.000  N
  N93      1.0000 0.35988  0.79205  0.30793  Biso   1.000  N
  N94      1.0000 0.85988  0.29205  0.30793  Biso   1.000  N
  N95      1.0000 0.64012  0.79205  0.19207  Biso   1.000  N
  N96      1.0000 0.14012  0.29205  0.19207  Biso   1.000  N
  O25      1.0000 0.57573  0.20654  0.62271  Biso   1.000  O
  O26      1.0000 0.07573  0.70654  0.62271  Biso   1.000  O
  O27      1.0000 0.42427  0.20654  0.87729  Biso   1.000  O
  O28      1.0000 0.92427  0.70654  0.87729  Biso   1.000  O
  O29      1.0000 0.42427  0.79346  0.37729  Biso   1.000  O
  O30      1.0000 0.92427  0.29346  0.37729  Biso   1.000  O
  O31      1.0000 0.57573  0.79346  0.12271  Biso   1.000  O
  O32      1.0000 0.07573  0.29346  0.12271  Biso   1.000  O
  O33      1.0000 0.65326  0.25689  0.73262  Biso   1.000  O
  O34      1.0000 0.15326  0.75689  0.73262  Biso   1.000  O
  O35      1.0000 0.34674  0.25689  0.76738  Biso   1.000  O
  O36      1.0000 0.84674  0.75689  0.76738  Biso   1.000  O
  O37      1.0000 0.34674  0.74311  0.26738  Biso   1.000  O
  O38      1.0000 0.84674  0.24311  0.26738  Biso   1.000  O
  O39      1.0000 0.65326  0.74311  0.23262  Biso   1.000  O
  O40      1.0000 0.15326  0.24311  0.23262  Biso   1.000  O
  O41      1.0000 0.68401  0.15797  0.71334  Biso   1.000  O
  O42      1.0000 0.18401  0.65797  0.71334  Biso   1.000  O
  O43      1.0000 0.31599  0.15797  0.78666  Biso   1.000  O
  O44      1.0000 0.81599  0.65797  0.78666  Biso   1.000  O
  O45      1.0000 0.31599  0.84203  0.28666  Biso   1.000  O
  O46      1.0000 0.81599  0.34203  0.28666  Biso   1.000  O
  O47      1.0000 0.68401  0.84203  0.21334  Biso   1.000  O
  O48      1.0000 0.18401  0.34203  0.21334  Biso   1.000  O
  N97      1.0000 0.61884  0.34771  0.52486  Biso   1.000  N
  N98      1.0000 0.11884  0.84771  0.52486  Biso   1.000  N
  N99      1.0000 0.38116  0.34771  0.97514  Biso   1.000  N
  N100     1.0000 0.88116  0.84771  0.97514  Biso   1.000  N
  N101     1.0000 0.38116  0.65229  0.47514  Biso   1.000  N
  N102     1.0000 0.88116  0.15229  0.47514  Biso   1.000  N
  N103     1.0000 0.61884  0.65229  0.02486  Biso   1.000  N
  N104     1.0000 0.11884  0.15229  0.02486  Biso   1.000  N
  O49      1.0000 0.61466  0.33755  0.59337  Biso   1.000  O
  O50      1.0000 0.11466  0.83755  0.59337  Biso   1.000  O
  O51      1.0000 0.38534  0.33755  0.90663  Biso   1.000  O
  O52      1.0000 0.88534  0.83755  0.90663  Biso   1.000  O
  O53      1.0000 0.38534  0.66245  0.40663  Biso   1.000  O
  O54      1.0000 0.88534  0.16245  0.40663  Biso   1.000  O
  O55      1.0000 0.61466  0.66245  0.09337  Biso   1.000  O
  O56      1.0000 0.11466  0.16245  0.09337  Biso   1.000  O
  O57      1.0000 0.57203  0.31573  0.46655  Biso   1.000  O
  O58      1.0000 0.07203  0.81573  0.46655  Biso   1.000  O
  O59      1.0000 0.42797  0.31573  0.03345  Biso   1.000  O
  O60      1.0000 0.92797  0.81573  0.03345  Biso   1.000  O
  O61      1.0000 0.42797  0.68427  0.53345  Biso   1.000  O
  O62      1.0000 0.92797  0.18427  0.53345  Biso   1.000  O
  O63      1.0000 0.57203  0.68427  0.96655  Biso   1.000  O
  O64      1.0000 0.07203  0.18427  0.96655  Biso   1.000  O
  O65      1.0000 0.66925  0.38883  0.52060  Biso   1.000  O
  O66      1.0000 0.16925  0.88883  0.52060  Biso   1.000  O
  O67      1.0000 0.33075  0.38883  0.97940  Biso   1.000  O
  O68      1.0000 0.83075  0.88883  0.97940  Biso   1.000  O
  O69      1.0000 0.33075  0.61117  0.47940  Biso   1.000  O
  O70      1.0000 0.83075  0.11117  0.47940  Biso   1.000  O
  O71      1.0000 0.66925  0.61117  0.02060  Biso   1.000  O
  O72      1.0000 0.16925  0.11117  0.02060  Biso   1.000  O
