data_image0
_cell_length_a       15.543
_cell_length_b       17.497
_cell_length_c       19.26
_cell_angle_alpha    90
_cell_angle_beta     110.069
_cell_angle_gamma    90

_symmetry_space_group_name_H-M    "P 1"
_symmetry_int_tables_number       1

loop_
  _symmetry_equiv_pos_as_xyz
  'x, y, z'

loop_
  _atom_site_label
  _atom_site_occupancy
  _atom_site_fract_x
  _atom_site_fract_y
  _atom_site_fract_z
  _atom_site_thermal_displace_type
  _atom_site_B_iso_or_equiv
  _atom_site_type_symbol
  Er1      1.0000 0.48158  0.83469  0.19662  Biso   1.000  Er
  Er2      1.0000 0.01842  0.33469  0.30338  Biso   1.000  Er
  Er3      1.0000 0.51842  0.16531  0.80338  Biso   1.000  Er
  Er4      1.0000 0.98158  0.66531  0.69662  Biso   1.000  Er
  Cu1      1.0000 0.19147  0.03737  0.25643  Biso   1.000  Cu
  Cu2      1.0000 0.30853  0.53737  0.24357  Biso   1.000  Cu
  Cu3      1.0000 0.80853  0.96263  0.74357  Biso   1.000  Cu
  Cu4      1.0000 0.69147  0.46263  0.75643  Biso   1.000  Cu
  Cu5      1.0000 0.78930  0.63396  0.22584  Biso   1.000  Cu
  Cu6      1.0000 0.71070  0.13396  0.27416  Biso   1.000  Cu
  Cu7      1.0000 0.21070  0.36604  0.77416  Biso   1.000  Cu
  Cu8      1.0000 0.28930  0.86604  0.72584  Biso   1.000  Cu
  Cu9      1.0000 0.07666  0.85619  0.30407  Biso   1.000  Cu
  Cu10     1.0000 0.42334  0.35619  0.19593  Biso   1.000  Cu
  Cu11     1.0000 0.92334  0.14381  0.69593  Biso   1.000  Cu
  Cu12     1.0000 0.57666  0.64381  0.80407  Biso   1.000  Cu
  Cu13     1.0000 0.93295  0.81566  0.18843  Biso   1.000  Cu
  Cu14     1.0000 0.56705  0.31566  0.31157  Biso   1.000  Cu
  Cu15     1.0000 0.06705  0.18434  0.81157  Biso   1.000  Cu
  Cu16     1.0000 0.43295  0.68434  0.68843  Biso   1.000  Cu
  C1       1.0000 0.16420  0.09770  0.11170  Biso   1.000  C
  C2       1.0000 0.33580  0.59770  0.38830  Biso   1.000  C
  C3       1.0000 0.83580  0.90230  0.88830  Biso   1.000  C
  C4       1.0000 0.66420  0.40230  0.61170  Biso   1.000  C
  H1       1.0000 0.11060  0.12830  0.10750  Biso   1.000  H
  H2       1.0000 0.38940  0.62830  0.39250  Biso   1.000  H
  H3       1.0000 0.88940  0.87170  0.89250  Biso   1.000  H
  H4       1.0000 0.61060  0.37170  0.60750  Biso   1.000  H
  H5       1.0000 0.16650  0.09050  0.06240  Biso   1.000  H
  H6       1.0000 0.33350  0.59050  0.43760  Biso   1.000  H
  H7       1.0000 0.83350  0.90950  0.93760  Biso   1.000  H
  H8       1.0000 0.66650  0.40950  0.56240  Biso   1.000  H
  C5       1.0000 0.24880  0.13980  0.15830  Biso   1.000  C
  C6       1.0000 0.25120  0.63980  0.34170  Biso   1.000  C
  C7       1.0000 0.75120  0.86020  0.84170  Biso   1.000  C
  C8       1.0000 0.74880  0.36020  0.65830  Biso   1.000  C
  H9       1.0000 0.30250  0.11080  0.15950  Biso   1.000  H
  H10      1.0000 0.19750  0.61080  0.34050  Biso   1.000  H
  H11      1.0000 0.69750  0.88920  0.84050  Biso   1.000  H
  H12      1.0000 0.80250  0.38920  0.65950  Biso   1.000  H
  H13      1.0000 0.25130  0.18890  0.13580  Biso   1.000  H
  H14      1.0000 0.24870  0.68890  0.36420  Biso   1.000  H
  H15      1.0000 0.74870  0.81110  0.86420  Biso   1.000  H
  H16      1.0000 0.75130  0.31110  0.63580  Biso   1.000  H
  C9       1.0000 0.06160  0.99150  0.11310  Biso   1.000  C
  C10      1.0000 0.43840  0.49150  0.38690  Biso   1.000  C
  C11      1.0000 0.93840  0.00850  0.88690  Biso   1.000  C
  C12      1.0000 0.56160  0.50850  0.61310  Biso   1.000  C
  H17      1.0000 0.05200  0.97090  0.06430  Biso   1.000  H
  H18      1.0000 0.44800  0.47090  0.43570  Biso   1.000  H
  H19      1.0000 0.94800  0.02910  0.93570  Biso   1.000  H
  H20      1.0000 0.55200  0.52910  0.56430  Biso   1.000  H
  H21      1.0000 0.01860  0.03310  0.10790  Biso   1.000  H
  H22      1.0000 0.48140  0.53310  0.39210  Biso   1.000  H
  H23      1.0000 0.98140  0.96690  0.89210  Biso   1.000  H
  H24      1.0000 0.51860  0.46690  0.60790  Biso   1.000  H
  C13      1.0000 0.04310  0.92990  0.16110  Biso   1.000  C
  C14      1.0000 0.45690  0.42990  0.33890  Biso   1.000  C
  C15      1.0000 0.95690  0.07010  0.83890  Biso   1.000  C
  C16      1.0000 0.54310  0.57010  0.66110  Biso   1.000  C
  C17      1.0000 0.22230  0.96510  0.13420  Biso   1.000  C
  C18      1.0000 0.27770  0.46510  0.36580  Biso   1.000  C
  C19      1.0000 0.77770  0.03490  0.86580  Biso   1.000  C
  C20      1.0000 0.72230  0.53490  0.63420  Biso   1.000  C
  H25      1.0000 0.24790  0.98520  0.09860  Biso   1.000  H
  H26      1.0000 0.25210  0.48520  0.40140  Biso   1.000  H
  H27      1.0000 0.75210  0.01480  0.90140  Biso   1.000  H
  H28      1.0000 0.74790  0.51480  0.59860  Biso   1.000  H
  H29      1.0000 0.18980  0.91830  0.11400  Biso   1.000  H
  H30      1.0000 0.31020  0.41830  0.38600  Biso   1.000  H
  H31      1.0000 0.81020  0.08170  0.88600  Biso   1.000  H
  H32      1.0000 0.68980  0.58170  0.61400  Biso   1.000  H
  C21      1.0000 0.29950  0.94640  0.20490  Biso   1.000  C
  C22      1.0000 0.20050  0.44640  0.29510  Biso   1.000  C
  C23      1.0000 0.70050  0.05360  0.79510  Biso   1.000  C
  C24      1.0000 0.79950  0.55360  0.70490  Biso   1.000  C
  C25      1.0000 0.18270  0.20860  0.23990  Biso   1.000  C
  C26      1.0000 0.31730  0.70860  0.26010  Biso   1.000  C
  C27      1.0000 0.81730  0.79140  0.76010  Biso   1.000  C
  C28      1.0000 0.68270  0.29140  0.73990  Biso   1.000  C
  H33      1.0000 0.16370  0.23890  0.19510  Biso   1.000  H
  H34      1.0000 0.33630  0.73890  0.30490  Biso   1.000  H
  H35      1.0000 0.83630  0.76110  0.80490  Biso   1.000  H
  H36      1.0000 0.66370  0.26110  0.69510  Biso   1.000  H
  H37      1.0000 0.21160  0.24280  0.28090  Biso   1.000  H
  H38      1.0000 0.28840  0.74280  0.21910  Biso   1.000  H
  H39      1.0000 0.78840  0.75720  0.71910  Biso   1.000  H
  H40      1.0000 0.71160  0.25720  0.78090  Biso   1.000  H
  C29      1.0000 0.09860  0.17450  0.25000  Biso   1.000  C
  C30      1.0000 0.40140  0.67450  0.25000  Biso   1.000  C
  C31      1.0000 0.90140  0.82550  0.75000  Biso   1.000  C
  C32      1.0000 0.59860  0.32550  0.75000  Biso   1.000  C
  C33      1.0000 0.34110  0.16320  0.28800  Biso   1.000  C
  C34      1.0000 0.15890  0.66320  0.21200  Biso   1.000  C
  C35      1.0000 0.65890  0.83680  0.71200  Biso   1.000  C
  C36      1.0000 0.84110  0.33680  0.78800  Biso   1.000  C
  H41      1.0000 0.37620  0.11710  0.28880  Biso   1.000  H
  H42      1.0000 0.12380  0.61710  0.21120  Biso   1.000  H
  H43      1.0000 0.62380  0.88290  0.71120  Biso   1.000  H
  H44      1.0000 0.87620  0.38290  0.78880  Biso   1.000  H
  H45      1.0000 0.33560  0.16830  0.33650  Biso   1.000  H
  H46      1.0000 0.16440  0.66830  0.16350  Biso   1.000  H
  H47      1.0000 0.66440  0.83170  0.66350  Biso   1.000  H
  H48      1.0000 0.83560  0.33170  0.83650  Biso   1.000  H
  C37      1.0000 0.39630  0.23060  0.27670  Biso   1.000  C
  C38      1.0000 0.10370  0.73060  0.22330  Biso   1.000  C
  C39      1.0000 0.60370  0.76940  0.72330  Biso   1.000  C
  C40      1.0000 0.89630  0.26940  0.77670  Biso   1.000  C
  C41      1.0000 0.80210  0.59440  0.37350  Biso   1.000  C
  C42      1.0000 0.69790  0.09440  0.12650  Biso   1.000  C
  C43      1.0000 0.19790  0.40560  0.62650  Biso   1.000  C
  C44      1.0000 0.30210  0.90560  0.87350  Biso   1.000  C
  H49      1.0000 0.79710  0.60990  0.42030  Biso   1.000  H
  H50      1.0000 0.70290  0.10990  0.07970  Biso   1.000  H
  H51      1.0000 0.20290  0.39010  0.57970  Biso   1.000  H
  H52      1.0000 0.29710  0.89010  0.92030  Biso   1.000  H
  H53      1.0000 0.85300  0.55900  0.38380  Biso   1.000  H
  H54      1.0000 0.64700  0.05900  0.11620  Biso   1.000  H
  H55      1.0000 0.14700  0.44100  0.61620  Biso   1.000  H
  H56      1.0000 0.35300  0.94100  0.88380  Biso   1.000  H
  C45      1.0000 0.71440  0.55470  0.32710  Biso   1.000  C
  C46      1.0000 0.78560  0.05470  0.17290  Biso   1.000  C
  C47      1.0000 0.28560  0.44530  0.67290  Biso   1.000  C
  C48      1.0000 0.21440  0.94530  0.82710  Biso   1.000  C
  H57      1.0000 0.70420  0.51040  0.35350  Biso   1.000  H
  H58      1.0000 0.79580  0.01040  0.14650  Biso   1.000  H
  H59      1.0000 0.29580  0.48960  0.64650  Biso   1.000  H
  H60      1.0000 0.20420  0.98960  0.85350  Biso   1.000  H
  H61      1.0000 0.66310  0.58930  0.31900  Biso   1.000  H
  H62      1.0000 0.83690  0.08930  0.18100  Biso   1.000  H
  H63      1.0000 0.33690  0.41070  0.68100  Biso   1.000  H
  H64      1.0000 0.16310  0.91070  0.81900  Biso   1.000  H
  C49      1.0000 0.91810  0.68580  0.36860  Biso   1.000  C
  C50      1.0000 0.58190  0.18580  0.13140  Biso   1.000  C
  C51      1.0000 0.08190  0.31420  0.63140  Biso   1.000  C
  C52      1.0000 0.41810  0.81420  0.86860  Biso   1.000  C
  H65      1.0000 0.95630  0.64060  0.37600  Biso   1.000  H
  H66      1.0000 0.54370  0.14060  0.12400  Biso   1.000  H
  H67      1.0000 0.04370  0.35940  0.62400  Biso   1.000  H
  H68      1.0000 0.45630  0.85940  0.87600  Biso   1.000  H
  H69      1.0000 0.92750  0.70840  0.41670  Biso   1.000  H
  H70      1.0000 0.57250  0.20840  0.08330  Biso   1.000  H
  H71      1.0000 0.07250  0.29160  0.58330  Biso   1.000  H
  H72      1.0000 0.42750  0.79160  0.91670  Biso   1.000  H
  C53      1.0000 0.94730  0.74310  0.32080  Biso   1.000  C
  C54      1.0000 0.55270  0.24310  0.17920  Biso   1.000  C
  C55      1.0000 0.05270  0.25690  0.67920  Biso   1.000  C
  C56      1.0000 0.44730  0.75690  0.82080  Biso   1.000  C
  C57      1.0000 0.75960  0.72840  0.33610  Biso   1.000  C
  C58      1.0000 0.74040  0.22840  0.16390  Biso   1.000  C
  C59      1.0000 0.24040  0.27160  0.66390  Biso   1.000  C
  C60      1.0000 0.25960  0.77160  0.83610  Biso   1.000  C
  H73      1.0000 0.79660  0.77390  0.35260  Biso   1.000  H
  H74      1.0000 0.70340  0.27390  0.14740  Biso   1.000  H
  H75      1.0000 0.20340  0.22610  0.64740  Biso   1.000  H
  H76      1.0000 0.29660  0.72610  0.85260  Biso   1.000  H
  H77      1.0000 0.72990  0.71730  0.37180  Biso   1.000  H
  H78      1.0000 0.77010  0.21730  0.12820  Biso   1.000  H
  H79      1.0000 0.27010  0.28270  0.62820  Biso   1.000  H
  H80      1.0000 0.22990  0.78270  0.87180  Biso   1.000  H
  C61      1.0000 0.68750  0.74410  0.26220  Biso   1.000  C
  C62      1.0000 0.81250  0.24410  0.23780  Biso   1.000  C
  C63      1.0000 0.31250  0.25590  0.73780  Biso   1.000  C
  C64      1.0000 0.18750  0.75590  0.76220  Biso   1.000  C
  C65      1.0000 0.78600  0.46760  0.26200  Biso   1.000  C
  C66      1.0000 0.71400  0.96760  0.23800  Biso   1.000  C
  C67      1.0000 0.21400  0.53240  0.73800  Biso   1.000  C
  C68      1.0000 0.28600  0.03240  0.76200  Biso   1.000  C
  H81      1.0000 0.76100  0.43250  0.22100  Biso   1.000  H
  H82      1.0000 0.73900  0.93250  0.27900  Biso   1.000  H
  H83      1.0000 0.23900  0.56750  0.77900  Biso   1.000  H
  H84      1.0000 0.26100  0.06750  0.72100  Biso   1.000  H
  H85      1.0000 0.79360  0.43950  0.30720  Biso   1.000  H
  H86      1.0000 0.70640  0.93950  0.19280  Biso   1.000  H
  H87      1.0000 0.20640  0.56050  0.69280  Biso   1.000  H
  H88      1.0000 0.29360  0.06050  0.80720  Biso   1.000  H
  C69      1.0000 0.87930  0.49430  0.26330  Biso   1.000  C
  C70      1.0000 0.62070  0.99430  0.23670  Biso   1.000  C
  C71      1.0000 0.12070  0.50570  0.73670  Biso   1.000  C
  C72      1.0000 0.37930  0.00570  0.76330  Biso   1.000  C
  C73      1.0000 0.62860  0.51270  0.20230  Biso   1.000  C
  C74      1.0000 0.87140  0.01270  0.29770  Biso   1.000  C
  C75      1.0000 0.37140  0.48730  0.79770  Biso   1.000  C
  C76      1.0000 0.12860  0.98730  0.70230  Biso   1.000  C
  H89      1.0000 0.63500  0.50360  0.15460  Biso   1.000  H
  H90      1.0000 0.86500  0.00360  0.34540  Biso   1.000  H
  H91      1.0000 0.36500  0.49640  0.84540  Biso   1.000  H
  H92      1.0000 0.13500  0.99640  0.65460  Biso   1.000  H
  H93      1.0000 0.59050  0.55770  0.19720  Biso   1.000  H
  H94      1.0000 0.90950  0.05770  0.30280  Biso   1.000  H
  H95      1.0000 0.40950  0.44230  0.80280  Biso   1.000  H
  H96      1.0000 0.09050  0.94230  0.69720  Biso   1.000  H
  C77      1.0000 0.57770  0.44520  0.21940  Biso   1.000  C
  C78      1.0000 0.92230  0.94520  0.28060  Biso   1.000  C
  C79      1.0000 0.42230  0.55480  0.78060  Biso   1.000  C
  C80      1.0000 0.07770  0.05480  0.71940  Biso   1.000  C
  N1       1.0000 0.15580  0.02150  0.14430  Biso   1.000  N
  N2       1.0000 0.34420  0.52150  0.35570  Biso   1.000  N
  N3       1.0000 0.84420  0.97850  0.85570  Biso   1.000  N
  N4       1.0000 0.65580  0.47850  0.64430  Biso   1.000  N
  N5       1.0000 0.25120  0.15210  0.23550  Biso   1.000  N
  N6       1.0000 0.24880  0.65210  0.26450  Biso   1.000  N
  N7       1.0000 0.74880  0.84790  0.76450  Biso   1.000  N
  N8       1.0000 0.75120  0.34790  0.73550  Biso   1.000  N
  N9       1.0000 0.82040  0.66330  0.33410  Biso   1.000  N
  N10      1.0000 0.67960  0.16330  0.16590  Biso   1.000  N
  N11      1.0000 0.17960  0.33670  0.66590  Biso   1.000  N
  N12      1.0000 0.32040  0.83670  0.83410  Biso   1.000  N
  N13      1.0000 0.71900  0.53040  0.25500  Biso   1.000  N
  N14      1.0000 0.78100  0.03040  0.24500  Biso   1.000  N
  N15      1.0000 0.28100  0.46960  0.74500  Biso   1.000  N
  N16      1.0000 0.21900  0.96960  0.75500  Biso   1.000  N
  O1       1.0000 0.09650  0.92420  0.22750  Biso   1.000  O
  O2       1.0000 0.40350  0.42420  0.27250  Biso   1.000  O
  O3       1.0000 0.90350  0.07580  0.77250  Biso   1.000  O
  O4       1.0000 0.59650  0.57580  0.72750  Biso   1.000  O
  O5       1.0000 0.97520  0.88830  0.13120  Biso   1.000  O
  O6       1.0000 0.52480  0.38830  0.36880  Biso   1.000  O
  O7       1.0000 0.02480  0.11170  0.86880  Biso   1.000  O
  O8       1.0000 0.47520  0.61170  0.63120  Biso   1.000  O
  O9       1.0000 0.29770  0.97360  0.26450  Biso   1.000  O
  O10      1.0000 0.20230  0.47360  0.23550  Biso   1.000  O
  O11      1.0000 0.70230  0.02640  0.73550  Biso   1.000  O
  O12      1.0000 0.79770  0.52640  0.76450  Biso   1.000  O
  O13      1.0000 0.35900  0.90230  0.19950  Biso   1.000  O
  O14      1.0000 0.14100  0.40230  0.30050  Biso   1.000  O
  O15      1.0000 0.64100  0.09770  0.80050  Biso   1.000  O
  O16      1.0000 0.85900  0.59770  0.69950  Biso   1.000  O
  O17      1.0000 0.08830  0.10290  0.25010  Biso   1.000  O
  O18      1.0000 0.41170  0.60290  0.24990  Biso   1.000  O
  O19      1.0000 0.91170  0.89710  0.74990  Biso   1.000  O
  O20      1.0000 0.58830  0.39710  0.75010  Biso   1.000  O
  O21      1.0000 0.03990  0.22030  0.25790  Biso   1.000  O
  O22      1.0000 0.46010  0.72030  0.24210  Biso   1.000  O
  O23      1.0000 0.96010  0.77970  0.74210  Biso   1.000  O
  O24      1.0000 0.53990  0.27970  0.75790  Biso   1.000  O
  O25      1.0000 0.35640  0.27600  0.22430  Biso   1.000  O
  O26      1.0000 0.14360  0.77600  0.27570  Biso   1.000  O
  O27      1.0000 0.64360  0.72400  0.77570  Biso   1.000  O
  O28      1.0000 0.85640  0.22400  0.72430  Biso   1.000  O
  O29      1.0000 0.47820  0.23610  0.32040  Biso   1.000  O
  O30      1.0000 0.02180  0.73610  0.17960  Biso   1.000  O
  O31      1.0000 0.52180  0.76390  0.67960  Biso   1.000  O
  O32      1.0000 0.97820  0.26390  0.82040  Biso   1.000  O
  O33      1.0000 0.22410  0.03460  0.36560  Biso   1.000  O
  O34      1.0000 0.27590  0.53460  0.13440  Biso   1.000  O
  O35      1.0000 0.77590  0.96540  0.63440  Biso   1.000  O
  O36      1.0000 0.72410  0.46540  0.86560  Biso   1.000  O
  H97      1.0000 0.19070  0.06540  0.37940  Biso   1.000  H
  H98      1.0000 0.30930  0.56540  0.12060  Biso   1.000  H
  H99      1.0000 0.80930  0.93460  0.62060  Biso   1.000  H
  H100     1.0000 0.69070  0.43460  0.87940  Biso   1.000  H
  H101     1.0000 0.27990  0.04680  0.38690  Biso   1.000  H
  H102     1.0000 0.22010  0.54680  0.11310  Biso   1.000  H
  H103     1.0000 0.72010  0.95320  0.61310  Biso   1.000  H
  H104     1.0000 0.77990  0.45320  0.88690  Biso   1.000  H
  O37      1.0000 0.76610  0.62550  0.11830  Biso   1.000  O
  O38      1.0000 0.73390  0.12550  0.38170  Biso   1.000  O
  O39      1.0000 0.23390  0.37450  0.88170  Biso   1.000  O
  O40      1.0000 0.26610  0.87450  0.61830  Biso   1.000  O
  H105     1.0000 0.70880  0.62540  0.09460  Biso   1.000  H
  H106     1.0000 0.79120  0.12540  0.40540  Biso   1.000  H
  H107     1.0000 0.29120  0.37460  0.90540  Biso   1.000  H
  H108     1.0000 0.20880  0.87460  0.59460  Biso   1.000  H
  H109     1.0000 0.78850  0.58410  0.10900  Biso   1.000  H
  H110     1.0000 0.71150  0.08410  0.39100  Biso   1.000  H
  H111     1.0000 0.21150  0.41590  0.89100  Biso   1.000  H
  H112     1.0000 0.28850  0.91590  0.60900  Biso   1.000  H
  O41      1.0000 0.89820  0.74570  0.25340  Biso   1.000  O
  O42      1.0000 0.60180  0.24570  0.24660  Biso   1.000  O
  O43      1.0000 0.10180  0.25430  0.74660  Biso   1.000  O
  O44      1.0000 0.39820  0.75430  0.75340  Biso   1.000  O
  O45      1.0000 0.01820  0.78000  0.35230  Biso   1.000  O
  O46      1.0000 0.48180  0.28000  0.14770  Biso   1.000  O
  O47      1.0000 0.98180  0.22000  0.64770  Biso   1.000  O
  O48      1.0000 0.51820  0.72000  0.85230  Biso   1.000  O
  O49      1.0000 0.68860  0.70650  0.20700  Biso   1.000  O
  O50      1.0000 0.81140  0.20650  0.29300  Biso   1.000  O
  O51      1.0000 0.31140  0.29350  0.79300  Biso   1.000  O
  O52      1.0000 0.18860  0.79350  0.70700  Biso   1.000  O
  O53      1.0000 0.63040  0.79550  0.26080  Biso   1.000  O
  O54      1.0000 0.86960  0.29550  0.23920  Biso   1.000  O
  O55      1.0000 0.36960  0.20450  0.73920  Biso   1.000  O
  O56      1.0000 0.13040  0.70450  0.76080  Biso   1.000  O
  O57      1.0000 0.89100  0.56260  0.24720  Biso   1.000  O
  O58      1.0000 0.60900  0.06260  0.25280  Biso   1.000  O
  O59      1.0000 0.10900  0.43740  0.75280  Biso   1.000  O
  O60      1.0000 0.39100  0.93740  0.74720  Biso   1.000  O
  O61      1.0000 0.94210  0.44620  0.27960  Biso   1.000  O
  O62      1.0000 0.55790  0.94620  0.22040  Biso   1.000  O
  O63      1.0000 0.05790  0.55380  0.72040  Biso   1.000  O
  O64      1.0000 0.44210  0.05380  0.77960  Biso   1.000  O
  O65      1.0000 0.61930  0.40250  0.27260  Biso   1.000  O
  O66      1.0000 0.88070  0.90250  0.22740  Biso   1.000  O
  O67      1.0000 0.38070  0.59750  0.72740  Biso   1.000  O
  O68      1.0000 0.11930  0.09750  0.77260  Biso   1.000  O
  O69      1.0000 0.49670  0.43630  0.17570  Biso   1.000  O
  O70      1.0000 0.00330  0.93630  0.32430  Biso   1.000  O
  O71      1.0000 0.50330  0.56370  0.82430  Biso   1.000  O
  O72      1.0000 0.99670  0.06370  0.67570  Biso   1.000  O
  O73      1.0000 0.19300  0.88190  0.40120  Biso   1.000  O
  O74      1.0000 0.30700  0.38190  0.09880  Biso   1.000  O
  O75      1.0000 0.80700  0.11810  0.59880  Biso   1.000  O
  O76      1.0000 0.69300  0.61810  0.90120  Biso   1.000  O
  H113     1.0000 0.21170  0.92760  0.40120  Biso   1.000  H
  H114     1.0000 0.28830  0.42760  0.09880  Biso   1.000  H
  H115     1.0000 0.78830  0.07240  0.59880  Biso   1.000  H
  H116     1.0000 0.71170  0.57240  0.90120  Biso   1.000  H
  H117     1.0000 0.23690  0.85080  0.40700  Biso   1.000  H
  H118     1.0000 0.26310  0.35080  0.09300  Biso   1.000  H
  H119     1.0000 0.76310  0.14920  0.59300  Biso   1.000  H
  H120     1.0000 0.73690  0.64920  0.90700  Biso   1.000  H
  O77      1.0000 0.82460  0.77670  0.09260  Biso   1.000  O
  O78      1.0000 0.67540  0.27670  0.40740  Biso   1.000  O
  O79      1.0000 0.17540  0.22330  0.90740  Biso   1.000  O
  O80      1.0000 0.32460  0.72330  0.59260  Biso   1.000  O
  H121     1.0000 0.84310  0.77540  0.05590  Biso   1.000  H
  H122     1.0000 0.65690  0.27540  0.44410  Biso   1.000  H
  H123     1.0000 0.15690  0.22460  0.94410  Biso   1.000  H
  H124     1.0000 0.34310  0.72460  0.55590  Biso   1.000  H
  H125     1.0000 0.77970  0.80750  0.08250  Biso   1.000  H
  H126     1.0000 0.72030  0.30750  0.41750  Biso   1.000  H
  H127     1.0000 0.22030  0.19250  0.91750  Biso   1.000  H
  H128     1.0000 0.27970  0.69250  0.58250  Biso   1.000  H
  O81      1.0000 0.34830  0.77390  0.10810  Biso   1.000  O
  O82      1.0000 0.15170  0.27390  0.39190  Biso   1.000  O
  O83      1.0000 0.65170  0.22610  0.89190  Biso   1.000  O
  O84      1.0000 0.84830  0.72610  0.60810  Biso   1.000  O
  H129     1.0000 0.36420  0.73410  0.09040  Biso   1.000  H
  H130     1.0000 0.13580  0.23410  0.40960  Biso   1.000  H
  H131     1.0000 0.63580  0.26590  0.90960  Biso   1.000  H
  H132     1.0000 0.86420  0.76590  0.59040  Biso   1.000  H
  H133     1.0000 0.32220  0.80440  0.07280  Biso   1.000  H
  H134     1.0000 0.17780  0.30440  0.42720  Biso   1.000  H
  H135     1.0000 0.67780  0.19560  0.92720  Biso   1.000  H
  H136     1.0000 0.82220  0.69560  0.57280  Biso   1.000  H
  O85      1.0000 0.50970  0.85420  0.32460  Biso   1.000  O
  O86      1.0000 0.99030  0.35420  0.17540  Biso   1.000  O
  O87      1.0000 0.49030  0.14580  0.67540  Biso   1.000  O
  O88      1.0000 0.00970  0.64580  0.82460  Biso   1.000  O
  H137     1.0000 0.54130  0.89500  0.33540  Biso   1.000  H
  H138     1.0000 0.95870  0.39500  0.16460  Biso   1.000  H
  H139     1.0000 0.45870  0.10500  0.66460  Biso   1.000  H
  H140     1.0000 0.04130  0.60500  0.83540  Biso   1.000  H
  H141     1.0000 0.54550  0.81820  0.34650  Biso   1.000  H
  H142     1.0000 0.95450  0.31820  0.15350  Biso   1.000  H
  H143     1.0000 0.45450  0.18180  0.65350  Biso   1.000  H
  H144     1.0000 0.04550  0.68180  0.84650  Biso   1.000  H
  O89      1.0000 0.44070  0.90590  0.08150  Biso   1.000  O
  O90      1.0000 0.05930  0.40590  0.41850  Biso   1.000  O
  O91      1.0000 0.55930  0.09410  0.91850  Biso   1.000  O
  O92      1.0000 0.94070  0.59410  0.58150  Biso   1.000  O
  H145     1.0000 0.41280  0.87700  0.04530  Biso   1.000  H
  H146     1.0000 0.08720  0.37700  0.45470  Biso   1.000  H
  H147     1.0000 0.58720  0.12300  0.95470  Biso   1.000  H
  H148     1.0000 0.91280  0.62300  0.54530  Biso   1.000  H
  H149     1.0000 0.48880  0.92290  0.07530  Biso   1.000  H
  H150     1.0000 0.01120  0.42290  0.42470  Biso   1.000  H
  H151     1.0000 0.51120  0.07710  0.92470  Biso   1.000  H
  H152     1.0000 0.98880  0.57710  0.57530  Biso   1.000  H
  O93      1.0000 0.53200  0.76560  0.11250  Biso   1.000  O
  O94      1.0000 0.96800  0.26560  0.38750  Biso   1.000  O
  O95      1.0000 0.46800  0.23440  0.88750  Biso   1.000  O
  O96      1.0000 0.03200  0.73440  0.61250  Biso   1.000  O
  H153     1.0000 0.58580  0.74860  0.13400  Biso   1.000  H
  H154     1.0000 0.91420  0.24860  0.36600  Biso   1.000  H
  H155     1.0000 0.41420  0.25140  0.86600  Biso   1.000  H
  H156     1.0000 0.08580  0.75140  0.63400  Biso   1.000  H
  H157     1.0000 0.53250  0.79430  0.07700  Biso   1.000  H
  H158     1.0000 0.96750  0.29430  0.42300  Biso   1.000  H
  H159     1.0000 0.46750  0.20570  0.92300  Biso   1.000  H
  H160     1.0000 0.03250  0.70570  0.57700  Biso   1.000  H
  O97      1.0000 0.39400  0.35960  0.99310  Biso   1.000  O
  O98      1.0000 0.10600  0.85960  0.50690  Biso   1.000  O
  O99      1.0000 0.60600  0.64040  0.00690  Biso   1.000  O
  O100     1.0000 0.89400  0.14040  0.49310  Biso   1.000  O
  H161     1.0000 0.38430  0.36730  0.03330  Biso   1.000  H
  H162     1.0000 0.11570  0.86730  0.46670  Biso   1.000  H
  H163     1.0000 0.61570  0.63270  0.96670  Biso   1.000  H
  H164     1.0000 0.88430  0.13270  0.53330  Biso   1.000  H
  H165     1.0000 0.45100  0.35200  0.00310  Biso   1.000  H
  H166     1.0000 0.04900  0.85200  0.49690  Biso   1.000  H
  H167     1.0000 0.54900  0.64800  0.99690  Biso   1.000  H
  H168     1.0000 0.95100  0.14800  0.50310  Biso   1.000  H
  O101     1.0000 0.12300  0.36690  0.09640  Biso   1.000  O
  O102     1.0000 0.37700  0.86690  0.40360  Biso   1.000  O
  O103     1.0000 0.87700  0.63310  0.90360  Biso   1.000  O
  O104     1.0000 0.62300  0.13310  0.59640  Biso   1.000  O
  H169     1.0000 0.09670  0.32610  0.10240  Biso   1.000  H
  H170     1.0000 0.40330  0.82610  0.39760  Biso   1.000  H
  H171     1.0000 0.90330  0.67390  0.89760  Biso   1.000  H
  H172     1.0000 0.59670  0.17390  0.60240  Biso   1.000  H
  H173     1.0000 0.13140  0.39520  0.13400  Biso   1.000  H
  H174     1.0000 0.36860  0.89520  0.36600  Biso   1.000  H
  H175     1.0000 0.86860  0.60480  0.86600  Biso   1.000  H
  H176     1.0000 0.63140  0.10480  0.63400  Biso   1.000  H
  O105     1.0000 0.11600  0.56760  0.03120  Biso   1.000  O
  O106     1.0000 0.38400  0.06760  0.46880  Biso   1.000  O
  O107     1.0000 0.88400  0.43240  0.96880  Biso   1.000  O
  O108     1.0000 0.61600  0.93240  0.53120  Biso   1.000  O
  H177     1.0000 0.11100  0.61530  0.02250  Biso   1.000  H
  H178     1.0000 0.38900  0.11530  0.47750  Biso   1.000  H
  H179     1.0000 0.88900  0.38470  0.97750  Biso   1.000  H
  H180     1.0000 0.61100  0.88470  0.52250  Biso   1.000  H
  H181     1.0000 0.07160  0.55350  0.04450  Biso   1.000  H
  H182     1.0000 0.42840  0.05350  0.45550  Biso   1.000  H
  H183     1.0000 0.92840  0.44650  0.95550  Biso   1.000  H
  H184     1.0000 0.57160  0.94650  0.54450  Biso   1.000  H
  O109     1.0000 0.53900  0.13900  0.44500  Biso   1.000  O
  O110     1.0000 0.96100  0.63900  0.05500  Biso   1.000  O
  O111     1.0000 0.46100  0.86100  0.55500  Biso   1.000  O
  O112     1.0000 0.03900  0.36100  0.94500  Biso   1.000  O
  H185     1.0000 0.57400  0.16130  0.48350  Biso   1.000  H
  H186     1.0000 0.92600  0.66130  0.01650  Biso   1.000  H
  H187     1.0000 0.42600  0.83870  0.51650  Biso   1.000  H
  H188     1.0000 0.07400  0.33870  0.98350  Biso   1.000  H
  H189     1.0000 0.52370  0.17070  0.40910  Biso   1.000  H
  H190     1.0000 0.97630  0.67070  0.09090  Biso   1.000  H
  H191     1.0000 0.47630  0.82930  0.59090  Biso   1.000  H
  H192     1.0000 0.02370  0.32930  0.90910  Biso   1.000  H
  O113     1.0000 0.88200  0.51190  0.09300  Biso   1.000  O
  O114     1.0000 0.61800  0.01190  0.40700  Biso   1.000  O
  O115     1.0000 0.11800  0.48810  0.90700  Biso   1.000  O
  O116     1.0000 0.38200  0.98810  0.59300  Biso   1.000  O
  H193     1.0000 0.92400  0.53790  0.08550  Biso   1.000  H
  H194     1.0000 0.57600  0.03790  0.41450  Biso   1.000  H
  H195     1.0000 0.07600  0.46210  0.91450  Biso   1.000  H
  H196     1.0000 0.42400  0.96210  0.58550  Biso   1.000  H
  H197     1.0000 0.84930  0.49520  0.05070  Biso   1.000  H
  H198     1.0000 0.65070  0.99520  0.44930  Biso   1.000  H
  H199     1.0000 0.15070  0.50480  0.94930  Biso   1.000  H
  H200     1.0000 0.34930  0.00480  0.55070  Biso   1.000  H
  Cl1      1.0000 0.86081  0.40610  0.50601  Biso   1.000  Cl
  Cl2      1.0000 0.63919  0.90610  0.99399  Biso   1.000  Cl
  Cl3      1.0000 0.13919  0.59390  0.49399  Biso   1.000  Cl
  Cl4      1.0000 0.36081  0.09390  0.00601  Biso   1.000  Cl
  O117     1.0000 0.89820  0.43560  0.58070  Biso   1.000  O
  O118     1.0000 0.60180  0.93560  0.91930  Biso   1.000  O
  O119     1.0000 0.10180  0.56440  0.41930  Biso   1.000  O
  O120     1.0000 0.39820  0.06440  0.08070  Biso   1.000  O
  O121     1.0000 0.76550  0.42640  0.47560  Biso   1.000  O
  O122     1.0000 0.73450  0.92640  0.02440  Biso   1.000  O
  O123     1.0000 0.23450  0.57360  0.52440  Biso   1.000  O
  O124     1.0000 0.26550  0.07360  0.97560  Biso   1.000  O
  O125     1.0000 0.87070  0.32400  0.50900  Biso   1.000  O
  O126     1.0000 0.62930  0.82400  0.99100  Biso   1.000  O
  O127     1.0000 0.12930  0.67600  0.49100  Biso   1.000  O
  O128     1.0000 0.37070  0.17600  0.00900  Biso   1.000  O
  O129     1.0000 0.90830  0.43780  0.46160  Biso   1.000  O
  O130     1.0000 0.59170  0.93780  0.03840  Biso   1.000  O
  O131     1.0000 0.09170  0.56220  0.53840  Biso   1.000  O
  O132     1.0000 0.40830  0.06220  0.96160  Biso   1.000  O
  Cl5      1.0000 0.88790  0.20040  0.01580  Biso   1.000  Cl
  Cl6      1.0000 0.61210  0.70040  0.48420  Biso   1.000  Cl
  Cl7      1.0000 0.11210  0.79960  0.98420  Biso   1.000  Cl
  Cl8      1.0000 0.38790  0.29960  0.51580  Biso   1.000  Cl
  O133     1.0000 0.80490  0.15660  0.01130  Biso   1.000  O
  O134     1.0000 0.69510  0.65660  0.48870  Biso   1.000  O
  O135     1.0000 0.19510  0.84340  0.98870  Biso   1.000  O
  O136     1.0000 0.30490  0.34340  0.51130  Biso   1.000  O
  O137     1.0000 0.87440  0.21360  0.93740  Biso   1.000  O
  O138     1.0000 0.62560  0.71360  0.56260  Biso   1.000  O
  O139     1.0000 0.12560  0.78640  0.06260  Biso   1.000  O
  O140     1.0000 0.37440  0.28640  0.43740  Biso   1.000  O
  O141     1.0000 0.87920  0.27210  0.04860  Biso   1.000  O
  O142     1.0000 0.62080  0.77210  0.45140  Biso   1.000  O
  O143     1.0000 0.12080  0.72790  0.95140  Biso   1.000  O
  O144     1.0000 0.37920  0.22790  0.54860  Biso   1.000  O
  O145     1.0000 0.96820  0.16090  0.05290  Biso   1.000  O
  O146     1.0000 0.53180  0.66090  0.44710  Biso   1.000  O
  O147     1.0000 0.03180  0.83910  0.94710  Biso   1.000  O
  O148     1.0000 0.46820  0.33910  0.55290  Biso   1.000  O
  Cl9      1.0000 0.63580  0.39830  0.00900  Biso   1.000  Cl
  Cl10     1.0000 0.86420  0.89830  0.49100  Biso   1.000  Cl
  Cl11     1.0000 0.36420  0.60170  0.99100  Biso   1.000  Cl
  Cl12     1.0000 0.13580  0.10170  0.50900  Biso   1.000  Cl
  O149     1.0000 0.73380  0.36900  0.04260  Biso   1.000  O
  O150     1.0000 0.76620  0.86900  0.45740  Biso   1.000  O
  O151     1.0000 0.26620  0.63100  0.95740  Biso   1.000  O
  O152     1.0000 0.23380  0.13100  0.54260  Biso   1.000  O
  O153     1.0000 0.60460  0.37970  0.93320  Biso   1.000  O
  O154     1.0000 0.89540  0.87970  0.56680  Biso   1.000  O
  O155     1.0000 0.39540  0.62030  0.06680  Biso   1.000  O
  O156     1.0000 0.10460  0.12030  0.43320  Biso   1.000  O
  O157     1.0000 0.65500  0.48320  0.01370  Biso   1.000  O
  O158     1.0000 0.84500  0.98320  0.48630  Biso   1.000  O
  O159     1.0000 0.34500  0.51680  0.98630  Biso   1.000  O
  O160     1.0000 0.15500  0.01680  0.51370  Biso   1.000  O
  O161     1.0000 0.59030  0.37760  0.05600  Biso   1.000  O
  O162     1.0000 0.90970  0.87760  0.44400  Biso   1.000  O
  O163     1.0000 0.40970  0.62240  0.94400  Biso   1.000  O
  O164     1.0000 0.09030  0.12240  0.55600  Biso   1.000  O
  O165     1.0000 0.86100  0.34260  0.55100  Biso   1.000  O
  O166     1.0000 0.63900  0.84260  0.94900  Biso   1.000  O
  O167     1.0000 0.13900  0.65740  0.44900  Biso   1.000  O
  O168     1.0000 0.36100  0.15740  0.05100  Biso   1.000  O
  O169     1.0000 0.80400  0.46870  0.51500  Biso   1.000  O
  O170     1.0000 0.69600  0.96870  0.98500  Biso   1.000  O
  O171     1.0000 0.19600  0.53130  0.48500  Biso   1.000  O
  O172     1.0000 0.30400  0.03130  0.01500  Biso   1.000  O
  O173     1.0000 0.82100  0.38300  0.42650  Biso   1.000  O
  O174     1.0000 0.67900  0.88300  0.07350  Biso   1.000  O
  O175     1.0000 0.17900  0.61700  0.57350  Biso   1.000  O
  O176     1.0000 0.32100  0.11700  0.92650  Biso   1.000  O
  O177     1.0000 0.95200  0.43500  0.51400  Biso   1.000  O
  O178     1.0000 0.54800  0.93500  0.98600  Biso   1.000  O
  O179     1.0000 0.04800  0.56500  0.48600  Biso   1.000  O
  O180     1.0000 0.45200  0.06500  0.01400  Biso   1.000  O
  O181     1.0000 0.86400  0.26910  0.97400  Biso   1.000  O
  O182     1.0000 0.63600  0.76910  0.52600  Biso   1.000  O
  O183     1.0000 0.13600  0.73090  0.02600  Biso   1.000  O
  O184     1.0000 0.36400  0.23090  0.47400  Biso   1.000  O
  O185     1.0000 0.93750  0.21600  0.09340  Biso   1.000  O
  O186     1.0000 0.56250  0.71600  0.40660  Biso   1.000  O
  O187     1.0000 0.06250  0.78400  0.90660  Biso   1.000  O
  O188     1.0000 0.43750  0.28400  0.59340  Biso   1.000  O
  O189     1.0000 0.94420  0.15120  0.98800  Biso   1.000  O
  O190     1.0000 0.55580  0.65120  0.51200  Biso   1.000  O
  O191     1.0000 0.05580  0.84880  0.01200  Biso   1.000  O
  O192     1.0000 0.44420  0.34880  0.48800  Biso   1.000  O
  O193     1.0000 0.58770  0.32490  0.02180  Biso   1.000  O
  O194     1.0000 0.91230  0.82490  0.47820  Biso   1.000  O
  O195     1.0000 0.41230  0.67510  0.97820  Biso   1.000  O
  O196     1.0000 0.08770  0.17510  0.52180  Biso   1.000  O
  O197     1.0000 0.70750  0.41190  0.07590  Biso   1.000  O
  O198     1.0000 0.79250  0.91190  0.42410  Biso   1.000  O
  O199     1.0000 0.29250  0.58810  0.92410  Biso   1.000  O
  O200     1.0000 0.20750  0.08810  0.57590  Biso   1.000  O
  O201     1.0000 0.56450  0.45460  0.98940  Biso   1.000  O
  O202     1.0000 0.93550  0.95460  0.51060  Biso   1.000  O
  O203     1.0000 0.43550  0.54540  0.01060  Biso   1.000  O
  O204     1.0000 0.06450  0.04540  0.48940  Biso   1.000  O
  O205     1.0000 0.66510  0.37540  0.94960  Biso   1.000  O
  O206     1.0000 0.83490  0.87540  0.55040  Biso   1.000  O
  O207     1.0000 0.33490  0.62460  0.05040  Biso   1.000  O
  O208     1.0000 0.16510  0.12460  0.44960  Biso   1.000  O
