data_image0
_cell_length_a       15.673
_cell_length_b       17.495
_cell_length_c       19.235
_cell_angle_alpha    90
_cell_angle_beta     110.215
_cell_angle_gamma    90

_symmetry_space_group_name_H-M    "P 1"
_symmetry_int_tables_number       1

loop_
  _symmetry_equiv_pos_as_xyz
  'x, y, z'

loop_
  _atom_site_label
  _atom_site_occupancy
  _atom_site_fract_x
  _atom_site_fract_y
  _atom_site_fract_z
  _atom_site_thermal_displace_type
  _atom_site_B_iso_or_equiv
  _atom_site_type_symbol
  Gd1      1.0000 0.48151  0.83532  0.19621  Biso   1.000  Gd
  Gd2      1.0000 0.01849  0.33532  0.30379  Biso   1.000  Gd
  Gd3      1.0000 0.51849  0.16468  0.80379  Biso   1.000  Gd
  Gd4      1.0000 0.98151  0.66468  0.69621  Biso   1.000  Gd
  Cu1      1.0000 0.19255  0.03836  0.25684  Biso   1.000  Cu
  Cu2      1.0000 0.30745  0.53836  0.24316  Biso   1.000  Cu
  Cu3      1.0000 0.80745  0.96164  0.74316  Biso   1.000  Cu
  Cu4      1.0000 0.69255  0.46164  0.75684  Biso   1.000  Cu
  Cu5      1.0000 0.78924  0.63549  0.22594  Biso   1.000  Cu
  Cu6      1.0000 0.71076  0.13549  0.27406  Biso   1.000  Cu
  Cu7      1.0000 0.21076  0.36451  0.77406  Biso   1.000  Cu
  Cu8      1.0000 0.28924  0.86451  0.72594  Biso   1.000  Cu
  Cu9      1.0000 0.07565  0.85763  0.30493  Biso   1.000  Cu
  Cu10     1.0000 0.42435  0.35763  0.19507  Biso   1.000  Cu
  Cu11     1.0000 0.92435  0.14237  0.69507  Biso   1.000  Cu
  Cu12     1.0000 0.57565  0.64237  0.80493  Biso   1.000  Cu
  Cu13     1.0000 0.93373  0.81696  0.18903  Biso   1.000  Cu
  Cu14     1.0000 0.56627  0.31696  0.31097  Biso   1.000  Cu
  Cu15     1.0000 0.06627  0.18304  0.81097  Biso   1.000  Cu
  Cu16     1.0000 0.43373  0.68304  0.68903  Biso   1.000  Cu
  C1       1.0000 0.16350  0.09790  0.11230  Biso   1.000  C
  C2       1.0000 0.33650  0.59790  0.38770  Biso   1.000  C
  C3       1.0000 0.83650  0.90210  0.88770  Biso   1.000  C
  C4       1.0000 0.66350  0.40210  0.61230  Biso   1.000  C
  H1       1.0000 0.11080  0.12850  0.10930  Biso   1.000  H
  H2       1.0000 0.38920  0.62850  0.39070  Biso   1.000  H
  H3       1.0000 0.88920  0.87150  0.89070  Biso   1.000  H
  H4       1.0000 0.61080  0.37150  0.60930  Biso   1.000  H
  H5       1.0000 0.16390  0.09100  0.06230  Biso   1.000  H
  H6       1.0000 0.33610  0.59100  0.43770  Biso   1.000  H
  H7       1.0000 0.83610  0.90900  0.93770  Biso   1.000  H
  H8       1.0000 0.66390  0.40900  0.56230  Biso   1.000  H
  C5       1.0000 0.24840  0.13970  0.15780  Biso   1.000  C
  C6       1.0000 0.25160  0.63970  0.34220  Biso   1.000  C
  C7       1.0000 0.75160  0.86030  0.84220  Biso   1.000  C
  C8       1.0000 0.74840  0.36030  0.65780  Biso   1.000  C
  H9       1.0000 0.30130  0.11010  0.15900  Biso   1.000  H
  H10      1.0000 0.19870  0.61010  0.34100  Biso   1.000  H
  H11      1.0000 0.69870  0.88990  0.84100  Biso   1.000  H
  H12      1.0000 0.80130  0.38990  0.65900  Biso   1.000  H
  H13      1.0000 0.25110  0.18840  0.13460  Biso   1.000  H
  H14      1.0000 0.24890  0.68840  0.36540  Biso   1.000  H
  H15      1.0000 0.74890  0.81160  0.86540  Biso   1.000  H
  H16      1.0000 0.75110  0.31160  0.63460  Biso   1.000  H
  C9       1.0000 0.06240  0.99240  0.11360  Biso   1.000  C
  C10      1.0000 0.43760  0.49240  0.38640  Biso   1.000  C
  C11      1.0000 0.93760  0.00760  0.88640  Biso   1.000  C
  C12      1.0000 0.56240  0.50760  0.61360  Biso   1.000  C
  H17      1.0000 0.05200  0.97180  0.06460  Biso   1.000  H
  H18      1.0000 0.44800  0.47180  0.43540  Biso   1.000  H
  H19      1.0000 0.94800  0.02820  0.93540  Biso   1.000  H
  H20      1.0000 0.55200  0.52820  0.56460  Biso   1.000  H
  H21      1.0000 0.01980  0.03400  0.10880  Biso   1.000  H
  H22      1.0000 0.48020  0.53400  0.39120  Biso   1.000  H
  H23      1.0000 0.98020  0.96600  0.89120  Biso   1.000  H
  H24      1.0000 0.51980  0.46600  0.60880  Biso   1.000  H
  C13      1.0000 0.04500  0.93030  0.16260  Biso   1.000  C
  C14      1.0000 0.45500  0.43030  0.33740  Biso   1.000  C
  C15      1.0000 0.95500  0.06970  0.83740  Biso   1.000  C
  C16      1.0000 0.54500  0.56970  0.66260  Biso   1.000  C
  C17      1.0000 0.22060  0.96540  0.13420  Biso   1.000  C
  C18      1.0000 0.27940  0.46540  0.36580  Biso   1.000  C
  C19      1.0000 0.77940  0.03460  0.86580  Biso   1.000  C
  C20      1.0000 0.72060  0.53460  0.63420  Biso   1.000  C
  H25      1.0000 0.24550  0.98460  0.09790  Biso   1.000  H
  H26      1.0000 0.25450  0.48460  0.40210  Biso   1.000  H
  H27      1.0000 0.75450  0.01540  0.90210  Biso   1.000  H
  H28      1.0000 0.74550  0.51540  0.59790  Biso   1.000  H
  H29      1.0000 0.18780  0.91870  0.11470  Biso   1.000  H
  H30      1.0000 0.31220  0.41870  0.38530  Biso   1.000  H
  H31      1.0000 0.81220  0.08130  0.88530  Biso   1.000  H
  H32      1.0000 0.68780  0.58130  0.61470  Biso   1.000  H
  C21      1.0000 0.29750  0.94720  0.20420  Biso   1.000  C
  C22      1.0000 0.20250  0.44720  0.29580  Biso   1.000  C
  C23      1.0000 0.70250  0.05280  0.79580  Biso   1.000  C
  C24      1.0000 0.79750  0.55280  0.70420  Biso   1.000  C
  C25      1.0000 0.18500  0.20910  0.23950  Biso   1.000  C
  C26      1.0000 0.31500  0.70910  0.26050  Biso   1.000  C
  C27      1.0000 0.81500  0.79090  0.76050  Biso   1.000  C
  C28      1.0000 0.68500  0.29090  0.73950  Biso   1.000  C
  H33      1.0000 0.16690  0.24070  0.19530  Biso   1.000  H
  H34      1.0000 0.33310  0.74070  0.30470  Biso   1.000  H
  H35      1.0000 0.83310  0.75930  0.80470  Biso   1.000  H
  H36      1.0000 0.66690  0.25930  0.69530  Biso   1.000  H
  H37      1.0000 0.21420  0.24210  0.28150  Biso   1.000  H
  H38      1.0000 0.28580  0.74210  0.21850  Biso   1.000  H
  H39      1.0000 0.78580  0.75790  0.71850  Biso   1.000  H
  H40      1.0000 0.71420  0.25790  0.78150  Biso   1.000  H
  C29      1.0000 0.10000  0.17480  0.24840  Biso   1.000  C
  C30      1.0000 0.40000  0.67480  0.25160  Biso   1.000  C
  C31      1.0000 0.90000  0.82520  0.75160  Biso   1.000  C
  C32      1.0000 0.60000  0.32520  0.74840  Biso   1.000  C
  C33      1.0000 0.34330  0.16320  0.28710  Biso   1.000  C
  C34      1.0000 0.15670  0.66320  0.21290  Biso   1.000  C
  C35      1.0000 0.65670  0.83680  0.71290  Biso   1.000  C
  C36      1.0000 0.84330  0.33680  0.78710  Biso   1.000  C
  H41      1.0000 0.37800  0.11750  0.28640  Biso   1.000  H
  H42      1.0000 0.12200  0.61750  0.21360  Biso   1.000  H
  H43      1.0000 0.62200  0.88250  0.71360  Biso   1.000  H
  H44      1.0000 0.87800  0.38250  0.78640  Biso   1.000  H
  H45      1.0000 0.33950  0.16740  0.33620  Biso   1.000  H
  H46      1.0000 0.16050  0.66740  0.16380  Biso   1.000  H
  H47      1.0000 0.66050  0.83260  0.66380  Biso   1.000  H
  H48      1.0000 0.83950  0.33260  0.83620  Biso   1.000  H
  C37      1.0000 0.39660  0.23210  0.27490  Biso   1.000  C
  C38      1.0000 0.10340  0.73210  0.22510  Biso   1.000  C
  C39      1.0000 0.60340  0.76790  0.72510  Biso   1.000  C
  C40      1.0000 0.89660  0.26790  0.77490  Biso   1.000  C
  C41      1.0000 0.80380  0.59610  0.37440  Biso   1.000  C
  C42      1.0000 0.69620  0.09610  0.12560  Biso   1.000  C
  C43      1.0000 0.19620  0.40390  0.62560  Biso   1.000  C
  C44      1.0000 0.30380  0.90390  0.87440  Biso   1.000  C
  H49      1.0000 0.79970  0.61140  0.42160  Biso   1.000  H
  H50      1.0000 0.70030  0.11140  0.07840  Biso   1.000  H
  H51      1.0000 0.20030  0.38860  0.57840  Biso   1.000  H
  H52      1.0000 0.29970  0.88860  0.92160  Biso   1.000  H
  H53      1.0000 0.85410  0.56060  0.38410  Biso   1.000  H
  H54      1.0000 0.64590  0.06060  0.11590  Biso   1.000  H
  H55      1.0000 0.14590  0.43940  0.61590  Biso   1.000  H
  H56      1.0000 0.35410  0.93940  0.88410  Biso   1.000  H
  C45      1.0000 0.71620  0.55620  0.32870  Biso   1.000  C
  C46      1.0000 0.78380  0.05620  0.17130  Biso   1.000  C
  C47      1.0000 0.28380  0.44380  0.67130  Biso   1.000  C
  C48      1.0000 0.21620  0.94380  0.82870  Biso   1.000  C
  H57      1.0000 0.70670  0.51210  0.35560  Biso   1.000  H
  H58      1.0000 0.79330  0.01210  0.14440  Biso   1.000  H
  H59      1.0000 0.29330  0.48790  0.64440  Biso   1.000  H
  H60      1.0000 0.20670  0.98790  0.85560  Biso   1.000  H
  H61      1.0000 0.66540  0.59080  0.32100  Biso   1.000  H
  H62      1.0000 0.83460  0.09080  0.17900  Biso   1.000  H
  H63      1.0000 0.33460  0.40920  0.67900  Biso   1.000  H
  H64      1.0000 0.16540  0.90920  0.82100  Biso   1.000  H
  C49      1.0000 0.91780  0.68760  0.36910  Biso   1.000  C
  C50      1.0000 0.58220  0.18760  0.13090  Biso   1.000  C
  C51      1.0000 0.08220  0.31240  0.63090  Biso   1.000  C
  C52      1.0000 0.41780  0.81240  0.86910  Biso   1.000  C
  H65      1.0000 0.95580  0.64240  0.37700  Biso   1.000  H
  H66      1.0000 0.54420  0.14240  0.12300  Biso   1.000  H
  H67      1.0000 0.04420  0.35760  0.62300  Biso   1.000  H
  H68      1.0000 0.45580  0.85760  0.87700  Biso   1.000  H
  H69      1.0000 0.92740  0.71060  0.41710  Biso   1.000  H
  H70      1.0000 0.57260  0.21060  0.08290  Biso   1.000  H
  H71      1.0000 0.07260  0.28940  0.58290  Biso   1.000  H
  H72      1.0000 0.42740  0.78940  0.91710  Biso   1.000  H
  C53      1.0000 0.94670  0.74390  0.32120  Biso   1.000  C
  C54      1.0000 0.55330  0.24390  0.17880  Biso   1.000  C
  C55      1.0000 0.05330  0.25610  0.67880  Biso   1.000  C
  C56      1.0000 0.44670  0.75610  0.82120  Biso   1.000  C
  C57      1.0000 0.76050  0.72940  0.33750  Biso   1.000  C
  C58      1.0000 0.73950  0.22940  0.16250  Biso   1.000  C
  C59      1.0000 0.23950  0.27060  0.66250  Biso   1.000  C
  C60      1.0000 0.26050  0.77060  0.83750  Biso   1.000  C
  H73      1.0000 0.79670  0.77510  0.35440  Biso   1.000  H
  H74      1.0000 0.70330  0.27510  0.14560  Biso   1.000  H
  H75      1.0000 0.20330  0.22490  0.64560  Biso   1.000  H
  H76      1.0000 0.29670  0.72490  0.85440  Biso   1.000  H
  H77      1.0000 0.73090  0.71770  0.37290  Biso   1.000  H
  H78      1.0000 0.76910  0.21770  0.12710  Biso   1.000  H
  H79      1.0000 0.26910  0.28230  0.62710  Biso   1.000  H
  H80      1.0000 0.23090  0.78230  0.87290  Biso   1.000  H
  C61      1.0000 0.68880  0.74490  0.26290  Biso   1.000  C
  C62      1.0000 0.81120  0.24490  0.23710  Biso   1.000  C
  C63      1.0000 0.31120  0.25510  0.73710  Biso   1.000  C
  C64      1.0000 0.18880  0.75510  0.76290  Biso   1.000  C
  C65      1.0000 0.78540  0.46890  0.26160  Biso   1.000  C
  C66      1.0000 0.71460  0.96890  0.23840  Biso   1.000  C
  C67      1.0000 0.21460  0.53110  0.73840  Biso   1.000  C
  C68      1.0000 0.28540  0.03110  0.76160  Biso   1.000  C
  H81      1.0000 0.76060  0.43500  0.21960  Biso   1.000  H
  H82      1.0000 0.73940  0.93500  0.28040  Biso   1.000  H
  H83      1.0000 0.23940  0.56500  0.78040  Biso   1.000  H
  H84      1.0000 0.26060  0.06500  0.71960  Biso   1.000  H
  H85      1.0000 0.79320  0.43950  0.30620  Biso   1.000  H
  H86      1.0000 0.70680  0.93950  0.19380  Biso   1.000  H
  H87      1.0000 0.20680  0.56050  0.69380  Biso   1.000  H
  H88      1.0000 0.29320  0.06050  0.80620  Biso   1.000  H
  C69      1.0000 0.87800  0.49740  0.26350  Biso   1.000  C
  C70      1.0000 0.62200  0.99740  0.23650  Biso   1.000  C
  C71      1.0000 0.12200  0.50260  0.73650  Biso   1.000  C
  C72      1.0000 0.37800  0.00260  0.76350  Biso   1.000  C
  C73      1.0000 0.62940  0.51460  0.20290  Biso   1.000  C
  C74      1.0000 0.87060  0.01460  0.29710  Biso   1.000  C
  C75      1.0000 0.37060  0.48540  0.79710  Biso   1.000  C
  C76      1.0000 0.12940  0.98540  0.70290  Biso   1.000  C
  H89      1.0000 0.63570  0.50590  0.15510  Biso   1.000  H
  H90      1.0000 0.86430  0.00590  0.34490  Biso   1.000  H
  H91      1.0000 0.36430  0.49410  0.84490  Biso   1.000  H
  H92      1.0000 0.13570  0.99410  0.65510  Biso   1.000  H
  H93      1.0000 0.59170  0.55960  0.19820  Biso   1.000  H
  H94      1.0000 0.90830  0.05960  0.30180  Biso   1.000  H
  H95      1.0000 0.40830  0.44040  0.80180  Biso   1.000  H
  H96      1.0000 0.09170  0.94040  0.69820  Biso   1.000  H
  C77      1.0000 0.57890  0.44660  0.21970  Biso   1.000  C
  C78      1.0000 0.92110  0.94660  0.28030  Biso   1.000  C
  C79      1.0000 0.42110  0.55340  0.78030  Biso   1.000  C
  C80      1.0000 0.07890  0.05340  0.71970  Biso   1.000  C
  N1       1.0000 0.15600  0.02240  0.14410  Biso   1.000  N
  N2       1.0000 0.34400  0.52240  0.35590  Biso   1.000  N
  N3       1.0000 0.84400  0.97760  0.85590  Biso   1.000  N
  N4       1.0000 0.65600  0.47760  0.64410  Biso   1.000  N
  N5       1.0000 0.25120  0.15290  0.23390  Biso   1.000  N
  N6       1.0000 0.24880  0.65290  0.26610  Biso   1.000  N
  N7       1.0000 0.74880  0.84710  0.76610  Biso   1.000  N
  N8       1.0000 0.75120  0.34710  0.73390  Biso   1.000  N
  N9       1.0000 0.82170  0.66490  0.33560  Biso   1.000  N
  N10      1.0000 0.67830  0.16490  0.16440  Biso   1.000  N
  N11      1.0000 0.17830  0.33510  0.66440  Biso   1.000  N
  N12      1.0000 0.32170  0.83510  0.83560  Biso   1.000  N
  N13      1.0000 0.71910  0.53150  0.25630  Biso   1.000  N
  N14      1.0000 0.78090  0.03150  0.24370  Biso   1.000  N
  N15      1.0000 0.28090  0.46850  0.74370  Biso   1.000  N
  N16      1.0000 0.21910  0.96850  0.75630  Biso   1.000  N
  O1       1.0000 0.09670  0.92570  0.22820  Biso   1.000  O
  O2       1.0000 0.40330  0.42570  0.27180  Biso   1.000  O
  O3       1.0000 0.90330  0.07430  0.77180  Biso   1.000  O
  O4       1.0000 0.59670  0.57430  0.72820  Biso   1.000  O
  O5       1.0000 0.97590  0.88980  0.13200  Biso   1.000  O
  O6       1.0000 0.52410  0.38980  0.36800  Biso   1.000  O
  O7       1.0000 0.02410  0.11020  0.86800  Biso   1.000  O
  O8       1.0000 0.47590  0.61020  0.63200  Biso   1.000  O
  O9       1.0000 0.29710  0.97510  0.26390  Biso   1.000  O
  O10      1.0000 0.20290  0.47510  0.23610  Biso   1.000  O
  O11      1.0000 0.70290  0.02490  0.73610  Biso   1.000  O
  O12      1.0000 0.79710  0.52490  0.76390  Biso   1.000  O
  O13      1.0000 0.35790  0.90360  0.19900  Biso   1.000  O
  O14      1.0000 0.14210  0.40360  0.30100  Biso   1.000  O
  O15      1.0000 0.64210  0.09640  0.80100  Biso   1.000  O
  O16      1.0000 0.85790  0.59640  0.69900  Biso   1.000  O
  O17      1.0000 0.09000  0.10420  0.24910  Biso   1.000  O
  O18      1.0000 0.41000  0.60420  0.25090  Biso   1.000  O
  O19      1.0000 0.91000  0.89580  0.75090  Biso   1.000  O
  O20      1.0000 0.59000  0.39580  0.74910  Biso   1.000  O
  O21      1.0000 0.04140  0.22070  0.25410  Biso   1.000  O
  O22      1.0000 0.45860  0.72070  0.24590  Biso   1.000  O
  O23      1.0000 0.95860  0.77930  0.74590  Biso   1.000  O
  O24      1.0000 0.54140  0.27930  0.75410  Biso   1.000  O
  O25      1.0000 0.35800  0.27720  0.22250  Biso   1.000  O
  O26      1.0000 0.14200  0.77720  0.27750  Biso   1.000  O
  O27      1.0000 0.64200  0.72280  0.77750  Biso   1.000  O
  O28      1.0000 0.85800  0.22280  0.72250  Biso   1.000  O
  O29      1.0000 0.47740  0.23770  0.31810  Biso   1.000  O
  O30      1.0000 0.02260  0.73770  0.18190  Biso   1.000  O
  O31      1.0000 0.52260  0.76230  0.68190  Biso   1.000  O
  O32      1.0000 0.97740  0.26230  0.81810  Biso   1.000  O
  O33      1.0000 0.22630  0.03540  0.36600  Biso   1.000  O
  O34      1.0000 0.27370  0.53540  0.13400  Biso   1.000  O
  O35      1.0000 0.77370  0.96460  0.63400  Biso   1.000  O
  O36      1.0000 0.72630  0.46460  0.86600  Biso   1.000  O
  H97      1.0000 0.19100  0.06460  0.37880  Biso   1.000  H
  H98      1.0000 0.30900  0.56460  0.12120  Biso   1.000  H
  H99      1.0000 0.80900  0.93540  0.62120  Biso   1.000  H
  H100     1.0000 0.69100  0.43540  0.87880  Biso   1.000  H
  H101     1.0000 0.28200  0.04690  0.38730  Biso   1.000  H
  H102     1.0000 0.21800  0.54690  0.11270  Biso   1.000  H
  H103     1.0000 0.71800  0.95310  0.61270  Biso   1.000  H
  H104     1.0000 0.78200  0.45310  0.88730  Biso   1.000  H
  O37      1.0000 0.76590  0.62740  0.11810  Biso   1.000  O
  O38      1.0000 0.73410  0.12740  0.38190  Biso   1.000  O
  O39      1.0000 0.23410  0.37260  0.88190  Biso   1.000  O
  O40      1.0000 0.26590  0.87260  0.61810  Biso   1.000  O
  H105     1.0000 0.79780  0.59200  0.10910  Biso   1.000  H
  H106     1.0000 0.70220  0.09200  0.39090  Biso   1.000  H
  H107     1.0000 0.20220  0.40800  0.89090  Biso   1.000  H
  H108     1.0000 0.29780  0.90800  0.60910  Biso   1.000  H
  H109     1.0000 0.71560  0.62890  0.08220  Biso   1.000  H
  H110     1.0000 0.78440  0.12890  0.41780  Biso   1.000  H
  H111     1.0000 0.28440  0.37110  0.91780  Biso   1.000  H
  H112     1.0000 0.21560  0.87110  0.58220  Biso   1.000  H
  O41      1.0000 0.89840  0.74730  0.25390  Biso   1.000  O
  O42      1.0000 0.60160  0.24730  0.24610  Biso   1.000  O
  O43      1.0000 0.10160  0.25270  0.74610  Biso   1.000  O
  O44      1.0000 0.39840  0.75270  0.75390  Biso   1.000  O
  O45      1.0000 0.01720  0.78160  0.35300  Biso   1.000  O
  O46      1.0000 0.48280  0.28160  0.14700  Biso   1.000  O
  O47      1.0000 0.98280  0.21840  0.64700  Biso   1.000  O
  O48      1.0000 0.51720  0.71840  0.85300  Biso   1.000  O
  O49      1.0000 0.69020  0.70800  0.20760  Biso   1.000  O
  O50      1.0000 0.80980  0.20800  0.29240  Biso   1.000  O
  O51      1.0000 0.30980  0.29200  0.79240  Biso   1.000  O
  O52      1.0000 0.19020  0.79200  0.70760  Biso   1.000  O
  O53      1.0000 0.63200  0.79580  0.26110  Biso   1.000  O
  O54      1.0000 0.86800  0.29580  0.23890  Biso   1.000  O
  O55      1.0000 0.36800  0.20420  0.73890  Biso   1.000  O
  O56      1.0000 0.13200  0.70420  0.76110  Biso   1.000  O
  O57      1.0000 0.88910  0.56480  0.24710  Biso   1.000  O
  O58      1.0000 0.61090  0.06480  0.25290  Biso   1.000  O
  O59      1.0000 0.11090  0.43520  0.75290  Biso   1.000  O
  O60      1.0000 0.38910  0.93520  0.74710  Biso   1.000  O
  O61      1.0000 0.94090  0.44860  0.28070  Biso   1.000  O
  O62      1.0000 0.55910  0.94860  0.21930  Biso   1.000  O
  O63      1.0000 0.05910  0.55140  0.71930  Biso   1.000  O
  O64      1.0000 0.44090  0.05140  0.78070  Biso   1.000  O
  O65      1.0000 0.62040  0.40420  0.27350  Biso   1.000  O
  O66      1.0000 0.87960  0.90420  0.22650  Biso   1.000  O
  O67      1.0000 0.37960  0.59580  0.72650  Biso   1.000  O
  O68      1.0000 0.12040  0.09580  0.77350  Biso   1.000  O
  O69      1.0000 0.49790  0.43830  0.17640  Biso   1.000  O
  O70      1.0000 0.00210  0.93830  0.32360  Biso   1.000  O
  O71      1.0000 0.50210  0.56170  0.82360  Biso   1.000  O
  O72      1.0000 0.99790  0.06170  0.67640  Biso   1.000  O
  O73      1.0000 0.19050  0.88310  0.40240  Biso   1.000  O
  O74      1.0000 0.30950  0.38310  0.09760  Biso   1.000  O
  O75      1.0000 0.80950  0.11690  0.59760  Biso   1.000  O
  O76      1.0000 0.69050  0.61690  0.90240  Biso   1.000  O
  H113     1.0000 0.21100  0.92790  0.40140  Biso   1.000  H
  H114     1.0000 0.28900  0.42790  0.09860  Biso   1.000  H
  H115     1.0000 0.78900  0.07210  0.59860  Biso   1.000  H
  H116     1.0000 0.71100  0.57210  0.90140  Biso   1.000  H
  H117     1.0000 0.23390  0.85210  0.40700  Biso   1.000  H
  H118     1.0000 0.26610  0.35210  0.09300  Biso   1.000  H
  H119     1.0000 0.76610  0.14790  0.59300  Biso   1.000  H
  H120     1.0000 0.73390  0.64790  0.90700  Biso   1.000  H
  O77      1.0000 0.82560  0.77790  0.09230  Biso   1.000  O
  O78      1.0000 0.67440  0.27790  0.40770  Biso   1.000  O
  O79      1.0000 0.17440  0.22210  0.90770  Biso   1.000  O
  O80      1.0000 0.32560  0.72210  0.59230  Biso   1.000  O
  H121     1.0000 0.84400  0.77480  0.05570  Biso   1.000  H
  H122     1.0000 0.65600  0.27480  0.44430  Biso   1.000  H
  H123     1.0000 0.15600  0.22520  0.94430  Biso   1.000  H
  H124     1.0000 0.34400  0.72520  0.55570  Biso   1.000  H
  H125     1.0000 0.77970  0.80720  0.08310  Biso   1.000  H
  H126     1.0000 0.72030  0.30720  0.41690  Biso   1.000  H
  H127     1.0000 0.22030  0.19280  0.91690  Biso   1.000  H
  H128     1.0000 0.27970  0.69280  0.58310  Biso   1.000  H
  O81      1.0000 0.34760  0.77320  0.10560  Biso   1.000  O
  O82      1.0000 0.15240  0.27320  0.39440  Biso   1.000  O
  O83      1.0000 0.65240  0.22680  0.89440  Biso   1.000  O
  O84      1.0000 0.84760  0.72680  0.60560  Biso   1.000  O
  H129     1.0000 0.36490  0.73220  0.09070  Biso   1.000  H
  H130     1.0000 0.13510  0.23220  0.40930  Biso   1.000  H
  H131     1.0000 0.63510  0.26780  0.90930  Biso   1.000  H
  H132     1.0000 0.86490  0.76780  0.59070  Biso   1.000  H
  H133     1.0000 0.32100  0.80560  0.07230  Biso   1.000  H
  H134     1.0000 0.17900  0.30560  0.42770  Biso   1.000  H
  H135     1.0000 0.67900  0.19440  0.92770  Biso   1.000  H
  H136     1.0000 0.82100  0.69440  0.57230  Biso   1.000  H
  O85      1.0000 0.51200  0.85760  0.32890  Biso   1.000  O
  O86      1.0000 0.98800  0.35760  0.17110  Biso   1.000  O
  O87      1.0000 0.48800  0.14240  0.67110  Biso   1.000  O
  O88      1.0000 0.01200  0.64240  0.82890  Biso   1.000  O
  H137     1.0000 0.54320  0.89850  0.33570  Biso   1.000  H
  H138     1.0000 0.95680  0.39850  0.16430  Biso   1.000  H
  H139     1.0000 0.45680  0.10150  0.66430  Biso   1.000  H
  H140     1.0000 0.04320  0.60150  0.83570  Biso   1.000  H
  H141     1.0000 0.54430  0.81830  0.34610  Biso   1.000  H
  H142     1.0000 0.95570  0.31830  0.15390  Biso   1.000  H
  H143     1.0000 0.45570  0.18170  0.65390  Biso   1.000  H
  H144     1.0000 0.04430  0.68170  0.84610  Biso   1.000  H
  O89      1.0000 0.44010  0.90660  0.07840  Biso   1.000  O
  O90      1.0000 0.05990  0.40660  0.42160  Biso   1.000  O
  O91      1.0000 0.55990  0.09340  0.92160  Biso   1.000  O
  O92      1.0000 0.94010  0.59340  0.57840  Biso   1.000  O
  H145     1.0000 0.41100  0.87580  0.04430  Biso   1.000  H
  H146     1.0000 0.08900  0.37580  0.45570  Biso   1.000  H
  H147     1.0000 0.58900  0.12420  0.95570  Biso   1.000  H
  H148     1.0000 0.91100  0.62420  0.54430  Biso   1.000  H
  H149     1.0000 0.48970  0.92350  0.07580  Biso   1.000  H
  H150     1.0000 0.01030  0.42350  0.42420  Biso   1.000  H
  H151     1.0000 0.51030  0.07650  0.92420  Biso   1.000  H
  H152     1.0000 0.98970  0.57650  0.57580  Biso   1.000  H
  O93      1.0000 0.53340  0.76370  0.11140  Biso   1.000  O
  O94      1.0000 0.96660  0.26370  0.38860  Biso   1.000  O
  O95      1.0000 0.46660  0.23630  0.88860  Biso   1.000  O
  O96      1.0000 0.03340  0.73630  0.61140  Biso   1.000  O
  H153     1.0000 0.58670  0.74750  0.13490  Biso   1.000  H
  H154     1.0000 0.91330  0.24750  0.36510  Biso   1.000  H
  H155     1.0000 0.41330  0.25250  0.86510  Biso   1.000  H
  H156     1.0000 0.08670  0.75250  0.63490  Biso   1.000  H
  H157     1.0000 0.53160  0.79430  0.07650  Biso   1.000  H
  H158     1.0000 0.96840  0.29430  0.42350  Biso   1.000  H
  H159     1.0000 0.46840  0.20570  0.92350  Biso   1.000  H
  H160     1.0000 0.03160  0.70570  0.57650  Biso   1.000  H
  O97      1.0000 0.39750  0.35570  0.98990  Biso   1.000  O
  O98      1.0000 0.10250  0.85570  0.51010  Biso   1.000  O
  O99      1.0000 0.60250  0.64430  0.01010  Biso   1.000  O
  O100     1.0000 0.89750  0.14430  0.48990  Biso   1.000  O
  H161     1.0000 0.38480  0.36670  0.02830  Biso   1.000  H
  H162     1.0000 0.11520  0.86670  0.47170  Biso   1.000  H
  H163     1.0000 0.61520  0.63330  0.97170  Biso   1.000  H
  H164     1.0000 0.88480  0.13330  0.52830  Biso   1.000  H
  H165     1.0000 0.45490  0.35210  0.00270  Biso   1.000  H
  H166     1.0000 0.04510  0.85210  0.49730  Biso   1.000  H
  H167     1.0000 0.54510  0.64790  0.99730  Biso   1.000  H
  H168     1.0000 0.95490  0.14790  0.50270  Biso   1.000  H
  O101     1.0000 0.11620  0.38770  0.09990  Biso   1.000  O
  O102     1.0000 0.38380  0.88770  0.40010  Biso   1.000  O
  O103     1.0000 0.88380  0.61230  0.90010  Biso   1.000  O
  O104     1.0000 0.61620  0.11230  0.59990  Biso   1.000  O
  H169     1.0000 0.09790  0.34200  0.10000  Biso   1.000  H
  H170     1.0000 0.40210  0.84200  0.40000  Biso   1.000  H
  H171     1.0000 0.90210  0.65800  0.90000  Biso   1.000  H
  H172     1.0000 0.59790  0.15800  0.60000  Biso   1.000  H
  H173     1.0000 0.13190  0.40200  0.14490  Biso   1.000  H
  H174     1.0000 0.36810  0.90200  0.35510  Biso   1.000  H
  H175     1.0000 0.86810  0.59800  0.85510  Biso   1.000  H
  H176     1.0000 0.63190  0.09800  0.64490  Biso   1.000  H
  O105     1.0000 0.11040  0.56080  0.03690  Biso   1.000  O
  O106     1.0000 0.38960  0.06080  0.46310  Biso   1.000  O
  O107     1.0000 0.88960  0.43920  0.96310  Biso   1.000  O
  O108     1.0000 0.61040  0.93920  0.53690  Biso   1.000  O
  H177     1.0000 0.10680  0.60740  0.02310  Biso   1.000  H
  H178     1.0000 0.39320  0.10740  0.47690  Biso   1.000  H
  H179     1.0000 0.89320  0.39260  0.97690  Biso   1.000  H
  H180     1.0000 0.60680  0.89260  0.52310  Biso   1.000  H
  H181     1.0000 0.06020  0.55320  0.04340  Biso   1.000  H
  H182     1.0000 0.43980  0.05320  0.45660  Biso   1.000  H
  H183     1.0000 0.93980  0.44680  0.95660  Biso   1.000  H
  H184     1.0000 0.56020  0.94680  0.54340  Biso   1.000  H
  O109     1.0000 0.52390  0.13580  0.45030  Biso   1.000  O
  O110     1.0000 0.97610  0.63580  0.04970  Biso   1.000  O
  O111     1.0000 0.47610  0.86420  0.54970  Biso   1.000  O
  O112     1.0000 0.02390  0.36420  0.95030  Biso   1.000  O
  H185     1.0000 0.57090  0.15610  0.48130  Biso   1.000  H
  H186     1.0000 0.92910  0.65610  0.01870  Biso   1.000  H
  H187     1.0000 0.42910  0.84390  0.51870  Biso   1.000  H
  H188     1.0000 0.07090  0.34390  0.98130  Biso   1.000  H
  H189     1.0000 0.52470  0.16370  0.41430  Biso   1.000  H
  H190     1.0000 0.97530  0.66370  0.08570  Biso   1.000  H
  H191     1.0000 0.47530  0.83630  0.58570  Biso   1.000  H
  H192     1.0000 0.02470  0.33630  0.91430  Biso   1.000  H
  O113     1.0000 0.89700  0.51870  0.09630  Biso   1.000  O
  O114     1.0000 0.60300  0.01870  0.40370  Biso   1.000  O
  O115     1.0000 0.10300  0.48130  0.90370  Biso   1.000  O
  O116     1.0000 0.39700  0.98130  0.59630  Biso   1.000  O
  H193     1.0000 0.93850  0.54270  0.08430  Biso   1.000  H
  H194     1.0000 0.56150  0.04270  0.41570  Biso   1.000  H
  H195     1.0000 0.06150  0.45730  0.91570  Biso   1.000  H
  H196     1.0000 0.43850  0.95730  0.58430  Biso   1.000  H
  H197     1.0000 0.85910  0.49730  0.06080  Biso   1.000  H
  H198     1.0000 0.64090  0.99730  0.43920  Biso   1.000  H
  H199     1.0000 0.14090  0.50270  0.93920  Biso   1.000  H
  H200     1.0000 0.35910  0.00270  0.56080  Biso   1.000  H
  Cl1      1.0000 0.86030  0.40556  0.50516  Biso   1.000  Cl
  Cl2      1.0000 0.63970  0.90556  0.99484  Biso   1.000  Cl
  Cl3      1.0000 0.13970  0.59444  0.49484  Biso   1.000  Cl
  Cl4      1.0000 0.36030  0.09444  0.00516  Biso   1.000  Cl
  O117     1.0000 0.89850  0.43410  0.58060  Biso   1.000  O
  O118     1.0000 0.60150  0.93410  0.91940  Biso   1.000  O
  O119     1.0000 0.10150  0.56590  0.41940  Biso   1.000  O
  O120     1.0000 0.39850  0.06590  0.08060  Biso   1.000  O
  O121     1.0000 0.76570  0.42550  0.47700  Biso   1.000  O
  O122     1.0000 0.73430  0.92550  0.02300  Biso   1.000  O
  O123     1.0000 0.23430  0.57450  0.52300  Biso   1.000  O
  O124     1.0000 0.26570  0.07450  0.97700  Biso   1.000  O
  O125     1.0000 0.87050  0.32300  0.50770  Biso   1.000  O
  O126     1.0000 0.62950  0.82300  0.99230  Biso   1.000  O
  O127     1.0000 0.12950  0.67700  0.49230  Biso   1.000  O
  O128     1.0000 0.37050  0.17700  0.00770  Biso   1.000  O
  O129     1.0000 0.90560  0.43910  0.46010  Biso   1.000  O
  O130     1.0000 0.59440  0.93910  0.03990  Biso   1.000  O
  O131     1.0000 0.09440  0.56090  0.53990  Biso   1.000  O
  O132     1.0000 0.40560  0.06090  0.96010  Biso   1.000  O
  Cl5      1.0000 0.88680  0.19979  0.01532  Biso   1.000  Cl
  Cl6      1.0000 0.61320  0.69979  0.48468  Biso   1.000  Cl
  Cl7      1.0000 0.11320  0.80021  0.98468  Biso   1.000  Cl
  Cl8      1.0000 0.38680  0.30021  0.51532  Biso   1.000  Cl
  O133     1.0000 0.80210  0.15770  0.01110  Biso   1.000  O
  O134     1.0000 0.69790  0.65770  0.48890  Biso   1.000  O
  O135     1.0000 0.19790  0.84230  0.98890  Biso   1.000  O
  O136     1.0000 0.30210  0.34230  0.51110  Biso   1.000  O
  O137     1.0000 0.87120  0.21040  0.93730  Biso   1.000  O
  O138     1.0000 0.62880  0.71040  0.56270  Biso   1.000  O
  O139     1.0000 0.12880  0.78960  0.06270  Biso   1.000  O
  O140     1.0000 0.37120  0.28960  0.43730  Biso   1.000  O
  O141     1.0000 0.87670  0.27010  0.04900  Biso   1.000  O
  O142     1.0000 0.62330  0.77010  0.45100  Biso   1.000  O
  O143     1.0000 0.12330  0.72990  0.95100  Biso   1.000  O
  O144     1.0000 0.37670  0.22990  0.54900  Biso   1.000  O
  O145     1.0000 0.96010  0.15380  0.05360  Biso   1.000  O
  O146     1.0000 0.53990  0.65380  0.44640  Biso   1.000  O
  O147     1.0000 0.03990  0.84620  0.94640  Biso   1.000  O
  O148     1.0000 0.46010  0.34620  0.55360  Biso   1.000  O
  Cl9      1.0000 0.63620  0.40200  0.00976  Biso   1.000  Cl
  Cl10     1.0000 0.86380  0.90200  0.49024  Biso   1.000  Cl
  Cl11     1.0000 0.36380  0.59800  0.99024  Biso   1.000  Cl
  Cl12     1.0000 0.13620  0.09800  0.50976  Biso   1.000  Cl
  O149     1.0000 0.73310  0.36890  0.03800  Biso   1.000  O
  O150     1.0000 0.76690  0.86890  0.46200  Biso   1.000  O
  O151     1.0000 0.26690  0.63110  0.96200  Biso   1.000  O
  O152     1.0000 0.23310  0.13110  0.53800  Biso   1.000  O
  O153     1.0000 0.59770  0.38600  0.93450  Biso   1.000  O
  O154     1.0000 0.90230  0.88600  0.56550  Biso   1.000  O
  O155     1.0000 0.40230  0.61400  0.06550  Biso   1.000  O
  O156     1.0000 0.09770  0.11400  0.43450  Biso   1.000  O
  O157     1.0000 0.66110  0.48580  0.01520  Biso   1.000  O
  O158     1.0000 0.83890  0.98580  0.48480  Biso   1.000  O
  O159     1.0000 0.33890  0.51420  0.98480  Biso   1.000  O
  O160     1.0000 0.16110  0.01420  0.51520  Biso   1.000  O
  O161     1.0000 0.59880  0.38560  0.06230  Biso   1.000  O
  O162     1.0000 0.90120  0.88560  0.43770  Biso   1.000  O
  O163     1.0000 0.40120  0.61440  0.93770  Biso   1.000  O
  O164     1.0000 0.09880  0.11440  0.56230  Biso   1.000  O
  O165     1.0000 0.95180  0.43100  0.51040  Biso   1.000  O
  O166     1.0000 0.54820  0.93100  0.98960  Biso   1.000  O
  O167     1.0000 0.04820  0.56900  0.48960  Biso   1.000  O
  O168     1.0000 0.45180  0.06900  0.01040  Biso   1.000  O
  O169     1.0000 0.81340  0.46810  0.52460  Biso   1.000  O
  O170     1.0000 0.68660  0.96810  0.97540  Biso   1.000  O
  O171     1.0000 0.18660  0.53190  0.47540  Biso   1.000  O
  O172     1.0000 0.31340  0.03190  0.02460  Biso   1.000  O
  O173     1.0000 0.81350  0.39090  0.42430  Biso   1.000  O
  O174     1.0000 0.68650  0.89090  0.07570  Biso   1.000  O
  O175     1.0000 0.18650  0.60910  0.57570  Biso   1.000  O
  O176     1.0000 0.31350  0.10910  0.92430  Biso   1.000  O
  O177     1.0000 0.86110  0.33810  0.54500  Biso   1.000  O
  O178     1.0000 0.63890  0.83810  0.95500  Biso   1.000  O
  O179     1.0000 0.13890  0.66190  0.45500  Biso   1.000  O
  O180     1.0000 0.36110  0.16190  0.04500  Biso   1.000  O
  O181     1.0000 0.86800  0.26620  0.97240  Biso   1.000  O
  O182     1.0000 0.63200  0.76620  0.52760  Biso   1.000  O
  O183     1.0000 0.13200  0.73380  0.02760  Biso   1.000  O
  O184     1.0000 0.36800  0.23380  0.47240  Biso   1.000  O
  O185     1.0000 0.93140  0.21660  0.09460  Biso   1.000  O
  O186     1.0000 0.56860  0.71660  0.40540  Biso   1.000  O
  O187     1.0000 0.06860  0.78340  0.90540  Biso   1.000  O
  O188     1.0000 0.43140  0.28340  0.59460  Biso   1.000  O
  O189     1.0000 0.94260  0.14570  0.99550  Biso   1.000  O
  O190     1.0000 0.55740  0.64570  0.50450  Biso   1.000  O
  O191     1.0000 0.05740  0.85430  0.00450  Biso   1.000  O
  O192     1.0000 0.44260  0.35430  0.49550  Biso   1.000  O
  O193     1.0000 0.58760  0.32820  0.02400  Biso   1.000  O
  O194     1.0000 0.91240  0.82820  0.47600  Biso   1.000  O
  O195     1.0000 0.41240  0.67180  0.97600  Biso   1.000  O
  O196     1.0000 0.08760  0.17180  0.52400  Biso   1.000  O
  O197     1.0000 0.70900  0.41150  0.07850  Biso   1.000  O
  O198     1.0000 0.79100  0.91150  0.42150  Biso   1.000  O
  O199     1.0000 0.29100  0.58850  0.92150  Biso   1.000  O
  O200     1.0000 0.20900  0.08850  0.57850  Biso   1.000  O
  O201     1.0000 0.56570  0.45740  0.99510  Biso   1.000  O
  O202     1.0000 0.93430  0.95740  0.50490  Biso   1.000  O
  O203     1.0000 0.43430  0.54260  0.00490  Biso   1.000  O
  O204     1.0000 0.06570  0.04260  0.49510  Biso   1.000  O
  O205     1.0000 0.66200  0.37770  0.95070  Biso   1.000  O
  O206     1.0000 0.83800  0.87770  0.54930  Biso   1.000  O
  O207     1.0000 0.33800  0.62230  0.04930  Biso   1.000  O
  O208     1.0000 0.16200  0.12230  0.45070  Biso   1.000  O
