data_image0
_cell_length_a       10.7687
_cell_length_b       12.8355
_cell_length_c       17.0513
_cell_angle_alpha    90
_cell_angle_beta     126.803
_cell_angle_gamma    90

_symmetry_space_group_name_H-M    "P 1"
_symmetry_int_tables_number       1

loop_
  _symmetry_equiv_pos_as_xyz
  'x, y, z'

loop_
  _atom_site_label
  _atom_site_occupancy
  _atom_site_fract_x
  _atom_site_fract_y
  _atom_site_fract_z
  _atom_site_thermal_displace_type
  _atom_site_B_iso_or_equiv
  _atom_site_type_symbol
  Cu1      1.0000 0.35081  0.64511  0.84300  Biso   1.000  Cu
  Cu2      1.0000 0.64919  0.14511  0.65700  Biso   1.000  Cu
  Cu3      1.0000 0.64919  0.35489  0.15700  Biso   1.000  Cu
  Cu4      1.0000 0.35081  0.85489  0.34300  Biso   1.000  Cu
  O1       1.0000 0.47880  0.59660  0.97768  Biso   1.000  O
  O2       1.0000 0.52120  0.09660  0.52232  Biso   1.000  O
  O3       1.0000 0.52120  0.40340  0.02232  Biso   1.000  O
  O4       1.0000 0.47880  0.90340  0.47768  Biso   1.000  O
  H1       1.0000 0.50300  0.64400  0.00800  Biso   1.000  H
  H2       1.0000 0.49700  0.14400  0.49200  Biso   1.000  H
  H3       1.0000 0.49700  0.35600  0.99200  Biso   1.000  H
  H4       1.0000 0.50300  0.85600  0.50800  Biso   1.000  H
  Cu5      1.0000 0.64198  0.50257  0.00405  Biso   1.000  Cu
  Cu6      1.0000 0.35802  0.00257  0.49595  Biso   1.000  Cu
  Cu7      1.0000 0.35802  0.49743  0.99595  Biso   1.000  Cu
  Cu8      1.0000 0.64198  0.99743  0.50405  Biso   1.000  Cu
  O5       1.0000 0.20070  0.59673  0.96868  Biso   1.000  O
  O6       1.0000 0.79930  0.09673  0.53132  Biso   1.000  O
  O7       1.0000 0.79930  0.40327  0.03132  Biso   1.000  O
  O8       1.0000 0.20070  0.90327  0.46868  Biso   1.000  O
  O9       1.0000 0.54050  0.70870  0.86180  Biso   1.000  O
  O10      1.0000 0.45950  0.20870  0.63820  Biso   1.000  O
  O11      1.0000 0.45950  0.29130  0.13820  Biso   1.000  O
  O12      1.0000 0.54050  0.79130  0.36180  Biso   1.000  O
  O13      1.0000 0.73120  0.59570  0.96030  Biso   1.000  O
  O14      1.0000 0.26880  0.09570  0.53970  Biso   1.000  O
  O15      1.0000 0.26880  0.40430  0.03970  Biso   1.000  O
  O16      1.0000 0.73120  0.90430  0.46030  Biso   1.000  O
  O17      1.0000 0.63210  0.99210  0.70300  Biso   1.000  O
  O18      1.0000 0.36790  0.49210  0.79700  Biso   1.000  O
  O19      1.0000 0.36790  0.00790  0.29700  Biso   1.000  O
  O20      1.0000 0.63210  0.50790  0.20300  Biso   1.000  O
  O21      1.0000 0.79620  0.95310  0.66900  Biso   1.000  O
  O22      1.0000 0.20380  0.45310  0.83100  Biso   1.000  O
  O23      1.0000 0.20380  0.04690  0.33100  Biso   1.000  O
  O24      1.0000 0.79620  0.54690  0.16900  Biso   1.000  O
  C1       1.0000 0.79780  0.84610  0.78170  Biso   1.000  C
  C2       1.0000 0.20220  0.34610  0.71830  Biso   1.000  C
  C3       1.0000 0.20220  0.15390  0.21830  Biso   1.000  C
  C4       1.0000 0.79780  0.65390  0.28170  Biso   1.000  C
  C5       1.0000 0.73570  0.93620  0.71260  Biso   1.000  C
  C6       1.0000 0.26430  0.43620  0.78740  Biso   1.000  C
  C7       1.0000 0.26430  0.06380  0.28740  Biso   1.000  C
  C8       1.0000 0.73570  0.56380  0.21260  Biso   1.000  C
  C9       1.0000 0.71600  0.80550  0.81340  Biso   1.000  C
  C10      1.0000 0.28400  0.30550  0.68660  Biso   1.000  C
  C11      1.0000 0.28400  0.19450  0.18660  Biso   1.000  C
  C12      1.0000 0.71600  0.69450  0.31340  Biso   1.000  C
  H5       1.0000 0.62320  0.83660  0.79340  Biso   1.000  H
  H6       1.0000 0.37680  0.33660  0.70660  Biso   1.000  H
  H7       1.0000 0.37680  0.16340  0.20660  Biso   1.000  H
  H8       1.0000 0.62320  0.66340  0.29340  Biso   1.000  H
  C13      1.0000 0.93480  0.79930  0.81140  Biso   1.000  C
  C14      1.0000 0.06520  0.29930  0.68860  Biso   1.000  C
  C15      1.0000 0.06520  0.20070  0.18860  Biso   1.000  C
  C16      1.0000 0.93480  0.70070  0.31140  Biso   1.000  C
  H9       1.0000 0.98910  0.82490  0.78890  Biso   1.000  H
  H10      1.0000 0.01090  0.32490  0.71110  Biso   1.000  H
  H11      1.0000 0.01090  0.17510  0.21110  Biso   1.000  H
  H12      1.0000 0.98910  0.67510  0.28890  Biso   1.000  H
  C17      1.0000 0.91030  0.67430  0.90620  Biso   1.000  C
  C18      1.0000 0.08970  0.17430  0.59380  Biso   1.000  C
  C19      1.0000 0.08970  0.32570  0.09380  Biso   1.000  C
  C20      1.0000 0.91030  0.82570  0.40620  Biso   1.000  C
  H13      1.0000 0.94880  0.61750  0.94850  Biso   1.000  H
  H14      1.0000 0.05120  0.11750  0.55150  Biso   1.000  H
  H15      1.0000 0.05120  0.38250  0.05150  Biso   1.000  H
  H16      1.0000 0.94880  0.88250  0.44850  Biso   1.000  H
  C21      1.0000 0.77010  0.71920  0.87470  Biso   1.000  C
  C22      1.0000 0.22990  0.21920  0.62530  Biso   1.000  C
  C23      1.0000 0.22990  0.28080  0.12530  Biso   1.000  C
  C24      1.0000 0.77010  0.78080  0.37470  Biso   1.000  C
  C25      1.0000 0.99280  0.71440  0.87450  Biso   1.000  C
  C26      1.0000 0.00720  0.21440  0.62550  Biso   1.000  C
  C27      1.0000 0.00720  0.28560  0.12550  Biso   1.000  C
  C28      1.0000 0.99280  0.78560  0.37450  Biso   1.000  C
  O25      1.0000 0.19210  0.69700  0.85790  Biso   1.000  O
  O26      1.0000 0.80790  0.19700  0.64210  Biso   1.000  O
  O27      1.0000 0.80790  0.30300  0.14210  Biso   1.000  O
  O28      1.0000 0.19210  0.80300  0.35790  Biso   1.000  O
  N1       1.0000 0.21010  0.69810  0.70610  Biso   1.000  N
  N2       1.0000 0.78990  0.19810  0.79390  Biso   1.000  N
  N3       1.0000 0.78990  0.30190  0.29390  Biso   1.000  N
  N4       1.0000 0.21010  0.80190  0.20610  Biso   1.000  N
  H17      1.0000 0.19500  0.76100  0.70400  Biso   1.000  H
  H18      1.0000 0.80500  0.26100  0.79600  Biso   1.000  H
  H19      1.0000 0.80500  0.23900  0.29600  Biso   1.000  H
  H20      1.0000 0.19500  0.73900  0.20400  Biso   1.000  H
  C29      1.0000 0.06480  0.64040  0.64600  Biso   1.000  C
  C30      1.0000 0.93520  0.14040  0.85400  Biso   1.000  C
  C31      1.0000 0.93520  0.35960  0.35400  Biso   1.000  C
  C32      1.0000 0.06480  0.85960  0.14600  Biso   1.000  C
  H21      1.0000 0.99230  0.67870  0.58700  Biso   1.000  H
  H22      1.0000 0.00770  0.17870  0.91300  Biso   1.000  H
  H23      1.0000 0.00770  0.32130  0.41300  Biso   1.000  H
  H24      1.0000 0.99230  0.82130  0.08700  Biso   1.000  H
  H25      1.0000 0.02280  0.63080  0.68170  Biso   1.000  H
  H26      1.0000 0.97720  0.13080  0.81830  Biso   1.000  H
  H27      1.0000 0.97720  0.36920  0.31830  Biso   1.000  H
  H28      1.0000 0.02280  0.86920  0.18170  Biso   1.000  H
  H29      1.0000 0.08370  0.57360  0.62960  Biso   1.000  H
  H30      1.0000 0.91630  0.07360  0.87040  Biso   1.000  H
  H31      1.0000 0.91630  0.42640  0.37040  Biso   1.000  H
  H32      1.0000 0.08370  0.92640  0.12960  Biso   1.000  H
  C33      1.0000 0.67200  0.67080  0.90130  Biso   1.000  C
  C34      1.0000 0.32800  0.17080  0.59870  Biso   1.000  C
  C35      1.0000 0.32800  0.32920  0.09870  Biso   1.000  C
  C36      1.0000 0.67200  0.82920  0.40130  Biso   1.000  C
  C37      1.0000 0.27530  0.71650  0.65440  Biso   1.000  C
  C38      1.0000 0.72470  0.21650  0.84560  Biso   1.000  C
  C39      1.0000 0.72470  0.28350  0.34560  Biso   1.000  C
  C40      1.0000 0.27530  0.78350  0.15440  Biso   1.000  C
  H33      1.0000 0.32040  0.65330  0.65200  Biso   1.000  H
  H34      1.0000 0.67960  0.15330  0.84800  Biso   1.000  H
  H35      1.0000 0.67960  0.34670  0.34800  Biso   1.000  H
  H36      1.0000 0.32040  0.84670  0.15200  Biso   1.000  H
  H37      1.0000 0.35390  0.76930  0.68780  Biso   1.000  H
  H38      1.0000 0.64610  0.26930  0.81220  Biso   1.000  H
  H39      1.0000 0.64610  0.23070  0.31220  Biso   1.000  H
  H40      1.0000 0.35390  0.73070  0.18780  Biso   1.000  H
  H41      1.0000 0.19520  0.73940  0.58900  Biso   1.000  H
  H42      1.0000 0.80480  0.23940  0.91100  Biso   1.000  H
  H43      1.0000 0.80480  0.26060  0.41100  Biso   1.000  H
  H44      1.0000 0.19520  0.76060  0.08900  Biso   1.000  H
  C41      1.0000 0.14070  0.66550  0.90300  Biso   1.000  C
  C42      1.0000 0.85930  0.16550  0.59700  Biso   1.000  C
  C43      1.0000 0.85930  0.33450  0.09700  Biso   1.000  C
  C44      1.0000 0.14070  0.83450  0.40300  Biso   1.000  C
  O29      1.0000 0.04580  0.90490  0.66150  Biso   1.000  O
  O30      1.0000 0.95420  0.40490  0.83850  Biso   1.000  O
  O31      1.0000 0.95420  0.09510  0.33850  Biso   1.000  O
  O32      1.0000 0.04580  0.59510  0.16150  Biso   1.000  O
  H45      1.0000 0.99000  0.85000  0.64000  Biso   1.000  H
  H46      1.0000 0.01000  0.35000  0.86000  Biso   1.000  H
  H47      1.0000 0.01000  0.15000  0.36000  Biso   1.000  H
  H48      1.0000 0.99000  0.65000  0.14000  Biso   1.000  H
  H49      1.0000 0.99500  0.93300  0.68000  Biso   1.000  H
  H50      1.0000 0.00500  0.43300  0.82000  Biso   1.000  H
  H51      1.0000 0.00500  0.06700  0.32000  Biso   1.000  H
  H52      1.0000 0.99500  0.56700  0.18000  Biso   1.000  H
