data_image0
_cell_length_a       10.7687
_cell_length_b       12.8355
_cell_length_c       17.0513
_cell_angle_alpha    90
_cell_angle_beta     126.803
_cell_angle_gamma    90

_symmetry_space_group_name_H-M    "P 1"
_symmetry_int_tables_number       1

loop_
  _symmetry_equiv_pos_as_xyz
  'x, y, z'

loop_
  _atom_site_label
  _atom_site_occupancy
  _atom_site_fract_x
  _atom_site_fract_y
  _atom_site_fract_z
  _atom_site_thermal_displace_type
  _atom_site_B_iso_or_equiv
  _atom_site_type_symbol
  Cu1      1.0000 0.35083  0.64510  0.84303  Biso   1.000  Cu
  Cu2      1.0000 0.64917  0.14510  0.65697  Biso   1.000  Cu
  Cu3      1.0000 0.64917  0.35490  0.15697  Biso   1.000  Cu
  Cu4      1.0000 0.35083  0.85490  0.34303  Biso   1.000  Cu
  O1       1.0000 0.47870  0.59660  0.97760  Biso   1.000  O
  O2       1.0000 0.52130  0.09660  0.52240  Biso   1.000  O
  O3       1.0000 0.52130  0.40340  0.02240  Biso   1.000  O
  O4       1.0000 0.47870  0.90340  0.47760  Biso   1.000  O
  H1       1.0000 0.49800  0.64500  0.00500  Biso   1.000  H
  H2       1.0000 0.50200  0.14500  0.49500  Biso   1.000  H
  H3       1.0000 0.50200  0.35500  0.99500  Biso   1.000  H
  H4       1.0000 0.49800  0.85500  0.50500  Biso   1.000  H
  Cu5      1.0000 0.64201  0.50255  0.00413  Biso   1.000  Cu
  Cu6      1.0000 0.35799  0.00255  0.49587  Biso   1.000  Cu
  Cu7      1.0000 0.35799  0.49745  0.99587  Biso   1.000  Cu
  Cu8      1.0000 0.64201  0.99745  0.50413  Biso   1.000  Cu
  O5       1.0000 0.20050  0.59680  0.96850  Biso   1.000  O
  O6       1.0000 0.79950  0.09680  0.53150  Biso   1.000  O
  O7       1.0000 0.79950  0.40320  0.03150  Biso   1.000  O
  O8       1.0000 0.20050  0.90320  0.46850  Biso   1.000  O
  O9       1.0000 0.53990  0.70870  0.86160  Biso   1.000  O
  O10      1.0000 0.46010  0.20870  0.63840  Biso   1.000  O
  O11      1.0000 0.46010  0.29130  0.13840  Biso   1.000  O
  O12      1.0000 0.53990  0.79130  0.36160  Biso   1.000  O
  O13      1.0000 0.73190  0.59580  0.96070  Biso   1.000  O
  O14      1.0000 0.26810  0.09580  0.53930  Biso   1.000  O
  O15      1.0000 0.26810  0.40420  0.03930  Biso   1.000  O
  O16      1.0000 0.73190  0.90420  0.46070  Biso   1.000  O
  O17      1.0000 0.63200  0.99180  0.70290  Biso   1.000  O
  O18      1.0000 0.36800  0.49180  0.79710  Biso   1.000  O
  O19      1.0000 0.36800  0.00820  0.29710  Biso   1.000  O
  O20      1.0000 0.63200  0.50820  0.20290  Biso   1.000  O
  O21      1.0000 0.79570  0.95330  0.66880  Biso   1.000  O
  O22      1.0000 0.20430  0.45330  0.83120  Biso   1.000  O
  O23      1.0000 0.20430  0.04670  0.33120  Biso   1.000  O
  O24      1.0000 0.79570  0.54670  0.16880  Biso   1.000  O
  C1       1.0000 0.79780  0.84560  0.78180  Biso   1.000  C
  C2       1.0000 0.20220  0.34560  0.71820  Biso   1.000  C
  C3       1.0000 0.20220  0.15440  0.21820  Biso   1.000  C
  C4       1.0000 0.79780  0.65440  0.28180  Biso   1.000  C
  C5       1.0000 0.73580  0.93640  0.71240  Biso   1.000  C
  C6       1.0000 0.26420  0.43640  0.78760  Biso   1.000  C
  C7       1.0000 0.26420  0.06360  0.28760  Biso   1.000  C
  C8       1.0000 0.73580  0.56360  0.21240  Biso   1.000  C
  C9       1.0000 0.71560  0.80550  0.81350  Biso   1.000  C
  C10      1.0000 0.28440  0.30550  0.68650  Biso   1.000  C
  C11      1.0000 0.28440  0.19450  0.18650  Biso   1.000  C
  C12      1.0000 0.71560  0.69450  0.31350  Biso   1.000  C
  H5       1.0000 0.62300  0.83670  0.79360  Biso   1.000  H
  H6       1.0000 0.37700  0.33670  0.70640  Biso   1.000  H
  H7       1.0000 0.37700  0.16330  0.20640  Biso   1.000  H
  H8       1.0000 0.62300  0.66330  0.29360  Biso   1.000  H
  C13      1.0000 0.93440  0.79890  0.81110  Biso   1.000  C
  C14      1.0000 0.06560  0.29890  0.68890  Biso   1.000  C
  C15      1.0000 0.06560  0.20110  0.18890  Biso   1.000  C
  C16      1.0000 0.93440  0.70110  0.31110  Biso   1.000  C
  H9       1.0000 0.98820  0.82430  0.78820  Biso   1.000  H
  H10      1.0000 0.01180  0.32430  0.71180  Biso   1.000  H
  H11      1.0000 0.01180  0.17570  0.21180  Biso   1.000  H
  H12      1.0000 0.98820  0.67570  0.28820  Biso   1.000  H
  C17      1.0000 0.91010  0.67410  0.90610  Biso   1.000  C
  C18      1.0000 0.08990  0.17410  0.59390  Biso   1.000  C
  C19      1.0000 0.08990  0.32590  0.09390  Biso   1.000  C
  C20      1.0000 0.91010  0.82590  0.40610  Biso   1.000  C
  H13      1.0000 0.94840  0.61720  0.94820  Biso   1.000  H
  H14      1.0000 0.05160  0.11720  0.55180  Biso   1.000  H
  H15      1.0000 0.05160  0.38280  0.05180  Biso   1.000  H
  H16      1.0000 0.94840  0.88280  0.44820  Biso   1.000  H
  C21      1.0000 0.76950  0.71920  0.87460  Biso   1.000  C
  C22      1.0000 0.23050  0.21920  0.62540  Biso   1.000  C
  C23      1.0000 0.23050  0.28080  0.12540  Biso   1.000  C
  C24      1.0000 0.76950  0.78080  0.37460  Biso   1.000  C
  C25      1.0000 0.99290  0.71430  0.87440  Biso   1.000  C
  C26      1.0000 0.00710  0.21430  0.62560  Biso   1.000  C
  C27      1.0000 0.00710  0.28570  0.12560  Biso   1.000  C
  C28      1.0000 0.99290  0.78570  0.37440  Biso   1.000  C
  O25      1.0000 0.19220  0.69690  0.85780  Biso   1.000  O
  O26      1.0000 0.80780  0.19690  0.64220  Biso   1.000  O
  O27      1.0000 0.80780  0.30310  0.14220  Biso   1.000  O
  O28      1.0000 0.19220  0.80310  0.35780  Biso   1.000  O
  N1       1.0000 0.20980  0.69840  0.70600  Biso   1.000  N
  N2       1.0000 0.79020  0.19840  0.79400  Biso   1.000  N
  N3       1.0000 0.79020  0.30160  0.29400  Biso   1.000  N
  N4       1.0000 0.20980  0.80160  0.20600  Biso   1.000  N
  H17      1.0000 0.18700  0.76600  0.70700  Biso   1.000  H
  H18      1.0000 0.81300  0.26600  0.79300  Biso   1.000  H
  H19      1.0000 0.81300  0.23400  0.29300  Biso   1.000  H
  H20      1.0000 0.18700  0.73400  0.20700  Biso   1.000  H
  C29      1.0000 0.06440  0.64080  0.64510  Biso   1.000  C
  C30      1.0000 0.93560  0.14080  0.85490  Biso   1.000  C
  C31      1.0000 0.93560  0.35920  0.35490  Biso   1.000  C
  C32      1.0000 0.06440  0.85920  0.14510  Biso   1.000  C
  H21      1.0000 0.99060  0.68100  0.58780  Biso   1.000  H
  H22      1.0000 0.00940  0.18100  0.91220  Biso   1.000  H
  H23      1.0000 0.00940  0.31900  0.41220  Biso   1.000  H
  H24      1.0000 0.99060  0.81900  0.08780  Biso   1.000  H
  H25      1.0000 0.02440  0.62800  0.68160  Biso   1.000  H
  H26      1.0000 0.97560  0.12800  0.81840  Biso   1.000  H
  H27      1.0000 0.97560  0.37200  0.31840  Biso   1.000  H
  H28      1.0000 0.02440  0.87200  0.18160  Biso   1.000  H
  H29      1.0000 0.08260  0.57570  0.62590  Biso   1.000  H
  H30      1.0000 0.91740  0.07570  0.87410  Biso   1.000  H
  H31      1.0000 0.91740  0.42430  0.37410  Biso   1.000  H
  H32      1.0000 0.08260  0.92430  0.12590  Biso   1.000  H
  C33      1.0000 0.67210  0.67080  0.90100  Biso   1.000  C
  C34      1.0000 0.32790  0.17080  0.59900  Biso   1.000  C
  C35      1.0000 0.32790  0.32920  0.09900  Biso   1.000  C
  C36      1.0000 0.67210  0.82920  0.40100  Biso   1.000  C
  C37      1.0000 0.27510  0.71420  0.65390  Biso   1.000  C
  C38      1.0000 0.72490  0.21420  0.84610  Biso   1.000  C
  C39      1.0000 0.72490  0.28580  0.34610  Biso   1.000  C
  C40      1.0000 0.27510  0.78580  0.15390  Biso   1.000  C
  H33      1.0000 0.32550  0.65140  0.65600  Biso   1.000  H
  H34      1.0000 0.67450  0.15140  0.84400  Biso   1.000  H
  H35      1.0000 0.67450  0.34860  0.34400  Biso   1.000  H
  H36      1.0000 0.32550  0.84860  0.15600  Biso   1.000  H
  H37      1.0000 0.34940  0.76980  0.68400  Biso   1.000  H
  H38      1.0000 0.65060  0.26980  0.81600  Biso   1.000  H
  H39      1.0000 0.65060  0.23020  0.31600  Biso   1.000  H
  H40      1.0000 0.34940  0.73020  0.18400  Biso   1.000  H
  H41      1.0000 0.19400  0.73180  0.58700  Biso   1.000  H
  H42      1.0000 0.80600  0.23180  0.91300  Biso   1.000  H
  H43      1.0000 0.80600  0.26820  0.41300  Biso   1.000  H
  H44      1.0000 0.19400  0.76820  0.08700  Biso   1.000  H
  C41      1.0000 0.14070  0.66550  0.90280  Biso   1.000  C
  C42      1.0000 0.85930  0.16550  0.59720  Biso   1.000  C
  C43      1.0000 0.85930  0.33450  0.09720  Biso   1.000  C
  C44      1.0000 0.14070  0.83450  0.40280  Biso   1.000  C
  O29      1.0000 0.54510  0.78200  0.07040  Biso   1.000  O
  O30      1.0000 0.45490  0.28200  0.42960  Biso   1.000  O
  O31      1.0000 0.45490  0.21800  0.92960  Biso   1.000  O
  O32      1.0000 0.54510  0.71800  0.57040  Biso   1.000  O
  O33      1.0000 0.04260  0.90330  0.66160  Biso   1.000  O
  O34      1.0000 0.95740  0.40330  0.83840  Biso   1.000  O
  O35      1.0000 0.95740  0.09670  0.33840  Biso   1.000  O
  O36      1.0000 0.04260  0.59670  0.16160  Biso   1.000  O
  C45      1.0000 0.58450  0.98080  0.17140  Biso   1.000  C
  C46      1.0000 0.41550  0.48080  0.32860  Biso   1.000  C
  C47      1.0000 0.41550  0.01920  0.82860  Biso   1.000  C
  C48      1.0000 0.58450  0.51920  0.67140  Biso   1.000  C
  N5       1.0000 0.46780  0.94480  0.08470  Biso   1.000  N
  N6       1.0000 0.53220  0.44480  0.41530  Biso   1.000  N
  N7       1.0000 0.53220  0.05520  0.91530  Biso   1.000  N
  N8       1.0000 0.46780  0.55520  0.58470  Biso   1.000  N
  C49      1.0000 0.32100  0.00460  0.02290  Biso   1.000  C
  C50      1.0000 0.67900  0.50460  0.47710  Biso   1.000  C
  C51      1.0000 0.67900  0.99540  0.97710  Biso   1.000  C
  C52      1.0000 0.32100  0.49540  0.52290  Biso   1.000  C
  C53      1.0000 0.45400  0.84640  0.04040  Biso   1.000  C
  C54      1.0000 0.54600  0.34640  0.45960  Biso   1.000  C
  C55      1.0000 0.54600  0.15360  0.95960  Biso   1.000  C
  C56      1.0000 0.45400  0.65360  0.54040  Biso   1.000  C
  C57      1.0000 0.74700  0.00700  0.10300  Biso   1.000  C
  C58      1.0000 0.25300  0.50700  0.39700  Biso   1.000  C
  C59      1.0000 0.25300  0.99300  0.89700  Biso   1.000  C
  C60      1.0000 0.74700  0.49300  0.60300  Biso   1.000  C
  C61      1.0000 0.61200  0.84060  0.08240  Biso   1.000  C
  C62      1.0000 0.38800  0.34060  0.41760  Biso   1.000  C
  C63      1.0000 0.38800  0.15940  0.91760  Biso   1.000  C
  C64      1.0000 0.61200  0.65940  0.58240  Biso   1.000  C
  N9       1.0000 0.65300  0.93810  0.11820  Biso   1.000  N
  N10      1.0000 0.34700  0.43810  0.38180  Biso   1.000  N
  N11      1.0000 0.34700  0.06190  0.88180  Biso   1.000  N
  N12      1.0000 0.65300  0.56190  0.61820  Biso   1.000  N
