data_image0
_cell_length_a       7.5962
_cell_length_b       13.056
_cell_length_c       9.1695
_cell_angle_alpha    90
_cell_angle_beta     94.2
_cell_angle_gamma    90

_symmetry_space_group_name_H-M    "P 1"
_symmetry_int_tables_number       1

loop_
  _symmetry_equiv_pos_as_xyz
  'x, y, z'

loop_
  _atom_site_label
  _atom_site_occupancy
  _atom_site_fract_x
  _atom_site_fract_y
  _atom_site_fract_z
  _atom_site_thermal_displace_type
  _atom_site_B_iso_or_equiv
  _atom_site_type_symbol
  Cu1      1.0000 0.91995  0.90503  0.20761  Biso   1.000  Cu
  Cu2      1.0000 0.08005  0.40503  0.29239  Biso   1.000  Cu
  Cu3      1.0000 0.08005  0.09497  0.79239  Biso   1.000  Cu
  Cu4      1.0000 0.91995  0.59497  0.70761  Biso   1.000  Cu
  N1       1.0000 0.92030  0.75249  0.96664  Biso   1.000  N
  N2       1.0000 0.07970  0.25249  0.53336  Biso   1.000  N
  N3       1.0000 0.07970  0.24751  0.03336  Biso   1.000  N
  N4       1.0000 0.92030  0.74751  0.46664  Biso   1.000  N
  N5       1.0000 0.27910  0.91803  0.99900  Biso   1.000  N
  N6       1.0000 0.72090  0.41803  0.50100  Biso   1.000  N
  N7       1.0000 0.72090  0.08197  0.00100  Biso   1.000  N
  N8       1.0000 0.27910  0.58197  0.49900  Biso   1.000  N
  N9       1.0000 0.14430  0.98471  0.20829  Biso   1.000  N
  N10      1.0000 0.85570  0.48471  0.29171  Biso   1.000  N
  N11      1.0000 0.85570  0.01529  0.79171  Biso   1.000  N
  N12      1.0000 0.14430  0.51529  0.70829  Biso   1.000  N
  C1       1.0000 0.27520  0.98134  0.11860  Biso   1.000  C
  C2       1.0000 0.72480  0.48134  0.38140  Biso   1.000  C
  C3       1.0000 0.72480  0.01866  0.88140  Biso   1.000  C
  C4       1.0000 0.27520  0.51866  0.61860  Biso   1.000  C
  N13      1.0000 0.00410  0.83443  0.03239  Biso   1.000  N
  N14      1.0000 0.99590  0.33443  0.46761  Biso   1.000  N
  N15      1.0000 0.99590  0.16557  0.96761  Biso   1.000  N
  N16      1.0000 0.00410  0.66557  0.53239  Biso   1.000  N
  N17      1.0000 0.34800  0.09390  0.27900  Biso   1.000  N
  N18      1.0000 0.65200  0.59390  0.22100  Biso   1.000  N
  N19      1.0000 0.65200  0.90610  0.72100  Biso   1.000  N
  N20      1.0000 0.34800  0.40610  0.77900  Biso   1.000  N
  N21      1.0000 0.40320  0.04761  0.15710  Biso   1.000  N
  N22      1.0000 0.59680  0.54761  0.34290  Biso   1.000  N
  N23      1.0000 0.59680  0.95239  0.84290  Biso   1.000  N
  N24      1.0000 0.40320  0.45239  0.65710  Biso   1.000  N
  C5       1.0000 0.15430  0.84336  0.96680  Biso   1.000  C
  C6       1.0000 0.84570  0.34336  0.53320  Biso   1.000  C
  C7       1.0000 0.84570  0.15664  0.03320  Biso   1.000  C
  C8       1.0000 0.15430  0.65664  0.46680  Biso   1.000  C
  N25      1.0000 0.19570  0.05732  0.30950  Biso   1.000  N
  N26      1.0000 0.80430  0.55732  0.19050  Biso   1.000  N
  N27      1.0000 0.80430  0.94268  0.69050  Biso   1.000  N
  N28      1.0000 0.19570  0.44268  0.80950  Biso   1.000  N
  N29      1.0000 0.68590  0.83497  0.17280  Biso   1.000  N
  N30      1.0000 0.31410  0.33497  0.32720  Biso   1.000  N
  N31      1.0000 0.31410  0.16503  0.82720  Biso   1.000  N
  N32      1.0000 0.68590  0.66503  0.67280  Biso   1.000  N
  N33      1.0000 0.17020  0.77325  0.86430  Biso   1.000  N
  N34      1.0000 0.82980  0.27325  0.63570  Biso   1.000  N
  N35      1.0000 0.82980  0.22675  0.13570  Biso   1.000  N
  N36      1.0000 0.17020  0.72675  0.36430  Biso   1.000  N
  N37      1.0000 0.01930  0.71752  0.86870  Biso   1.000  N
  N38      1.0000 0.98070  0.21752  0.63130  Biso   1.000  N
  N39      1.0000 0.98070  0.28248  0.13130  Biso   1.000  N
  N40      1.0000 0.01930  0.78248  0.36870  Biso   1.000  N
  N41      1.0000 0.81920  0.00260  0.35290  Biso   1.000  N
  N42      1.0000 0.18080  0.50260  0.14710  Biso   1.000  N
  N43      1.0000 0.18080  0.99740  0.64710  Biso   1.000  N
  N44      1.0000 0.81920  0.49740  0.85290  Biso   1.000  N
  O1       1.0000 0.47080  0.87020  0.42170  Biso   1.000  O
  O2       1.0000 0.52920  0.37020  0.07830  Biso   1.000  O
  O3       1.0000 0.52920  0.12980  0.57830  Biso   1.000  O
  O4       1.0000 0.47080  0.62980  0.92170  Biso   1.000  O
  H1       1.0000 0.70300  0.76800  0.17500  Biso   1.000  H
  H2       1.0000 0.29700  0.26800  0.32500  Biso   1.000  H
  H3       1.0000 0.29700  0.23200  0.82500  Biso   1.000  H
  H4       1.0000 0.70300  0.73200  0.67500  Biso   1.000  H
  H5       1.0000 0.37000  0.92500  0.94400  Biso   1.000  H
  H6       1.0000 0.63000  0.42500  0.55600  Biso   1.000  H
  H7       1.0000 0.63000  0.07500  0.05600  Biso   1.000  H
  H8       1.0000 0.37000  0.57500  0.44400  Biso   1.000  H
  H9       1.0000 0.63800  0.85300  0.09100  Biso   1.000  H
  H10      1.0000 0.36200  0.35300  0.40900  Biso   1.000  H
  H11      1.0000 0.36200  0.14700  0.90900  Biso   1.000  H
  H12      1.0000 0.63800  0.64700  0.59100  Biso   1.000  H
  H13      1.0000 0.61000  0.85000  0.24300  Biso   1.000  H
  H14      1.0000 0.39000  0.35000  0.25700  Biso   1.000  H
  H15      1.0000 0.39000  0.15000  0.75700  Biso   1.000  H
  H16      1.0000 0.61000  0.65000  0.74300  Biso   1.000  H
  H17      1.0000 0.51200  0.86800  0.50800  Biso   1.000  H
  H18      1.0000 0.48800  0.36800  0.99200  Biso   1.000  H
  H19      1.0000 0.48800  0.13200  0.49200  Biso   1.000  H
  H20      1.0000 0.51200  0.63200  0.00800  Biso   1.000  H
  H21      1.0000 0.71100  0.01200  0.33700  Biso   1.000  H
  H22      1.0000 0.28900  0.51200  0.16300  Biso   1.000  H
  H23      1.0000 0.28900  0.98800  0.66300  Biso   1.000  H
  H24      1.0000 0.71100  0.48800  0.83700  Biso   1.000  H
  H25      1.0000 0.87300  0.05300  0.35800  Biso   1.000  H
  H26      1.0000 0.12700  0.55300  0.14200  Biso   1.000  H
  H27      1.0000 0.12700  0.94700  0.64200  Biso   1.000  H
  H28      1.0000 0.87300  0.44700  0.85800  Biso   1.000  H
  H29      1.0000 0.82300  0.97800  0.44500  Biso   1.000  H
  H30      1.0000 0.17700  0.47800  0.05500  Biso   1.000  H
  H31      1.0000 0.17700  0.02200  0.55500  Biso   1.000  H
  H32      1.0000 0.82300  0.52200  0.94500  Biso   1.000  H
  H33      1.0000 0.41000  0.82900  0.41500  Biso   1.000  H
  H34      1.0000 0.59000  0.32900  0.08500  Biso   1.000  H
  H35      1.0000 0.59000  0.17100  0.58500  Biso   1.000  H
  H36      1.0000 0.41000  0.67100  0.91500  Biso   1.000  H
